MODEL 1
REMARK VINA RESULT:      -7.8      0.000      0.000
REMARK  Name = 
REMARK  6 active torsions:
REMARK  status: ('A' for Active; 'I' for Inactive)
REMARK    1  A    between atoms: C_2  and  C_3
REMARK    2  A    between atoms: C_2  and  C_20
REMARK    3  A    between atoms: C_3  and  C_4
REMARK    4  A    between atoms: C_4  and  C_16
REMARK    5  A    between atoms: N_5  and  N_6
REMARK    6  A    between atoms: C_7  and  C_9
REMARK                            x       y       z     vdW  Elec       q    Type
REMARK                         _______ _______ _______ _____ _____    ______ ____
ROOT
ATOM      1  C   UNL     1       6.352   6.670  17.561  0.00  0.00    +0.000 C 
ATOM      2  N   UNL     1       5.772   6.295  18.673  0.00  0.00    +0.000 NA
ENDROOT
BRANCH   2   3
ATOM      3  N   UNL     1       4.641   5.546  18.607  0.00  0.00    +0.000 N 
ATOM      4  C   UNL     1       4.602   4.266  19.136  0.00  0.00    +0.000 C 
ATOM      5  O   UNL     1       5.580   3.634  19.531  0.00  0.00    +0.000 OA
ATOM      6  H   UNL     1       3.760   6.032  18.466  0.00  0.00    +0.000 HD
BRANCH   4   7
ATOM      7  C   UNL     1       3.259   3.601  19.103  0.00  0.00    +0.000 A 
ATOM      8  C   UNL     1       3.198   2.369  18.423  0.00  0.00    +0.000 A 
ATOM      9  C   UNL     1       1.984   1.693  18.269  0.00  0.00    +0.000 A 
ATOM     10  C   UNL     1       0.819   2.230  18.804  0.00  0.00    +0.000 A 
ATOM     11  C   UNL     1       0.866   3.438  19.499  0.00  0.00    +0.000 A 
ATOM     12  C   UNL     1       2.078   4.124  19.653  0.00  0.00    +0.000 A 
ATOM     13 BR   UNL     1       1.975   5.738  20.657  0.00  0.00    +0.000 Br
ENDBRANCH   4   7
ENDBRANCH   2   3
BRANCH   1  14
ATOM     14  C   UNL     1       7.573   7.585  17.646  0.00  0.00    +0.000 C 
ATOM     15  F   UNL     1       8.319   7.555  16.505  0.00  0.00    +0.000 F 
ATOM     16  F   UNL     1       7.254   8.885  17.874  0.00  0.00    +0.000 F 
ATOM     17  F   UNL     1       8.421   7.209  18.643  0.00  0.00    +0.000 F 
ENDBRANCH   1  14
BRANCH   1  18
ATOM     18  C   UNL     1       5.970   6.191  16.162  0.00  0.00    +0.000 C 
BRANCH  18  20
ATOM     19  O   UNL     1       7.555   4.462  16.490  0.00  0.00    +0.000 OA
ATOM     20  C   UNL     1       6.803   5.018  15.683  0.00  0.00    +0.000 C 
BRANCH  20  21
ATOM     21  C   UNL     1       6.729   4.573  14.292  0.00  0.00    +0.000 A 
ATOM     22  C   UNL     1       5.782   3.704  13.775  0.00  0.00    +0.000 A 
ATOM     23  C   UNL     1       5.977   3.415  12.395  0.00  0.00    +0.000 A 
ATOM     24  C   UNL     1       7.067   4.084  11.886  0.00  0.00    +0.000 A 
ATOM     25  S   UNL     1       7.830   5.056  13.076  0.00  0.00    +0.000 S 
ENDBRANCH  20  21
ENDBRANCH  18  20
ENDBRANCH   1  18
TORSDOF 6
ENDMDL
MODEL 2
REMARK VINA RESULT:      -7.6      4.248      6.037
REMARK  Name = 
REMARK  6 active torsions:
REMARK  status: ('A' for Active; 'I' for Inactive)
REMARK    1  A    between atoms: C_2  and  C_3
REMARK    2  A    between atoms: C_2  and  C_20
REMARK    3  A    between atoms: C_3  and  C_4
REMARK    4  A    between atoms: C_4  and  C_16
REMARK    5  A    between atoms: N_5  and  N_6
REMARK    6  A    between atoms: C_7  and  C_9
REMARK                            x       y       z     vdW  Elec       q    Type
REMARK                         _______ _______ _______ _____ _____    ______ ____
ROOT
ATOM      1  C   UNL     1       4.310   5.984  17.658  0.00  0.00    +0.000 C 
ATOM      2  N   UNL     1       3.392   6.894  17.454  0.00  0.00    +0.000 NA
ENDROOT
BRANCH   2   3
ATOM      3  N   UNL     1       2.707   7.389  18.516  0.00  0.00    +0.000 N 
ATOM      4  C   UNL     1       2.027   8.594  18.427  0.00  0.00    +0.000 C 
ATOM      5  O   UNL     1       2.118   9.389  17.495  0.00  0.00    +0.000 OA
ATOM      6  H   UNL     1       2.433   6.739  19.247  0.00  0.00    +0.000 HD
BRANCH   4   7
ATOM      7  C   UNL     1       1.215   8.960  19.633  0.00  0.00    +0.000 A 
ATOM      8  C   UNL     1       1.667   8.438  20.862  0.00  0.00    +0.000 A 
ATOM      9  C   UNL     1       0.951   8.656  22.042  0.00  0.00    +0.000 A 
ATOM     10  C   UNL     1      -0.218   9.409  22.014  0.00  0.00    +0.000 A 
ATOM     11  C   UNL     1      -0.667   9.949  20.810  0.00  0.00    +0.000 A 
ATOM     12  C   UNL     1       0.042   9.731  19.622  0.00  0.00    +0.000 A 
ATOM     13 BR   UNL     1      -0.686  10.569  18.075  0.00  0.00    +0.000 Br
ENDBRANCH   4   7
ENDBRANCH   2   3
BRANCH   1  14
ATOM     14  C   UNL     1       5.013   5.371  16.447  0.00  0.00    +0.000 C 
ATOM     15  F   UNL     1       4.433   4.201  16.052  0.00  0.00    +0.000 F 
ATOM     16  F   UNL     1       5.026   6.190  15.364  0.00  0.00    +0.000 F 
ATOM     17  F   UNL     1       6.311   5.059  16.716  0.00  0.00    +0.000 F 
ENDBRANCH   1  14
BRANCH   1  18
ATOM     18  C   UNL     1       4.821   5.536  19.026  0.00  0.00    +0.000 C 
BRANCH  18  20
ATOM     19  O   UNL     1       5.361   3.298  19.585  0.00  0.00    +0.000 OA
ATOM     20  C   UNL     1       4.452   4.105  19.362  0.00  0.00    +0.000 C 
BRANCH  20  21
ATOM     21  C   UNL     1       3.050   3.689  19.400  0.00  0.00    +0.000 A 
ATOM     22  C   UNL     1       2.096   4.157  20.288  0.00  0.00    +0.000 A 
ATOM     23  C   UNL     1       0.821   3.546  20.120  0.00  0.00    +0.000 A 
ATOM     24  C   UNL     1       0.831   2.629  19.094  0.00  0.00    +0.000 A 
ATOM     25  S   UNL     1       2.370   2.527  18.344  0.00  0.00    +0.000 S 
ENDBRANCH  20  21
ENDBRANCH  18  20
ENDBRANCH   1  18
TORSDOF 6
ENDMDL
MODEL 3
REMARK VINA RESULT:      -7.4      1.421      1.848
REMARK  Name = 
REMARK  6 active torsions:
REMARK  status: ('A' for Active; 'I' for Inactive)
REMARK    1  A    between atoms: C_2  and  C_3
REMARK    2  A    between atoms: C_2  and  C_20
REMARK    3  A    between atoms: C_3  and  C_4
REMARK    4  A    between atoms: C_4  and  C_16
REMARK    5  A    between atoms: N_5  and  N_6
REMARK    6  A    between atoms: C_7  and  C_9
REMARK                            x       y       z     vdW  Elec       q    Type
REMARK                         _______ _______ _______ _____ _____    ______ ____
ROOT
ATOM      1  C   UNL     1       6.486   6.342  17.905  0.00  0.00    +0.000 C 
ATOM      2  N   UNL     1       6.199   5.992  19.133  0.00  0.00    +0.000 NA
ENDROOT
BRANCH   2   3
ATOM      3  N   UNL     1       5.211   5.086  19.346  0.00  0.00    +0.000 N 
ATOM      4  C   UNL     1       3.886   5.484  19.437  0.00  0.00    +0.000 C 
ATOM      5  O   UNL     1       3.502   6.648  19.517  0.00  0.00    +0.000 OA
ATOM      6  H   UNL     1       5.404   4.114  19.121  0.00  0.00    +0.000 HD
BRANCH   4   7
ATOM      7  C   UNL     1       2.891   4.369  19.552  0.00  0.00    +0.000 A 
ATOM      8  C   UNL     1       2.252   4.239  20.801  0.00  0.00    +0.000 A 
ATOM      9  C   UNL     1       1.357   3.195  21.045  0.00  0.00    +0.000 A 
ATOM     10  C   UNL     1       1.075   2.274  20.042  0.00  0.00    +0.000 A 
ATOM     11  C   UNL     1       1.683   2.401  18.793  0.00  0.00    +0.000 A 
ATOM     12  C   UNL     1       2.586   3.442  18.542  0.00  0.00    +0.000 A 
ATOM     13 BR   UNL     1       3.298   3.493  16.777  0.00  0.00    +0.000 Br
ENDBRANCH   4   7
ENDBRANCH   2   3
BRANCH   1  14
ATOM     14  C   UNL     1       7.540   7.427  17.682  0.00  0.00    +0.000 C 
ATOM     15  F   UNL     1       8.531   7.383  18.618  0.00  0.00    +0.000 F 
ATOM     16  F   UNL     1       8.141   7.348  16.467  0.00  0.00    +0.000 F 
ATOM     17  F   UNL     1       7.009   8.678  17.774  0.00  0.00    +0.000 F 
ENDBRANCH   1  14
BRANCH   1  18
ATOM     18  C   UNL     1       5.923   5.687  16.645  0.00  0.00    +0.000 C 
BRANCH  18  20
ATOM     19  O   UNL     1       7.816   4.263  16.642  0.00  0.00    +0.000 OA
ATOM     20  C   UNL     1       6.907   4.755  15.965  0.00  0.00    +0.000 C 
BRANCH  20  21
ATOM     21  C   UNL     1       6.790   4.467  14.537  0.00  0.00    +0.000 A 
ATOM     22  C   UNL     1       5.849   3.630  13.960  0.00  0.00    +0.000 A 
ATOM     23  C   UNL     1       5.996   3.503  12.549  0.00  0.00    +0.000 A 
ATOM     24  C   UNL     1       7.045   4.261  12.080  0.00  0.00    +0.000 A 
ATOM     25  S   UNL     1       7.827   5.119  13.343  0.00  0.00    +0.000 S 
ENDBRANCH  20  21
ENDBRANCH  18  20
ENDBRANCH   1  18
TORSDOF 6
ENDMDL
MODEL 4
REMARK VINA RESULT:      -7.4      0.990      1.017
REMARK  Name = 
REMARK  6 active torsions:
REMARK  status: ('A' for Active; 'I' for Inactive)
REMARK    1  A    between atoms: C_2  and  C_3
REMARK    2  A    between atoms: C_2  and  C_20
REMARK    3  A    between atoms: C_3  and  C_4
REMARK    4  A    between atoms: C_4  and  C_16
REMARK    5  A    between atoms: N_5  and  N_6
REMARK    6  A    between atoms: C_7  and  C_9
REMARK                            x       y       z     vdW  Elec       q    Type
REMARK                         _______ _______ _______ _____ _____    ______ ____
ROOT
ATOM      1  C   UNL     1       6.755   6.531  17.794  0.00  0.00    +0.000 C 
ATOM      2  N   UNL     1       6.498   5.908  18.916  0.00  0.00    +0.000 NA
ENDROOT
BRANCH   2   3
ATOM      3  N   UNL     1       5.598   4.891  18.915  0.00  0.00    +0.000 N 
ATOM      4  C   UNL     1       4.239   5.142  19.024  0.00  0.00    +0.000 C 
ATOM      5  O   UNL     1       3.741   6.230  19.303  0.00  0.00    +0.000 OA
ATOM      6  H   UNL     1       5.890   4.002  18.521  0.00  0.00    +0.000 HD
BRANCH   4   7
ATOM      7  C   UNL     1       3.354   3.939  18.886  0.00  0.00    +0.000 A 
ATOM      8  C   UNL     1       3.392   3.287  17.638  0.00  0.00    +0.000 A 
ATOM      9  C   UNL     1       2.559   2.197  17.372  0.00  0.00    +0.000 A 
ATOM     10  C   UNL     1       1.689   1.734  18.352  0.00  0.00    +0.000 A 
ATOM     11  C   UNL     1       1.655   2.355  19.600  0.00  0.00    +0.000 A 
ATOM     12  C   UNL     1       2.483   3.452  19.872  0.00  0.00    +0.000 A 
ATOM     13 BR   UNL     1       2.340   4.160  21.634  0.00  0.00    +0.000 Br
ENDBRANCH   4   7
ENDBRANCH   2   3
BRANCH   1  14
ATOM     14  C   UNL     1       7.703   7.729  17.824  0.00  0.00    +0.000 C 
ATOM     15  F   UNL     1       8.435   7.836  16.678  0.00  0.00    +0.000 F 
ATOM     16  F   UNL     1       7.063   8.915  17.994  0.00  0.00    +0.000 F 
ATOM     17  F   UNL     1       8.616   7.630  18.830  0.00  0.00    +0.000 F 
ENDBRANCH   1  14
BRANCH   1  18
ATOM     18  C   UNL     1       6.259   6.104  16.414  0.00  0.00    +0.000 C 
BRANCH  18  20
ATOM     19  O   UNL     1       7.913   4.410  16.521  0.00  0.00    +0.000 OA
ATOM     20  C   UNL     1       7.063   4.966  15.816  0.00  0.00    +0.000 C 
BRANCH  20  21
ATOM     21  C   UNL     1       6.849   4.553  14.430  0.00  0.00    +0.000 A 
ATOM     22  C   UNL     1       5.839   3.715  13.987  0.00  0.00    +0.000 A 
ATOM     23  C   UNL     1       5.896   3.453  12.589  0.00  0.00    +0.000 A 
ATOM     24  C   UNL     1       6.948   4.111  11.993  0.00  0.00    +0.000 A 
ATOM     25  S   UNL     1       7.841   5.041  13.124  0.00  0.00    +0.000 S 
ENDBRANCH  20  21
ENDBRANCH  18  20
ENDBRANCH   1  18
TORSDOF 6
ENDMDL
MODEL 5
REMARK VINA RESULT:      -7.4      0.655      1.147
REMARK  Name = 
REMARK  6 active torsions:
REMARK  status: ('A' for Active; 'I' for Inactive)
REMARK    1  A    between atoms: C_2  and  C_3
REMARK    2  A    between atoms: C_2  and  C_20
REMARK    3  A    between atoms: C_3  and  C_4
REMARK    4  A    between atoms: C_4  and  C_16
REMARK    5  A    between atoms: N_5  and  N_6
REMARK    6  A    between atoms: C_7  and  C_9
REMARK                            x       y       z     vdW  Elec       q    Type
REMARK                         _______ _______ _______ _____ _____    ______ ____
ROOT
ATOM      1  C   UNL     1       6.393   6.745  17.565  0.00  0.00    +0.000 C 
ATOM      2  N   UNL     1       5.795   6.365  18.665  0.00  0.00    +0.000 NA
ENDROOT
BRANCH   2   3
ATOM      3  N   UNL     1       4.670   5.609  18.577  0.00  0.00    +0.000 N 
ATOM      4  C   UNL     1       4.626   4.331  19.113  0.00  0.00    +0.000 C 
ATOM      5  O   UNL     1       5.598   3.708  19.536  0.00  0.00    +0.000 OA
ATOM      6  H   UNL     1       3.790   6.088  18.411  0.00  0.00    +0.000 HD
BRANCH   4   7
ATOM      7  C   UNL     1       3.288   3.659  19.052  0.00  0.00    +0.000 A 
ATOM      8  C   UNL     1       3.237   2.452  18.326  0.00  0.00    +0.000 A 
ATOM      9  C   UNL     1       2.030   1.773  18.144  0.00  0.00    +0.000 A 
ATOM     10  C   UNL     1       0.859   2.281  18.696  0.00  0.00    +0.000 A 
ATOM     11  C   UNL     1       0.896   3.463  19.435  0.00  0.00    +0.000 A 
ATOM     12  C   UNL     1       2.102   4.152  19.618  0.00  0.00    +0.000 A 
ATOM     13 BR   UNL     1       1.985   5.727  20.682  0.00  0.00    +0.000 Br
ENDBRANCH   4   7
ENDBRANCH   2   3
BRANCH   1  14
ATOM     14  C   UNL     1       7.607   7.667  17.674  0.00  0.00    +0.000 C 
ATOM     15  F   UNL     1       7.248   8.969  17.870  0.00  0.00    +0.000 F 
ATOM     16  F   UNL     1       8.445   7.333  18.689  0.00  0.00    +0.000 F 
ATOM     17  F   UNL     1       8.352   7.664  16.534  0.00  0.00    +0.000 F 
ENDBRANCH   1  14
BRANCH   1  18
ATOM     18  C   UNL     1       6.041   6.266  16.158  0.00  0.00    +0.000 C 
BRANCH  18  20
ATOM     19  O   UNL     1       7.565   4.492  16.540  0.00  0.00    +0.000 OA
ATOM     20  C   UNL     1       6.875   5.084  15.703  0.00  0.00    +0.000 C 
BRANCH  20  21
ATOM     21  C   UNL     1       6.874   4.670  14.300  0.00  0.00    +0.000 A 
ATOM     22  C   UNL     1       7.705   5.173  13.313  0.00  0.00    +0.000 A 
ATOM     23  C   UNL     1       7.456   4.615  12.027  0.00  0.00    +0.000 A 
ATOM     24  C   UNL     1       6.441   3.685  12.067  0.00  0.00    +0.000 A 
ATOM     25  S   UNL     1       5.815   3.493  13.653  0.00  0.00    +0.000 S 
ENDBRANCH  20  21
ENDBRANCH  18  20
ENDBRANCH   1  18
TORSDOF 6
ENDMDL
MODEL 6
REMARK VINA RESULT:      -7.4      4.491      7.118
REMARK  Name = 
REMARK  6 active torsions:
REMARK  status: ('A' for Active; 'I' for Inactive)
REMARK    1  A    between atoms: C_2  and  C_3
REMARK    2  A    between atoms: C_2  and  C_20
REMARK    3  A    between atoms: C_3  and  C_4
REMARK    4  A    between atoms: C_4  and  C_16
REMARK    5  A    between atoms: N_5  and  N_6
REMARK    6  A    between atoms: C_7  and  C_9
REMARK                            x       y       z     vdW  Elec       q    Type
REMARK                         _______ _______ _______ _____ _____    ______ ____
ROOT
ATOM      1  C   UNL     1       2.121   3.778  18.851  0.00  0.00    +0.000 C 
ATOM      2  N   UNL     1       3.128   3.084  18.386  0.00  0.00    +0.000 NA
ENDROOT
BRANCH   2   3
ATOM      3  N   UNL     1       3.851   3.584  17.351  0.00  0.00    +0.000 N 
ATOM      4  C   UNL     1       5.193   3.895  17.503  0.00  0.00    +0.000 C 
ATOM      5  O   UNL     1       5.794   3.928  18.574  0.00  0.00    +0.000 OA
ATOM      6  H   UNL     1       3.500   3.427  16.410  0.00  0.00    +0.000 HD
BRANCH   4   7
ATOM      7  C   UNL     1       5.896   4.321  16.249  0.00  0.00    +0.000 A 
ATOM      8  C   UNL     1       5.618   3.558  15.097  0.00  0.00    +0.000 A 
ATOM      9  C   UNL     1       6.267   3.820  13.888  0.00  0.00    +0.000 A 
ATOM     10  C   UNL     1       7.192   4.855  13.808  0.00  0.00    +0.000 A 
ATOM     11  C   UNL     1       7.463   5.632  14.933  0.00  0.00    +0.000 A 
ATOM     12  C   UNL     1       6.819   5.373  16.150  0.00  0.00    +0.000 A 
ATOM     13 BR   UNL     1       7.275   6.549  17.577  0.00  0.00    +0.000 Br
ENDBRANCH   4   7
ENDBRANCH   2   3
BRANCH   1  14
ATOM     14  C   UNL     1       1.262   3.167  19.958  0.00  0.00    +0.000 C 
ATOM     15  F   UNL     1       0.141   2.565  19.466  0.00  0.00    +0.000 F 
ATOM     16  F   UNL     1       1.919   2.235  20.694  0.00  0.00    +0.000 F 
ATOM     17  F   UNL     1       0.813   4.110  20.832  0.00  0.00    +0.000 F 
ENDBRANCH   1  14
BRANCH   1  18
ATOM     18  C   UNL     1       1.775   5.210  18.448  0.00  0.00    +0.000 C 
BRANCH  18  20
ATOM     19  O   UNL     1       3.621   5.937  19.743  0.00  0.00    +0.000 OA
ATOM     20  C   UNL     1       2.539   6.255  19.239  0.00  0.00    +0.000 C 
BRANCH  20  21
ATOM     21  C   UNL     1       1.993   7.600  19.413  0.00  0.00    +0.000 A 
ATOM     22  C   UNL     1       1.473   8.111  20.591  0.00  0.00    +0.000 A 
ATOM     23  C   UNL     1       0.975   9.438  20.459  0.00  0.00    +0.000 A 
ATOM     24  C   UNL     1       1.138   9.915  19.178  0.00  0.00    +0.000 A 
ATOM     25  S   UNL     1       1.897   8.761  18.161  0.00  0.00    +0.000 S 
ENDBRANCH  20  21
ENDBRANCH  18  20
ENDBRANCH   1  18
TORSDOF 6
ENDMDL
MODEL 7
REMARK VINA RESULT:      -7.4      4.654      7.273
REMARK  Name = 
REMARK  6 active torsions:
REMARK  status: ('A' for Active; 'I' for Inactive)
REMARK    1  A    between atoms: C_2  and  C_3
REMARK    2  A    between atoms: C_2  and  C_20
REMARK    3  A    between atoms: C_3  and  C_4
REMARK    4  A    between atoms: C_4  and  C_16
REMARK    5  A    between atoms: N_5  and  N_6
REMARK    6  A    between atoms: C_7  and  C_9
REMARK                            x       y       z     vdW  Elec       q    Type
REMARK                         _______ _______ _______ _____ _____    ______ ____
ROOT
ATOM      1  C   UNL     1       2.271   4.530  19.524  0.00  0.00    +0.000 C 
ATOM      2  N   UNL     1       2.541   3.750  18.508  0.00  0.00    +0.000 NA
ENDROOT
BRANCH   2   3
ATOM      3  N   UNL     1       3.433   4.169  17.574  0.00  0.00    +0.000 N 
ATOM      4  C   UNL     1       4.783   3.883  17.700  0.00  0.00    +0.000 C 
ATOM      5  O   UNL     1       5.315   3.411  18.702  0.00  0.00    +0.000 OA
ATOM      6  H   UNL     1       3.078   4.401  16.651  0.00  0.00    +0.000 HD
BRANCH   4   7
ATOM      7  C   UNL     1       5.635   4.298  16.538  0.00  0.00    +0.000 A 
ATOM      8  C   UNL     1       5.242   3.804  15.279  0.00  0.00    +0.000 A 
ATOM      9  C   UNL     1       6.000   4.068  14.135  0.00  0.00    +0.000 A 
ATOM     10  C   UNL     1       7.152   4.842  14.230  0.00  0.00    +0.000 A 
ATOM     11  C   UNL     1       7.542   5.356  15.466  0.00  0.00    +0.000 A 
ATOM     12  C   UNL     1       6.791   5.091  16.618  0.00  0.00    +0.000 A 
ATOM     13 BR   UNL     1       7.441   5.897  18.216  0.00  0.00    +0.000 Br
ENDBRANCH   4   7
ENDBRANCH   2   3
BRANCH   1  14
ATOM     14  C   UNL     1       1.201   4.088  20.522  0.00  0.00    +0.000 C 
ATOM     15  F   UNL     1       0.528   2.980  20.097  0.00  0.00    +0.000 F 
ATOM     16  F   UNL     1       1.701   3.797  21.750  0.00  0.00    +0.000 F 
ATOM     17  F   UNL     1       0.249   5.043  20.703  0.00  0.00    +0.000 F 
ENDBRANCH   1  14
BRANCH   1  18
ATOM     18  C   UNL     1       3.009   5.824  19.864  0.00  0.00    +0.000 C 
BRANCH  18  20
ATOM     19  O   UNL     1       2.727   7.114  17.896  0.00  0.00    +0.000 OA
ATOM     20  C   UNL     1       2.484   7.028  19.105  0.00  0.00    +0.000 C 
BRANCH  20  21
ATOM     21  C   UNL     1       1.727   8.069  19.797  0.00  0.00    +0.000 A 
ATOM     22  C   UNL     1       1.361   8.045  21.133  0.00  0.00    +0.000 A 
ATOM     23  C   UNL     1       0.591   9.176  21.528  0.00  0.00    +0.000 A 
ATOM     24  C   UNL     1       0.397  10.047  20.479  0.00  0.00    +0.000 A 
ATOM     25  S   UNL     1       1.153   9.493  19.042  0.00  0.00    +0.000 S 
ENDBRANCH  20  21
ENDBRANCH  18  20
ENDBRANCH   1  18
TORSDOF 6
ENDMDL
MODEL 8
REMARK VINA RESULT:      -7.4      4.639      7.391
REMARK  Name = 
REMARK  6 active torsions:
REMARK  status: ('A' for Active; 'I' for Inactive)
REMARK    1  A    between atoms: C_2  and  C_3
REMARK    2  A    between atoms: C_2  and  C_20
REMARK    3  A    between atoms: C_3  and  C_4
REMARK    4  A    between atoms: C_4  and  C_16
REMARK    5  A    between atoms: N_5  and  N_6
REMARK    6  A    between atoms: C_7  and  C_9
REMARK                            x       y       z     vdW  Elec       q    Type
REMARK                         _______ _______ _______ _____ _____    ______ ____
ROOT
ATOM      1  C   UNL     1       2.638   3.709  20.201  0.00  0.00    +0.000 C 
ATOM      2  N   UNL     1       3.792   3.281  19.757  0.00  0.00    +0.000 NA
ENDROOT
BRANCH   2   3
ATOM      3  N   UNL     1       4.790   4.177  19.545  0.00  0.00    +0.000 N 
ATOM      4  C   UNL     1       5.272   4.418  18.268  0.00  0.00    +0.000 C 
ATOM      5  O   UNL     1       4.996   3.754  17.271  0.00  0.00    +0.000 OA
ATOM      6  H   UNL     1       4.952   4.882  20.258  0.00  0.00    +0.000 HD
BRANCH   4   7
ATOM      7  C   UNL     1       6.286   5.517  18.164  0.00  0.00    +0.000 A 
ATOM      8  C   UNL     1       7.293   5.521  19.150  0.00  0.00    +0.000 A 
ATOM      9  C   UNL     1       8.251   6.537  19.194  0.00  0.00    +0.000 A 
ATOM     10  C   UNL     1       8.227   7.555  18.247  0.00  0.00    +0.000 A 
ATOM     11  C   UNL     1       7.250   7.554  17.252  0.00  0.00    +0.000 A 
ATOM     12  C   UNL     1       6.282   6.542  17.205  0.00  0.00    +0.000 A 
ATOM     13 BR   UNL     1       5.044   6.668  15.763  0.00  0.00    +0.000 Br
ENDBRANCH   4   7
ENDBRANCH   2   3
BRANCH   1  14
ATOM     14  C   UNL     1       1.496   2.704  20.353  0.00  0.00    +0.000 C 
ATOM     15  F   UNL     1       1.346   2.287  21.643  0.00  0.00    +0.000 F 
ATOM     16  F   UNL     1       0.294   3.195  19.956  0.00  0.00    +0.000 F 
ATOM     17  F   UNL     1       1.715   1.572  19.629  0.00  0.00    +0.000 F 
ENDBRANCH   1  14
BRANCH   1  18
ATOM     18  C   UNL     1       2.348   5.129  20.681  0.00  0.00    +0.000 C 
BRANCH  18  20
ATOM     19  O   UNL     1       2.262   5.710  18.386  0.00  0.00    +0.000 OA
ATOM     20  C   UNL     1       2.107   6.106  19.546  0.00  0.00    +0.000 C 
BRANCH  20  21
ATOM     21  C   UNL     1       1.719   7.488  19.826  0.00  0.00    +0.000 A 
ATOM     22  C   UNL     1       1.271   7.966  21.046  0.00  0.00    +0.000 A 
ATOM     23  C   UNL     1       0.926   9.348  21.017  0.00  0.00    +0.000 A 
ATOM     24  C   UNL     1       1.133   9.895  19.771  0.00  0.00    +0.000 A 
ATOM     25  S   UNL     1       1.747   8.741  18.661  0.00  0.00    +0.000 S 
ENDBRANCH  20  21
ENDBRANCH  18  20
ENDBRANCH   1  18
TORSDOF 6
ENDMDL
MODEL 9
REMARK VINA RESULT:      -7.4      4.715      7.114
REMARK  Name = 
REMARK  6 active torsions:
REMARK  status: ('A' for Active; 'I' for Inactive)
REMARK    1  A    between atoms: C_2  and  C_3
REMARK    2  A    between atoms: C_2  and  C_20
REMARK    3  A    between atoms: C_3  and  C_4
REMARK    4  A    between atoms: C_4  and  C_16
REMARK    5  A    between atoms: N_5  and  N_6
REMARK    6  A    between atoms: C_7  and  C_9
REMARK                            x       y       z     vdW  Elec       q    Type
REMARK                         _______ _______ _______ _____ _____    ______ ____
ROOT
ATOM      1  C   UNL     1       2.609   3.783  20.043  0.00  0.00    +0.000 C 
ATOM      2  N   UNL     1       3.829   3.359  19.831  0.00  0.00    +0.000 NA
ENDROOT
BRANCH   2   3
ATOM      3  N   UNL     1       4.811   4.266  19.597  0.00  0.00    +0.000 N 
ATOM      4  C   UNL     1       5.334   4.438  18.325  0.00  0.00    +0.000 C 
ATOM      5  O   UNL     1       5.112   3.704  17.364  0.00  0.00    +0.000 OA
ATOM      6  H   UNL     1       4.929   5.020  20.268  0.00  0.00    +0.000 HD
BRANCH   4   7
ATOM      7  C   UNL     1       6.324   5.555  18.186  0.00  0.00    +0.000 A 
ATOM      8  C   UNL     1       7.354   5.589  19.147  0.00  0.00    +0.000 A 
ATOM      9  C   UNL     1       8.293   6.623  19.158  0.00  0.00    +0.000 A 
ATOM     10  C   UNL     1       8.226   7.630  18.201  0.00  0.00    +0.000 A 
ATOM     11  C   UNL     1       7.226   7.600  17.231  0.00  0.00    +0.000 A 
ATOM     12  C   UNL     1       6.277   6.569  17.216  0.00  0.00    +0.000 A 
ATOM     13 BR   UNL     1       5.003   6.657  15.804  0.00  0.00    +0.000 Br
ENDBRANCH   4   7
ENDBRANCH   2   3
BRANCH   1  14
ATOM     14  C   UNL     1       1.496   2.750  20.219  0.00  0.00    +0.000 C 
ATOM     15  F   UNL     1       1.779   1.576  19.585  0.00  0.00    +0.000 F 
ATOM     16  F   UNL     1       1.248   2.446  21.519  0.00  0.00    +0.000 F 
ATOM     17  F   UNL     1       0.318   3.176  19.686  0.00  0.00    +0.000 F 
ENDBRANCH   1  14
BRANCH   1  18
ATOM     18  C   UNL     1       2.202   5.244  20.229  0.00  0.00    +0.000 C 
BRANCH  18  20
ATOM     19  O   UNL     1       2.249   5.386  17.864  0.00  0.00    +0.000 OA
ATOM     20  C   UNL     1       2.110   6.009  18.923  0.00  0.00    +0.000 C 
BRANCH  20  21
ATOM     21  C   UNL     1       1.881   7.453  18.923  0.00  0.00    +0.000 A 
ATOM     22  C   UNL     1       2.080   8.299  17.844  0.00  0.00    +0.000 A 
ATOM     23  C   UNL     1       1.814   9.665  18.143  0.00  0.00    +0.000 A 
ATOM     24  C   UNL     1       1.406   9.828  19.448  0.00  0.00    +0.000 A 
ATOM     25  S   UNL     1       1.338   8.333  20.286  0.00  0.00    +0.000 S 
ENDBRANCH  20  21
ENDBRANCH  18  20
ENDBRANCH   1  18
TORSDOF 6
ENDMDL
