MODEL 1
REMARK VINA RESULT:      -7.4      0.000      0.000
REMARK  Name = 
REMARK  12 active torsions:
REMARK  status: ('A' for Active; 'I' for Inactive)
REMARK    1  A    between atoms: C_1  and  C_2
REMARK    2  A    between atoms: C_5  and  C_6
REMARK    3  A    between atoms: C_6  and  C_7
REMARK    4  A    between atoms: C_6  and  C_8
REMARK    5  A    between atoms: C_6  and  N_9
REMARK    6  A    between atoms: N_12  and  C_13
REMARK    7  A    between atoms: N_17  and  C_18
REMARK    8  A    between atoms: C_18  and  C_19
REMARK    9  A    between atoms: C_18  and  C_20
REMARK   10  A    between atoms: C_20  and  C_21
REMARK   11  A    between atoms: C_21  and  C_22
REMARK   12  A    between atoms: C_21  and  C_23
REMARK                            x       y       z     vdW  Elec       q    Type
REMARK                         _______ _______ _______ _____ _____    ______ ____
ROOT
ATOM      1  N   UNL     1       5.018   5.801  16.795  0.00  0.00    +0.000 N 
ATOM      2  C   UNL     1       4.491   6.070  18.020  0.00  0.00    +0.000 C 
ATOM      3  O   UNL     1       5.089   6.071  19.078  0.00  0.00    +0.000 OA
ATOM      4  N   UNL     1       3.122   6.436  17.965  0.00  0.00    +0.000 N 
ATOM      5  H   UNL     1       4.452   5.751  15.959  0.00  0.00    +0.000 HD
ATOM      6  H   UNL     1       2.676   6.661  17.091  0.00  0.00    +0.000 HD
ENDROOT
BRANCH   4   7
ATOM      7  C   UNL     1       2.451   6.663  19.164  0.00  0.00    +0.000 A 
ATOM      8  C   UNL     1       2.004   7.886  19.617  0.00  0.00    +0.000 A 
ATOM      9  C   UNL     1       1.403   7.621  20.859  0.00  0.00    +0.000 A 
ATOM     10  N   UNL     1       1.450   6.328  21.177  0.00  0.00    +0.000 NA
ATOM     11  N   UNL     1       2.081   5.754  20.128  0.00  0.00    +0.000 N 
BRANCH  11  12
ATOM     12  C   UNL     1       2.262   4.306  20.118  0.00  0.00    +0.000 C 
ATOM     13  C   UNL     1       2.107   3.769  21.547  0.00  0.00    +0.000 C 
BRANCH  12  14
ATOM     14  C   UNL     1       1.283   3.561  19.181  0.00  0.00    +0.000 C 
BRANCH  14  15
ATOM     15  C   UNL     1       1.887   2.560  18.173  0.00  0.00    +0.000 C 
ATOM     16  C   UNL     1       2.486   3.243  16.943  0.00  0.00    +0.000 C 
ATOM     17  C   UNL     1       2.977   1.739  18.878  0.00  0.00    +0.000 C 
ENDBRANCH  14  15
ENDBRANCH  12  14
ENDBRANCH  11  12
ENDBRANCH   4   7
BRANCH   1  18
ATOM     18  C   UNL     1       6.459   5.496  16.645  0.00  0.00    +0.000 C 
ATOM     19  C   UNL     1       6.881   4.358  17.597  0.00  0.00    +0.000 C 
ATOM     20  C   UNL     1       7.300   6.764  16.889  0.00  0.00    +0.000 C 
BRANCH  18  25
ATOM     21  C   UNL     1       6.456   3.418  12.111  0.00  0.00    +0.000 C 
ATOM     22  C   UNL     1       6.784   4.224  13.303  0.00  0.00    +0.000 A 
ATOM     23  N   UNL     1       7.793   5.102  13.300  0.00  0.00    +0.000 NA
ATOM     24  O   UNL     1       7.753   5.642  14.577  0.00  0.00    +0.000 OA
ATOM     25  C   UNL     1       6.712   5.039  15.226  0.00  0.00    +0.000 A 
ATOM     26  N   UNL     1       6.078   4.150  14.486  0.00  0.00    +0.000 NA
ENDBRANCH  18  25
ENDBRANCH   1  18
TORSDOF 6
ENDMDL
MODEL 2
REMARK VINA RESULT:      -7.0      3.284      7.733
REMARK  Name = 
REMARK  12 active torsions:
REMARK  status: ('A' for Active; 'I' for Inactive)
REMARK    1  A    between atoms: C_1  and  C_2
REMARK    2  A    between atoms: C_5  and  C_6
REMARK    3  A    between atoms: C_6  and  C_7
REMARK    4  A    between atoms: C_6  and  C_8
REMARK    5  A    between atoms: C_6  and  N_9
REMARK    6  A    between atoms: N_12  and  C_13
REMARK    7  A    between atoms: N_17  and  C_18
REMARK    8  A    between atoms: C_18  and  C_19
REMARK    9  A    between atoms: C_18  and  C_20
REMARK   10  A    between atoms: C_20  and  C_21
REMARK   11  A    between atoms: C_21  and  C_22
REMARK   12  A    between atoms: C_21  and  C_23
REMARK                            x       y       z     vdW  Elec       q    Type
REMARK                         _______ _______ _______ _____ _____    ______ ____
ROOT
ATOM      1  N   UNL     1       1.405   9.043  19.459  0.00  0.00    +0.000 N 
ATOM      2  C   UNL     1       2.109   8.440  18.463  0.00  0.00    +0.000 C 
ATOM      3  O   UNL     1       2.172   8.800  17.305  0.00  0.00    +0.000 OA
ATOM      4  N   UNL     1       2.862   7.326  18.915  0.00  0.00    +0.000 N 
ATOM      5  H   UNL     1       1.339   8.654  20.390  0.00  0.00    +0.000 HD
ATOM      6  H   UNL     1       3.002   7.153  19.897  0.00  0.00    +0.000 HD
ENDROOT
BRANCH   4   7
ATOM      7  C   UNL     1       3.566   6.579  17.972  0.00  0.00    +0.000 A 
ATOM      8  C   UNL     1       4.540   7.064  17.126  0.00  0.00    +0.000 A 
ATOM      9  C   UNL     1       4.948   5.957  16.364  0.00  0.00    +0.000 A 
ATOM     10  N   UNL     1       4.296   4.845  16.699  0.00  0.00    +0.000 NA
ATOM     11  N   UNL     1       3.465   5.236  17.690  0.00  0.00    +0.000 N 
BRANCH  11  12
ATOM     12  C   UNL     1       2.620   4.240  18.340  0.00  0.00    +0.000 C 
ATOM     13  C   UNL     1       2.457   3.032  17.408  0.00  0.00    +0.000 C 
BRANCH  12  14
ATOM     14  C   UNL     1       3.160   3.762  19.708  0.00  0.00    +0.000 C 
BRANCH  14  15
ATOM     15  C   UNL     1       2.261   3.985  20.944  0.00  0.00    +0.000 C 
ATOM     16  C   UNL     1       1.265   5.130  20.756  0.00  0.00    +0.000 C 
ATOM     17  C   UNL     1       1.494   2.689  21.243  0.00  0.00    +0.000 C 
ENDBRANCH  14  15
ENDBRANCH  12  14
ENDBRANCH  11  12
ENDBRANCH   4   7
BRANCH   1  18
ATOM     18  C   UNL     1       0.637  10.281  19.196  0.00  0.00    +0.000 C 
ATOM     19  C   UNL     1      -0.500  10.016  18.186  0.00  0.00    +0.000 C 
ATOM     20  C   UNL     1       1.577  11.394  18.694  0.00  0.00    +0.000 C 
BRANCH  18  25
ATOM     21  C   UNL     1      -2.235  12.012  22.887  0.00  0.00    +0.000 C 
ATOM     22  C   UNL     1      -1.120  11.452  22.100  0.00  0.00    +0.000 A 
ATOM     23  N   UNL     1       0.020  11.059  22.679  0.00  0.00    +0.000 NA
ATOM     24  O   UNL     1       0.779  10.596  21.614  0.00  0.00    +0.000 OA
ATOM     25  C   UNL     1       0.014  10.749  20.491  0.00  0.00    +0.000 A 
ATOM     26  N   UNL     1      -1.170  11.276  20.732  0.00  0.00    +0.000 NA
ENDBRANCH  18  25
ENDBRANCH   1  18
TORSDOF 6
ENDMDL
MODEL 3
REMARK VINA RESULT:      -7.0      1.733      3.342
REMARK  Name = 
REMARK  12 active torsions:
REMARK  status: ('A' for Active; 'I' for Inactive)
REMARK    1  A    between atoms: C_1  and  C_2
REMARK    2  A    between atoms: C_5  and  C_6
REMARK    3  A    between atoms: C_6  and  C_7
REMARK    4  A    between atoms: C_6  and  C_8
REMARK    5  A    between atoms: C_6  and  N_9
REMARK    6  A    between atoms: N_12  and  C_13
REMARK    7  A    between atoms: N_17  and  C_18
REMARK    8  A    between atoms: C_18  and  C_19
REMARK    9  A    between atoms: C_18  and  C_20
REMARK   10  A    between atoms: C_20  and  C_21
REMARK   11  A    between atoms: C_21  and  C_22
REMARK   12  A    between atoms: C_21  and  C_23
REMARK                            x       y       z     vdW  Elec       q    Type
REMARK                         _______ _______ _______ _____ _____    ______ ____
ROOT
ATOM      1  N   UNL     1       5.538   3.984  16.871  0.00  0.00    +0.000 N 
ATOM      2  C   UNL     1       5.138   3.884  18.168  0.00  0.00    +0.000 C 
ATOM      3  O   UNL     1       5.306   4.713  19.040  0.00  0.00    +0.000 OA
ATOM      4  N   UNL     1       4.410   2.697  18.432  0.00  0.00    +0.000 N 
ATOM      5  H   UNL     1       5.427   3.228  16.209  0.00  0.00    +0.000 HD
ATOM      6  H   UNL     1       4.067   2.116  17.685  0.00  0.00    +0.000 HD
ENDROOT
BRANCH   4   7
ATOM      7  C   UNL     1       4.011   2.445  19.743  0.00  0.00    +0.000 A 
ATOM      8  C   UNL     1       4.628   1.577  20.619  0.00  0.00    +0.000 A 
ATOM      9  C   UNL     1       3.874   1.651  21.802  0.00  0.00    +0.000 A 
ATOM     10  N   UNL     1       2.858   2.506  21.700  0.00  0.00    +0.000 NA
ATOM     11  N   UNL     1       2.961   2.992  20.443  0.00  0.00    +0.000 N 
BRANCH  11  12
ATOM     12  C   UNL     1       2.018   4.014  20.000  0.00  0.00    +0.000 C 
ATOM     13  C   UNL     1       0.589   3.472  20.134  0.00  0.00    +0.000 C 
BRANCH  12  14
ATOM     14  C   UNL     1       2.135   5.348  20.773  0.00  0.00    +0.000 C 
BRANCH  14  15
ATOM     15  C   UNL     1       1.624   6.624  20.070  0.00  0.00    +0.000 C 
ATOM     16  C   UNL     1       1.508   7.819  21.018  0.00  0.00    +0.000 C 
ATOM     17  C   UNL     1       2.580   6.978  18.922  0.00  0.00    +0.000 C 
ENDBRANCH  14  15
ENDBRANCH  12  14
ENDBRANCH  11  12
ENDBRANCH   4   7
BRANCH   1  18
ATOM     18  C   UNL     1       6.227   5.201  16.386  0.00  0.00    +0.000 C 
ATOM     19  C   UNL     1       7.449   5.528  17.270  0.00  0.00    +0.000 C 
ATOM     20  C   UNL     1       5.243   6.387  16.339  0.00  0.00    +0.000 C 
BRANCH  18  25
ATOM     21  C   UNL     1       7.028   3.772  11.676  0.00  0.00    +0.000 C 
ATOM     22  C   UNL     1       7.128   4.413  13.002  0.00  0.00    +0.000 A 
ATOM     23  N   UNL     1       8.084   5.306  13.278  0.00  0.00    +0.000 NA
ATOM     24  O   UNL     1       7.820   5.663  14.593  0.00  0.00    +0.000 OA
ATOM     25  C   UNL     1       6.719   4.951  14.979  0.00  0.00    +0.000 A 
ATOM     26  N   UNL     1       6.250   4.159  14.035  0.00  0.00    +0.000 NA
ENDBRANCH  18  25
ENDBRANCH   1  18
TORSDOF 6
ENDMDL
MODEL 4
REMARK VINA RESULT:      -6.8      3.167      5.199
REMARK  Name = 
REMARK  12 active torsions:
REMARK  status: ('A' for Active; 'I' for Inactive)
REMARK    1  A    between atoms: C_1  and  C_2
REMARK    2  A    between atoms: C_5  and  C_6
REMARK    3  A    between atoms: C_6  and  C_7
REMARK    4  A    between atoms: C_6  and  C_8
REMARK    5  A    between atoms: C_6  and  N_9
REMARK    6  A    between atoms: N_12  and  C_13
REMARK    7  A    between atoms: N_17  and  C_18
REMARK    8  A    between atoms: C_18  and  C_19
REMARK    9  A    between atoms: C_18  and  C_20
REMARK   10  A    between atoms: C_20  and  C_21
REMARK   11  A    between atoms: C_21  and  C_22
REMARK   12  A    between atoms: C_21  and  C_23
REMARK                            x       y       z     vdW  Elec       q    Type
REMARK                         _______ _______ _______ _____ _____    ______ ____
ROOT
ATOM      1  N   UNL     1       2.916   6.842  18.287  0.00  0.00    +0.000 N 
ATOM      2  C   UNL     1       2.195   7.210  19.380  0.00  0.00    +0.000 C 
ATOM      3  O   UNL     1       1.886   6.497  20.314  0.00  0.00    +0.000 OA
ATOM      4  N   UNL     1       1.862   8.589  19.384  0.00  0.00    +0.000 N 
ATOM      5  H   UNL     1       3.082   7.467  17.510  0.00  0.00    +0.000 HD
ATOM      6  H   UNL     1       2.297   9.234  18.745  0.00  0.00    +0.000 HD
ENDROOT
BRANCH   4   7
ATOM      7  C   UNL     1       1.060   9.071  20.416  0.00  0.00    +0.000 A 
ATOM      8  C   UNL     1       1.090   8.644  21.727  0.00  0.00    +0.000 A 
ATOM      9  C   UNL     1       0.110   9.404  22.384  0.00  0.00    +0.000 A 
ATOM     10  N   UNL     1      -0.499  10.261  21.565  0.00  0.00    +0.000 NA
ATOM     11  N   UNL     1       0.100  10.056  20.371  0.00  0.00    +0.000 N 
BRANCH  11  12
ATOM     12  C   UNL     1      -0.294  10.878  19.231  0.00  0.00    +0.000 C 
ATOM     13  C   UNL     1       0.903  11.731  18.789  0.00  0.00    +0.000 C 
BRANCH  12  14
ATOM     14  C   UNL     1      -0.818  10.065  18.026  0.00  0.00    +0.000 C 
BRANCH  14  15
ATOM     15  C   UNL     1      -2.338  10.089  17.758  0.00  0.00    +0.000 C 
ATOM     16  C   UNL     1      -3.002  11.386  18.222  0.00  0.00    +0.000 C 
ATOM     17  C   UNL     1      -2.582   9.906  16.253  0.00  0.00    +0.000 C 
ENDBRANCH  14  15
ENDBRANCH  12  14
ENDBRANCH  11  12
ENDBRANCH   4   7
BRANCH   1  18
ATOM     18  C   UNL     1       3.436   5.462  18.157  0.00  0.00    +0.000 C 
ATOM     19  C   UNL     1       2.283   4.459  17.946  0.00  0.00    +0.000 C 
ATOM     20  C   UNL     1       4.275   5.091  19.396  0.00  0.00    +0.000 C 
BRANCH  18  25
ATOM     21  C   UNL     1       6.250   4.245  14.224  0.00  0.00    +0.000 C 
ATOM     22  C   UNL     1       5.535   4.981  15.284  0.00  0.00    +0.000 A 
ATOM     23  N   UNL     1       5.558   6.317  15.348  0.00  0.00    +0.000 NA
ATOM     24  O   UNL     1       4.771   6.599  16.455  0.00  0.00    +0.000 OA
ATOM     25  C   UNL     1       4.342   5.398  16.949  0.00  0.00    +0.000 A 
ATOM     26  N   UNL     1       4.786   4.362  16.264  0.00  0.00    +0.000 NA
ENDBRANCH  18  25
ENDBRANCH   1  18
TORSDOF 6
ENDMDL
MODEL 5
REMARK VINA RESULT:      -6.7      1.345      2.236
REMARK  Name = 
REMARK  12 active torsions:
REMARK  status: ('A' for Active; 'I' for Inactive)
REMARK    1  A    between atoms: C_1  and  C_2
REMARK    2  A    between atoms: C_5  and  C_6
REMARK    3  A    between atoms: C_6  and  C_7
REMARK    4  A    between atoms: C_6  and  C_8
REMARK    5  A    between atoms: C_6  and  N_9
REMARK    6  A    between atoms: N_12  and  C_13
REMARK    7  A    between atoms: N_17  and  C_18
REMARK    8  A    between atoms: C_18  and  C_19
REMARK    9  A    between atoms: C_18  and  C_20
REMARK   10  A    between atoms: C_20  and  C_21
REMARK   11  A    between atoms: C_21  and  C_22
REMARK   12  A    between atoms: C_21  and  C_23
REMARK                            x       y       z     vdW  Elec       q    Type
REMARK                         _______ _______ _______ _____ _____    ______ ____
ROOT
ATOM      1  N   UNL     1       5.497   5.430  17.596  0.00  0.00    +0.000 N 
ATOM      2  C   UNL     1       4.786   6.588  17.671  0.00  0.00    +0.000 C 
ATOM      3  O   UNL     1       5.179   7.697  17.366  0.00  0.00    +0.000 OA
ATOM      4  N   UNL     1       3.448   6.390  18.097  0.00  0.00    +0.000 N 
ATOM      5  H   UNL     1       5.134   4.548  17.929  0.00  0.00    +0.000 HD
ATOM      6  H   UNL     1       3.042   5.469  18.133  0.00  0.00    +0.000 HD
ENDROOT
BRANCH   4   7
ATOM      7  C   UNL     1       2.642   7.510  18.285  0.00  0.00    +0.000 A 
ATOM      8  C   UNL     1       2.348   8.459  17.330  0.00  0.00    +0.000 A 
ATOM      9  C   UNL     1       1.518   9.388  17.978  0.00  0.00    +0.000 A 
ATOM     10  N   UNL     1       1.286   9.058  19.248  0.00  0.00    +0.000 NA
ATOM     11  N   UNL     1       1.968   7.904  19.418  0.00  0.00    +0.000 N 
BRANCH  11  12
ATOM     12  C   UNL     1       1.893   7.221  20.705  0.00  0.00    +0.000 C 
ATOM     13  C   UNL     1       1.223   8.147  21.729  0.00  0.00    +0.000 C 
BRANCH  12  14
ATOM     14  C   UNL     1       1.132   5.876  20.654  0.00  0.00    +0.000 C 
BRANCH  14  15
ATOM     15  C   UNL     1       1.961   4.599  20.395  0.00  0.00    +0.000 C 
ATOM     16  C   UNL     1       2.114   3.727  21.642  0.00  0.00    +0.000 C 
ATOM     17  C   UNL     1       1.284   3.782  19.285  0.00  0.00    +0.000 C 
ENDBRANCH  14  15
ENDBRANCH  12  14
ENDBRANCH  11  12
ENDBRANCH   4   7
BRANCH   1  18
ATOM     18  C   UNL     1       6.883   5.429  17.077  0.00  0.00    +0.000 C 
ATOM     19  C   UNL     1       7.756   4.417  17.848  0.00  0.00    +0.000 C 
ATOM     20  C   UNL     1       7.481   6.848  17.153  0.00  0.00    +0.000 C 
BRANCH  18  25
ATOM     21  C   UNL     1       6.026   3.457  12.578  0.00  0.00    +0.000 C 
ATOM     22  C   UNL     1       6.562   4.248  13.702  0.00  0.00    +0.000 A 
ATOM     23  N   UNL     1       7.518   5.165  13.521  0.00  0.00    +0.000 NA
ATOM     24  O   UNL     1       7.721   5.674  14.796  0.00  0.00    +0.000 OA
ATOM     25  C   UNL     1       6.856   5.015  15.624  0.00  0.00    +0.000 A 
ATOM     26  N   UNL     1       6.115   4.119  15.002  0.00  0.00    +0.000 NA
ENDBRANCH  18  25
ENDBRANCH   1  18
TORSDOF 6
ENDMDL
MODEL 6
REMARK VINA RESULT:      -6.7      0.885      1.433
REMARK  Name = 
REMARK  12 active torsions:
REMARK  status: ('A' for Active; 'I' for Inactive)
REMARK    1  A    between atoms: C_1  and  C_2
REMARK    2  A    between atoms: C_5  and  C_6
REMARK    3  A    between atoms: C_6  and  C_7
REMARK    4  A    between atoms: C_6  and  C_8
REMARK    5  A    between atoms: C_6  and  N_9
REMARK    6  A    between atoms: N_12  and  C_13
REMARK    7  A    between atoms: N_17  and  C_18
REMARK    8  A    between atoms: C_18  and  C_19
REMARK    9  A    between atoms: C_18  and  C_20
REMARK   10  A    between atoms: C_20  and  C_21
REMARK   11  A    between atoms: C_21  and  C_22
REMARK   12  A    between atoms: C_21  and  C_23
REMARK                            x       y       z     vdW  Elec       q    Type
REMARK                         _______ _______ _______ _____ _____    ______ ____
ROOT
ATOM      1  N   UNL     1       5.113   5.670  16.718  0.00  0.00    +0.000 N 
ATOM      2  C   UNL     1       4.526   5.718  17.945  0.00  0.00    +0.000 C 
ATOM      3  O   UNL     1       5.085   5.604  19.017  0.00  0.00    +0.000 OA
ATOM      4  N   UNL     1       3.136   5.993  17.883  0.00  0.00    +0.000 N 
ATOM      5  H   UNL     1       4.580   5.705  15.860  0.00  0.00    +0.000 HD
ATOM      6  H   UNL     1       2.704   6.313  17.031  0.00  0.00    +0.000 HD
ENDROOT
BRANCH   4   7
ATOM      7  C   UNL     1       2.409   5.993  19.071  0.00  0.00    +0.000 A 
ATOM      8  C   UNL     1       2.347   7.030  19.977  0.00  0.00    +0.000 A 
ATOM      9  C   UNL     1       1.509   6.570  21.006  0.00  0.00    +0.000 A 
ATOM     10  N   UNL     1       1.059   5.338  20.777  0.00  0.00    +0.000 NA
ATOM     11  N   UNL     1       1.605   5.002  19.588  0.00  0.00    +0.000 N 
BRANCH  11  12
ATOM     12  C   UNL     1       1.276   3.709  18.997  0.00  0.00    +0.000 C 
ATOM     13  C   UNL     1       1.472   3.785  17.477  0.00  0.00    +0.000 C 
BRANCH  12  14
ATOM     14  C   UNL     1       2.107   2.535  19.563  0.00  0.00    +0.000 C 
BRANCH  14  15
ATOM     15  C   UNL     1       3.588   2.442  19.139  0.00  0.00    +0.000 C 
ATOM     16  C   UNL     1       4.542   2.343  20.331  0.00  0.00    +0.000 C 
ATOM     17  C   UNL     1       3.773   1.212  18.239  0.00  0.00    +0.000 C 
ENDBRANCH  14  15
ENDBRANCH  12  14
ENDBRANCH  11  12
ENDBRANCH   4   7
BRANCH   1  18
ATOM     18  C   UNL     1       6.576   5.491  16.590  0.00  0.00    +0.000 C 
ATOM     19  C   UNL     1       7.073   4.360  17.514  0.00  0.00    +0.000 C 
ATOM     20  C   UNL     1       7.303   6.816  16.894  0.00  0.00    +0.000 C 
BRANCH  18  25
ATOM     21  C   UNL     1       6.799   3.619  11.973  0.00  0.00    +0.000 C 
ATOM     22  C   UNL     1       7.059   4.380  13.210  0.00  0.00    +0.000 A 
ATOM     23  N   UNL     1       8.042   5.284  13.284  0.00  0.00    +0.000 NA
ATOM     24  O   UNL     1       7.940   5.765  14.581  0.00  0.00    +0.000 OA
ATOM     25  C   UNL     1       6.893   5.105  15.164  0.00  0.00    +0.000 A 
ATOM     26  N   UNL     1       6.313   4.234  14.362  0.00  0.00    +0.000 NA
ENDBRANCH  18  25
ENDBRANCH   1  18
TORSDOF 6
ENDMDL
MODEL 7
REMARK VINA RESULT:      -6.7      2.741      5.553
REMARK  Name = 
REMARK  12 active torsions:
REMARK  status: ('A' for Active; 'I' for Inactive)
REMARK    1  A    between atoms: C_1  and  C_2
REMARK    2  A    between atoms: C_5  and  C_6
REMARK    3  A    between atoms: C_6  and  C_7
REMARK    4  A    between atoms: C_6  and  C_8
REMARK    5  A    between atoms: C_6  and  N_9
REMARK    6  A    between atoms: N_12  and  C_13
REMARK    7  A    between atoms: N_17  and  C_18
REMARK    8  A    between atoms: C_18  and  C_19
REMARK    9  A    between atoms: C_18  and  C_20
REMARK   10  A    between atoms: C_20  and  C_21
REMARK   11  A    between atoms: C_21  and  C_22
REMARK   12  A    between atoms: C_21  and  C_23
REMARK                            x       y       z     vdW  Elec       q    Type
REMARK                         _______ _______ _______ _____ _____    ______ ____
ROOT
ATOM      1  N   UNL     1       3.110   4.863  19.886  0.00  0.00    +0.000 N 
ATOM      2  C   UNL     1       2.718   5.959  19.181  0.00  0.00    +0.000 C 
ATOM      3  O   UNL     1       2.690   6.065  17.971  0.00  0.00    +0.000 OA
ATOM      4  N   UNL     1       2.255   7.013  20.009  0.00  0.00    +0.000 N 
ATOM      5  H   UNL     1       3.175   4.861  20.895  0.00  0.00    +0.000 HD
ATOM      6  H   UNL     1       2.058   6.863  20.985  0.00  0.00    +0.000 HD
ENDROOT
BRANCH   4   7
ATOM      7  C   UNL     1       1.896   8.216  19.406  0.00  0.00    +0.000 A 
ATOM      8  C   UNL     1       2.337   8.665  18.179  0.00  0.00    +0.000 A 
ATOM      9  C   UNL     1       1.719   9.914  18.002  0.00  0.00    +0.000 A 
ATOM     10  N   UNL     1       0.935  10.240  19.028  0.00  0.00    +0.000 NA
ATOM     11  N   UNL     1       1.043   9.190  19.871  0.00  0.00    +0.000 N 
BRANCH  11  12
ATOM     12  C   UNL     1       0.259   9.188  21.103  0.00  0.00    +0.000 C 
ATOM     13  C   UNL     1       1.211   9.240  22.305  0.00  0.00    +0.000 C 
BRANCH  12  14
ATOM     14  C   UNL     1      -0.753  10.353  21.199  0.00  0.00    +0.000 C 
BRANCH  14  15
ATOM     15  C   UNL     1      -0.531  11.398  22.314  0.00  0.00    +0.000 C 
ATOM     16  C   UNL     1      -0.150  12.775  21.770  0.00  0.00    +0.000 C 
ATOM     17  C   UNL     1      -1.815  11.519  23.147  0.00  0.00    +0.000 C 
ENDBRANCH  14  15
ENDBRANCH  12  14
ENDBRANCH  11  12
ENDBRANCH   4   7
BRANCH   1  18
ATOM     18  C   UNL     1       3.533   3.628  19.188  0.00  0.00    +0.000 C 
ATOM     19  C   UNL     1       2.439   3.150  18.210  0.00  0.00    +0.000 C 
ATOM     20  C   UNL     1       3.881   2.530  20.212  0.00  0.00    +0.000 C 
BRANCH  18  25
ATOM     21  C   UNL     1       7.030   4.495  15.740  0.00  0.00    +0.000 C 
ATOM     22  C   UNL     1       6.306   4.312  17.013  0.00  0.00    +0.000 A 
ATOM     23  N   UNL     1       6.904   4.505  18.194  0.00  0.00    +0.000 NA
ATOM     24  O   UNL     1       5.895   4.246  19.110  0.00  0.00    +0.000 OA
ATOM     25  C   UNL     1       4.779   3.928  18.387  0.00  0.00    +0.000 A 
ATOM     26  N   UNL     1       4.976   3.950  17.084  0.00  0.00    +0.000 NA
ENDBRANCH  18  25
ENDBRANCH   1  18
TORSDOF 6
ENDMDL
MODEL 8
REMARK VINA RESULT:      -6.6      3.399      7.717
REMARK  Name = 
REMARK  12 active torsions:
REMARK  status: ('A' for Active; 'I' for Inactive)
REMARK    1  A    between atoms: C_1  and  C_2
REMARK    2  A    between atoms: C_5  and  C_6
REMARK    3  A    between atoms: C_6  and  C_7
REMARK    4  A    between atoms: C_6  and  C_8
REMARK    5  A    between atoms: C_6  and  N_9
REMARK    6  A    between atoms: N_12  and  C_13
REMARK    7  A    between atoms: N_17  and  C_18
REMARK    8  A    between atoms: C_18  and  C_19
REMARK    9  A    between atoms: C_18  and  C_20
REMARK   10  A    between atoms: C_20  and  C_21
REMARK   11  A    between atoms: C_21  and  C_22
REMARK   12  A    between atoms: C_21  and  C_23
REMARK                            x       y       z     vdW  Elec       q    Type
REMARK                         _______ _______ _______ _____ _____    ______ ____
ROOT
ATOM      1  N   UNL     1       1.375   9.070  19.496  0.00  0.00    +0.000 N 
ATOM      2  C   UNL     1       2.073   8.386  18.549  0.00  0.00    +0.000 C 
ATOM      3  O   UNL     1       2.187   8.688  17.378  0.00  0.00    +0.000 OA
ATOM      4  N   UNL     1       2.756   7.259  19.073  0.00  0.00    +0.000 N 
ATOM      5  H   UNL     1       1.264   8.729  20.440  0.00  0.00    +0.000 HD
ATOM      6  H   UNL     1       2.860   7.125  20.065  0.00  0.00    +0.000 HD
ENDROOT
BRANCH   4   7
ATOM      7  C   UNL     1       3.446   6.434  18.187  0.00  0.00    +0.000 A 
ATOM      8  C   UNL     1       4.665   6.717  17.608  0.00  0.00    +0.000 A 
ATOM      9  C   UNL     1       4.951   5.608  16.795  0.00  0.00    +0.000 A 
ATOM     10  N   UNL     1       3.998   4.680  16.852  0.00  0.00    +0.000 NA
ATOM     11  N   UNL     1       3.092   5.191  17.715  0.00  0.00    +0.000 N 
BRANCH  11  12
ATOM     12  C   UNL     1       1.916   4.399  18.059  0.00  0.00    +0.000 C 
ATOM     13  C   UNL     1       2.013   3.029  17.373  0.00  0.00    +0.000 C 
BRANCH  12  14
ATOM     14  C   UNL     1       1.722   4.198  19.580  0.00  0.00    +0.000 C 
BRANCH  14  15
ATOM     15  C   UNL     1       2.175   2.852  20.183  0.00  0.00    +0.000 C 
ATOM     16  C   UNL     1       3.695   2.744  20.320  0.00  0.00    +0.000 C 
ATOM     17  C   UNL     1       1.529   2.682  21.566  0.00  0.00    +0.000 C 
ENDBRANCH  14  15
ENDBRANCH  12  14
ENDBRANCH  11  12
ENDBRANCH   4   7
BRANCH   1  18
ATOM     18  C   UNL     1       0.678  10.330  19.154  0.00  0.00    +0.000 C 
ATOM     19  C   UNL     1      -0.489  10.065  18.180  0.00  0.00    +0.000 C 
ATOM     20  C   UNL     1       1.675  11.345  18.561  0.00  0.00    +0.000 C 
BRANCH  18  25
ATOM     21  C   UNL     1      -1.030  13.191  22.864  0.00  0.00    +0.000 C 
ATOM     22  C   UNL     1      -0.636  12.046  22.021  0.00  0.00    +0.000 A 
ATOM     23  N   UNL     1      -0.854  10.784  22.404  0.00  0.00    +0.000 NA
ATOM     24  O   UNL     1      -0.358  10.036  21.346  0.00  0.00    +0.000 OA
ATOM     25  C   UNL     1       0.107  10.927  20.419  0.00  0.00    +0.000 A 
ATOM     26  N   UNL     1      -0.037  12.185  20.785  0.00  0.00    +0.000 NA
ENDBRANCH  18  25
ENDBRANCH   1  18
TORSDOF 6
ENDMDL
MODEL 9
REMARK VINA RESULT:      -6.6      1.720      3.118
REMARK  Name = 
REMARK  12 active torsions:
REMARK  status: ('A' for Active; 'I' for Inactive)
REMARK    1  A    between atoms: C_1  and  C_2
REMARK    2  A    between atoms: C_5  and  C_6
REMARK    3  A    between atoms: C_6  and  C_7
REMARK    4  A    between atoms: C_6  and  C_8
REMARK    5  A    between atoms: C_6  and  N_9
REMARK    6  A    between atoms: N_12  and  C_13
REMARK    7  A    between atoms: N_17  and  C_18
REMARK    8  A    between atoms: C_18  and  C_19
REMARK    9  A    between atoms: C_18  and  C_20
REMARK   10  A    between atoms: C_20  and  C_21
REMARK   11  A    between atoms: C_21  and  C_22
REMARK   12  A    between atoms: C_21  and  C_23
REMARK                            x       y       z     vdW  Elec       q    Type
REMARK                         _______ _______ _______ _____ _____    ______ ____
ROOT
ATOM      1  N   UNL     1       5.388   5.412  17.065  0.00  0.00    +0.000 N 
ATOM      2  C   UNL     1       4.754   5.676  18.240  0.00  0.00    +0.000 C 
ATOM      3  O   UNL     1       5.283   5.926  19.305  0.00  0.00    +0.000 OA
ATOM      4  N   UNL     1       3.342   5.702  18.112  0.00  0.00    +0.000 N 
ATOM      5  H   UNL     1       4.890   5.145  16.228  0.00  0.00    +0.000 HD
ATOM      6  H   UNL     1       2.899   5.725  17.208  0.00  0.00    +0.000 HD
ENDROOT
BRANCH   4   7
ATOM      7  C   UNL     1       2.579   5.888  19.263  0.00  0.00    +0.000 A 
ATOM      8  C   UNL     1       2.039   7.084  19.686  0.00  0.00    +0.000 A 
ATOM      9  C   UNL     1       1.368   6.781  20.882  0.00  0.00    +0.000 A 
ATOM     10  N   UNL     1       1.460   5.491  21.200  0.00  0.00    +0.000 NA
ATOM     11  N   UNL     1       2.191   4.956  20.197  0.00  0.00    +0.000 N 
BRANCH  11  12
ATOM     12  C   UNL     1       2.447   3.519  20.197  0.00  0.00    +0.000 C 
ATOM     13  C   UNL     1       2.212   2.965  21.608  0.00  0.00    +0.000 C 
BRANCH  12  14
ATOM     14  C   UNL     1       1.582   2.731  19.186  0.00  0.00    +0.000 C 
BRANCH  14  15
ATOM     15  C   UNL     1       2.315   1.995  18.044  0.00  0.00    +0.000 C 
ATOM     16  C   UNL     1       2.587   2.893  16.837  0.00  0.00    +0.000 C 
ATOM     17  C   UNL     1       3.646   1.446  18.579  0.00  0.00    +0.000 C 
ENDBRANCH  14  15
ENDBRANCH  12  14
ENDBRANCH  11  12
ENDBRANCH   4   7
BRANCH   1  18
ATOM     18  C   UNL     1       6.866   5.440  16.984  0.00  0.00    +0.000 C 
ATOM     19  C   UNL     1       7.340   5.188  15.537  0.00  0.00    +0.000 C 
ATOM     20  C   UNL     1       7.472   4.407  17.954  0.00  0.00    +0.000 C 
BRANCH  18  25
ATOM     21  C   UNL     1       9.051   9.434  19.019  0.00  0.00    +0.000 C 
ATOM     22  C   UNL     1       8.219   8.538  18.194  0.00  0.00    +0.000 A 
ATOM     23  N   UNL     1       7.428   9.010  17.224  0.00  0.00    +0.000 NA
ATOM     24  O   UNL     1       6.844   7.866  16.700  0.00  0.00    +0.000 OA
ATOM     25  C   UNL     1       7.349   6.809  17.404  0.00  0.00    +0.000 A 
ATOM     26  N   UNL     1       8.203   7.166  18.344  0.00  0.00    +0.000 NA
ENDBRANCH  18  25
ENDBRANCH   1  18
TORSDOF 6
ENDMDL
