MODEL 1
REMARK VINA RESULT:      -7.5      0.000      0.000
REMARK  Name = 
REMARK  7 active torsions:
REMARK  status: ('A' for Active; 'I' for Inactive)
REMARK    1  A    between atoms: C_1  and  C_2
REMARK    2  A    between atoms: C_2  and  O_3
REMARK    3  A    between atoms: O_3  and  C_4
REMARK    4  A    between atoms: C_4  and  C_5
REMARK    5  A    between atoms: N_7  and  C_8
REMARK    6  A    between atoms: C_8  and  C_9
REMARK    7  A    between atoms: C_15  and  C_16
REMARK                            x       y       z     vdW  Elec       q    Type
REMARK                         _______ _______ _______ _____ _____    ______ ____
ROOT
ATOM      1  C   UNL     1       2.340   5.199  19.470  0.00  0.00    +0.000 C 
ATOM      2  C   UNL     1       1.349   4.978  20.653  0.00  0.00    +0.000 C 
ATOM      3  N   UNL     1       0.733   3.641  20.621  0.00  0.00    +0.000 NA
ATOM      4  C   UNL     1       1.487   2.534  21.230  0.00  0.00    +0.000 C 
ATOM      5  C   UNL     1       3.001   2.663  21.103  0.00  0.00    +0.000 C 
ATOM      6  O   UNL     1       3.358   2.970  19.769  0.00  0.00    +0.000 OA
ATOM      7  C   UNL     1       3.645   4.354  19.621  0.00  0.00    +0.000 C 
ATOM      8  H   UNL     1       0.456   3.401  19.640  0.00  0.00    +0.000 HD
ENDROOT
BRANCH   7   9
ATOM      9  C   UNL     1       4.550   4.502  18.413  0.00  0.00    +0.000 A 
ATOM     10  C   UNL     1       4.120   4.086  17.140  0.00  0.00    +0.000 A 
ATOM     11  C   UNL     1       4.955   4.228  16.029  0.00  0.00    +0.000 A 
ATOM     12  C   UNL     1       6.232   4.781  16.175  0.00  0.00    +0.000 A 
ATOM     13 CL   UNL     1       7.271   4.953  14.771  0.00  0.00    +0.000 Cl
ATOM     14  C   UNL     1       6.672   5.192  17.438  0.00  0.00    +0.000 A 
ATOM     15  F   UNL     1       7.910   5.726  17.590  0.00  0.00    +0.000 F 
ATOM     16  C   UNL     1       5.838   5.055  18.550  0.00  0.00    +0.000 A 
ENDBRANCH   7   9
BRANCH   1  17
ATOM     17  C   UNL     1       2.681   6.713  19.330  0.00  0.00    +0.000 C 
BRANCH  17  20
ATOM     18  C   UNL     1       1.354   8.685  20.040  0.00  0.00    +0.000 C 
ATOM     19  O   UNL     1       1.374   9.136  18.903  0.00  0.00    +0.000 OA
ATOM     20  N   UNL     1       1.995   7.516  20.332  0.00  0.00    +0.000 N 
ATOM     21  H   UNL     1       1.985   7.174  21.306  0.00  0.00    +0.000 HD
BRANCH  18  22
ATOM     22  C   UNL     1       0.583   9.423  21.100  0.00  0.00    +0.000 C 
BRANCH  22  23
ATOM     23  O   UNL     1       0.973   8.993  22.389  0.00  0.00    +0.000 OA
BRANCH  23  25
ATOM     24  C   UNL     1      -0.741  10.646  22.713  0.00  0.00    +0.000 C 
ATOM     25  C   UNL     1       0.051   9.504  23.332  0.00  0.00    +0.000 C 
ENDBRANCH  23  25
ENDBRANCH  22  23
ENDBRANCH  18  22
ENDBRANCH  17  20
ENDBRANCH   1  17
TORSDOF 6
ENDMDL
MODEL 2
REMARK VINA RESULT:      -7.5      4.048      7.236
REMARK  Name = 
REMARK  7 active torsions:
REMARK  status: ('A' for Active; 'I' for Inactive)
REMARK    1  A    between atoms: C_1  and  C_2
REMARK    2  A    between atoms: C_2  and  O_3
REMARK    3  A    between atoms: O_3  and  C_4
REMARK    4  A    between atoms: C_4  and  C_5
REMARK    5  A    between atoms: N_7  and  C_8
REMARK    6  A    between atoms: C_8  and  C_9
REMARK    7  A    between atoms: C_15  and  C_16
REMARK                            x       y       z     vdW  Elec       q    Type
REMARK                         _______ _______ _______ _____ _____    ______ ____
ROOT
ATOM      1  C   UNL     1       4.626   5.407  18.350  0.00  0.00    +0.000 C 
ATOM      2  C   UNL     1       5.275   3.998  18.194  0.00  0.00    +0.000 C 
ATOM      3  N   UNL     1       5.265   3.237  19.455  0.00  0.00    +0.000 NA
ATOM      4  C   UNL     1       4.044   2.485  19.782  0.00  0.00    +0.000 C 
ATOM      5  C   UNL     1       2.756   3.138  19.292  0.00  0.00    +0.000 C 
ATOM      6  O   UNL     1       2.732   4.507  19.652  0.00  0.00    +0.000 OA
ATOM      7  C   UNL     1       3.079   5.331  18.547  0.00  0.00    +0.000 C 
ATOM      8  H   UNL     1       5.534   3.864  20.249  0.00  0.00    +0.000 HD
ENDROOT
BRANCH   7   9
ATOM      9  C   UNL     1       2.480   6.702  18.800  0.00  0.00    +0.000 A 
ATOM     10  C   UNL     1       2.289   7.607  17.741  0.00  0.00    +0.000 A 
ATOM     11  C   UNL     1       1.733   8.867  17.977  0.00  0.00    +0.000 A 
ATOM     12  C   UNL     1       1.365   9.241  19.274  0.00  0.00    +0.000 A 
ATOM     13 CL   UNL     1       0.668  10.827  19.557  0.00  0.00    +0.000 Cl
ATOM     14  C   UNL     1       1.557   8.351  20.337  0.00  0.00    +0.000 A 
ATOM     15  F   UNL     1       1.207   8.705  21.598  0.00  0.00    +0.000 F 
ATOM     16  C   UNL     1       2.110   7.089  20.102  0.00  0.00    +0.000 A 
ENDBRANCH   7   9
BRANCH   1  17
ATOM     17  C   UNL     1       4.979   6.300  17.123  0.00  0.00    +0.000 C 
BRANCH  17  20
ATOM     18  C   UNL     1       6.517   5.394  15.401  0.00  0.00    +0.000 C 
ATOM     19  O   UNL     1       7.455   6.017  15.878  0.00  0.00    +0.000 OA
ATOM     20  N   UNL     1       5.268   5.503  15.939  0.00  0.00    +0.000 N 
ATOM     21  H   UNL     1       4.490   4.987  15.499  0.00  0.00    +0.000 HD
BRANCH  18  22
ATOM     22  C   UNL     1       6.772   4.481  14.233  0.00  0.00    +0.000 C 
BRANCH  22  23
ATOM     23  O   UNL     1       5.551   4.039  13.672  0.00  0.00    +0.000 OA
BRANCH  23  25
ATOM     24  C   UNL     1       4.562   3.242  11.631  0.00  0.00    +0.000 C 
ATOM     25  C   UNL     1       5.832   3.367  12.459  0.00  0.00    +0.000 C 
ENDBRANCH  23  25
ENDBRANCH  22  23
ENDBRANCH  18  22
ENDBRANCH  17  20
ENDBRANCH   1  17
TORSDOF 6
ENDMDL
MODEL 3
REMARK VINA RESULT:      -7.4      3.685      6.812
REMARK  Name = 
REMARK  7 active torsions:
REMARK  status: ('A' for Active; 'I' for Inactive)
REMARK    1  A    between atoms: C_1  and  C_2
REMARK    2  A    between atoms: C_2  and  O_3
REMARK    3  A    between atoms: O_3  and  C_4
REMARK    4  A    between atoms: C_4  and  C_5
REMARK    5  A    between atoms: N_7  and  C_8
REMARK    6  A    between atoms: C_8  and  C_9
REMARK    7  A    between atoms: C_15  and  C_16
REMARK                            x       y       z     vdW  Elec       q    Type
REMARK                         _______ _______ _______ _____ _____    ______ ____
ROOT
ATOM      1  C   UNL     1       4.096   4.626  19.472  0.00  0.00    +0.000 C 
ATOM      2  C   UNL     1       4.522   3.149  19.208  0.00  0.00    +0.000 C 
ATOM      3  N   UNL     1       3.564   2.184  19.775  0.00  0.00    +0.000 NA
ATOM      4  C   UNL     1       2.385   1.843  18.962  0.00  0.00    +0.000 C 
ATOM      5  C   UNL     1       1.871   2.988  18.095  0.00  0.00    +0.000 C 
ATOM      6  O   UNL     1       1.749   4.169  18.864  0.00  0.00    +0.000 OA
ATOM      7  C   UNL     1       2.846   5.044  18.636  0.00  0.00    +0.000 C 
ATOM      8  H   UNL     1       3.273   2.493  20.731  0.00  0.00    +0.000 HD
ENDROOT
BRANCH   7   9
ATOM      9  C   UNL     1       2.385   6.447  18.982  0.00  0.00    +0.000 A 
ATOM     10  C   UNL     1       1.951   6.758  20.284  0.00  0.00    +0.000 A 
ATOM     11  C   UNL     1       1.532   8.053  20.599  0.00  0.00    +0.000 A 
ATOM     12  C   UNL     1       1.534   9.051  19.620  0.00  0.00    +0.000 A 
ATOM     13 CL   UNL     1       1.004  10.674  20.030  0.00  0.00    +0.000 Cl
ATOM     14  C   UNL     1       1.957   8.751  18.320  0.00  0.00    +0.000 A 
ATOM     15  F   UNL     1       1.959   9.711  17.362  0.00  0.00    +0.000 F 
ATOM     16  C   UNL     1       2.380   7.458  18.002  0.00  0.00    +0.000 A 
ENDBRANCH   7   9
BRANCH   1  17
ATOM     17  C   UNL     1       5.289   5.587  19.190  0.00  0.00    +0.000 C 
BRANCH  17  20
ATOM     18  C   UNL     1       6.818   5.000  17.326  0.00  0.00    +0.000 C 
ATOM     19  O   UNL     1       7.613   4.495  18.107  0.00  0.00    +0.000 OA
ATOM     20  N   UNL     1       5.670   5.578  17.784  0.00  0.00    +0.000 N 
ATOM     21  H   UNL     1       5.031   6.021  17.105  0.00  0.00    +0.000 HD
BRANCH  18  22
ATOM     22  C   UNL     1       7.112   4.940  15.852  0.00  0.00    +0.000 C 
BRANCH  22  23
ATOM     23  O   UNL     1       6.519   3.794  15.273  0.00  0.00    +0.000 OA
BRANCH  23  25
ATOM     24  C   UNL     1       6.198   3.639  12.896  0.00  0.00    +0.000 C 
ATOM     25  C   UNL     1       5.684   4.210  14.209  0.00  0.00    +0.000 C 
ENDBRANCH  23  25
ENDBRANCH  22  23
ENDBRANCH  18  22
ENDBRANCH  17  20
ENDBRANCH   1  17
TORSDOF 6
ENDMDL
MODEL 4
REMARK VINA RESULT:      -7.3      1.091      1.527
REMARK  Name = 
REMARK  7 active torsions:
REMARK  status: ('A' for Active; 'I' for Inactive)
REMARK    1  A    between atoms: C_1  and  C_2
REMARK    2  A    between atoms: C_2  and  O_3
REMARK    3  A    between atoms: O_3  and  C_4
REMARK    4  A    between atoms: C_4  and  C_5
REMARK    5  A    between atoms: N_7  and  C_8
REMARK    6  A    between atoms: C_8  and  C_9
REMARK    7  A    between atoms: C_15  and  C_16
REMARK                            x       y       z     vdW  Elec       q    Type
REMARK                         _______ _______ _______ _____ _____    ______ ____
ROOT
ATOM      1  C   UNL     1       2.316   5.182  19.538  0.00  0.00    +0.000 C 
ATOM      2  C   UNL     1       1.263   4.911  20.657  0.00  0.00    +0.000 C 
ATOM      3  N   UNL     1       0.691   3.557  20.566  0.00  0.00    +0.000 NA
ATOM      4  C   UNL     1       1.442   2.461  21.200  0.00  0.00    +0.000 C 
ATOM      5  C   UNL     1       2.956   2.637  21.165  0.00  0.00    +0.000 C 
ATOM      6  O   UNL     1       3.380   2.979  19.859  0.00  0.00    +0.000 OA
ATOM      7  C   UNL     1       3.634   4.374  19.752  0.00  0.00    +0.000 C 
ATOM      8  H   UNL     1       0.480   3.328  19.568  0.00  0.00    +0.000 HD
ENDROOT
BRANCH   7   9
ATOM      9  C   UNL     1       4.603   4.570  18.602  0.00  0.00    +0.000 A 
ATOM     10  C   UNL     1       5.896   5.075  18.833  0.00  0.00    +0.000 A 
ATOM     11  C   UNL     1       6.788   5.250  17.772  0.00  0.00    +0.000 A 
ATOM     12  C   UNL     1       6.399   4.931  16.467  0.00  0.00    +0.000 A 
ATOM     13 CL   UNL     1       7.529   5.157  15.142  0.00  0.00    +0.000 Cl
ATOM     14  C   UNL     1       5.113   4.435  16.224  0.00  0.00    +0.000 A 
ATOM     15  F   UNL     1       4.725   4.126  14.962  0.00  0.00    +0.000 F 
ATOM     16  C   UNL     1       4.220   4.255  17.285  0.00  0.00    +0.000 A 
ENDBRANCH   7   9
BRANCH   1  17
ATOM     17  C   UNL     1       2.618   6.708  19.444  0.00  0.00    +0.000 C 
BRANCH  17  20
ATOM     18  C   UNL     1       1.380   8.574  20.510  0.00  0.00    +0.000 C 
ATOM     19  O   UNL     1       1.145   9.072  19.418  0.00  0.00    +0.000 OA
ATOM     20  N   UNL     1       2.118   7.431  20.605  0.00  0.00    +0.000 N 
ATOM     21  H   UNL     1       2.324   7.049  21.542  0.00  0.00    +0.000 HD
BRANCH  18  22
ATOM     22  C   UNL     1       0.811   9.225  21.741  0.00  0.00    +0.000 C 
BRANCH  22  23
ATOM     23  O   UNL     1       1.026  10.623  21.709  0.00  0.00    +0.000 OA
BRANCH  23  25
ATOM     24  C   UNL     1      -0.965  10.648  23.055  0.00  0.00    +0.000 C 
ATOM     25  C   UNL     1      -0.218  11.273  21.887  0.00  0.00    +0.000 C 
ENDBRANCH  23  25
ENDBRANCH  22  23
ENDBRANCH  18  22
ENDBRANCH  17  20
ENDBRANCH   1  17
TORSDOF 6
ENDMDL
MODEL 5
REMARK VINA RESULT:      -7.2      3.828      6.756
REMARK  Name = 
REMARK  7 active torsions:
REMARK  status: ('A' for Active; 'I' for Inactive)
REMARK    1  A    between atoms: C_1  and  C_2
REMARK    2  A    between atoms: C_2  and  O_3
REMARK    3  A    between atoms: O_3  and  C_4
REMARK    4  A    between atoms: C_4  and  C_5
REMARK    5  A    between atoms: N_7  and  C_8
REMARK    6  A    between atoms: C_8  and  C_9
REMARK    7  A    between atoms: C_15  and  C_16
REMARK                            x       y       z     vdW  Elec       q    Type
REMARK                         _______ _______ _______ _____ _____    ______ ____
ROOT
ATOM      1  C   UNL     1       4.175   4.619  19.422  0.00  0.00    +0.000 C 
ATOM      2  C   UNL     1       4.639   3.153  19.160  0.00  0.00    +0.000 C 
ATOM      3  N   UNL     1       3.641   2.165  19.605  0.00  0.00    +0.000 NA
ATOM      4  C   UNL     1       2.550   1.838  18.673  0.00  0.00    +0.000 C 
ATOM      5  C   UNL     1       2.110   3.003  17.792  0.00  0.00    +0.000 C 
ATOM      6  O   UNL     1       1.902   4.161  18.577  0.00  0.00    +0.000 OA
ATOM      7  C   UNL     1       3.007   5.050  18.480  0.00  0.00    +0.000 C 
ATOM      8  H   UNL     1       3.256   2.446  20.537  0.00  0.00    +0.000 HD
ENDROOT
BRANCH   7   9
ATOM      9  C   UNL     1       2.501   6.440  18.818  0.00  0.00    +0.000 A 
ATOM     10  C   UNL     1       2.468   7.448  17.837  0.00  0.00    +0.000 A 
ATOM     11  C   UNL     1       1.997   8.726  18.151  0.00  0.00    +0.000 A 
ATOM     12  C   UNL     1       1.558   9.015  19.447  0.00  0.00    +0.000 A 
ATOM     13 CL   UNL     1       0.970  10.624  19.828  0.00  0.00    +0.000 Cl
ATOM     14  C   UNL     1       1.593   8.021  20.432  0.00  0.00    +0.000 A 
ATOM     15  F   UNL     1       1.173   8.292  21.693  0.00  0.00    +0.000 F 
ATOM     16  C   UNL     1       2.060   6.741  20.120  0.00  0.00    +0.000 A 
ENDBRANCH   7   9
BRANCH   1  17
ATOM     17  C   UNL     1       5.380   5.596  19.282  0.00  0.00    +0.000 C 
BRANCH  17  20
ATOM     18  C   UNL     1       6.995   5.155  17.452  0.00  0.00    +0.000 C 
ATOM     19  O   UNL     1       7.745   4.573  18.223  0.00  0.00    +0.000 OA
ATOM     20  N   UNL     1       5.831   5.706  17.902  0.00  0.00    +0.000 N 
ATOM     21  H   UNL     1       5.231   6.215  17.234  0.00  0.00    +0.000 HD
BRANCH  18  22
ATOM     22  C   UNL     1       7.362   5.221  15.995  0.00  0.00    +0.000 C 
BRANCH  22  23
ATOM     23  O   UNL     1       6.206   5.124  15.186  0.00  0.00    +0.000 OA
BRANCH  23  25
ATOM     24  C   UNL     1       6.026   3.769  13.209  0.00  0.00    +0.000 C 
ATOM     25  C   UNL     1       6.088   3.790  14.728  0.00  0.00    +0.000 C 
ENDBRANCH  23  25
ENDBRANCH  22  23
ENDBRANCH  18  22
ENDBRANCH  17  20
ENDBRANCH   1  17
TORSDOF 6
ENDMDL
MODEL 6
REMARK VINA RESULT:      -7.2      3.956      7.199
REMARK  Name = 
REMARK  7 active torsions:
REMARK  status: ('A' for Active; 'I' for Inactive)
REMARK    1  A    between atoms: C_1  and  C_2
REMARK    2  A    between atoms: C_2  and  O_3
REMARK    3  A    between atoms: O_3  and  C_4
REMARK    4  A    between atoms: C_4  and  C_5
REMARK    5  A    between atoms: N_7  and  C_8
REMARK    6  A    between atoms: C_8  and  C_9
REMARK    7  A    between atoms: C_15  and  C_16
REMARK                            x       y       z     vdW  Elec       q    Type
REMARK                         _______ _______ _______ _____ _____    ______ ____
ROOT
ATOM      1  C   UNL     1       4.216   4.878  18.289  0.00  0.00    +0.000 C 
ATOM      2  C   UNL     1       4.643   3.434  17.884  0.00  0.00    +0.000 C 
ATOM      3  N   UNL     1       4.280   2.438  18.906  0.00  0.00    +0.000 NA
ATOM      4  C   UNL     1       2.913   1.895  18.867  0.00  0.00    +0.000 C 
ATOM      5  C   UNL     1       1.860   2.885  18.379  0.00  0.00    +0.000 C 
ATOM      6  O   UNL     1       1.996   4.120  19.055  0.00  0.00    +0.000 OA
ATOM      7  C   UNL     1       2.668   5.076  18.245  0.00  0.00    +0.000 C 
ATOM      8  H   UNL     1       4.499   2.813  19.859  0.00  0.00    +0.000 HD
ENDROOT
BRANCH   7   9
ATOM      9  C   UNL     1       2.265   6.452  18.741  0.00  0.00    +0.000 A 
ATOM     10  C   UNL     1       2.004   6.673  20.106  0.00  0.00    +0.000 A 
ATOM     11  C   UNL     1       1.638   7.943  20.559  0.00  0.00    +0.000 A 
ATOM     12  C   UNL     1       1.522   9.006  19.657  0.00  0.00    +0.000 A 
ATOM     13 CL   UNL     1       1.060  10.595  20.240  0.00  0.00    +0.000 Cl
ATOM     14  C   UNL     1       1.772   8.795  18.296  0.00  0.00    +0.000 A 
ATOM     15  F   UNL     1       1.658   9.817  17.413  0.00  0.00    +0.000 F 
ATOM     16  C   UNL     1       2.142   7.526  17.841  0.00  0.00    +0.000 A 
ENDBRANCH   7   9
BRANCH   1  17
ATOM     17  C   UNL     1       4.927   5.924  17.379  0.00  0.00    +0.000 C 
BRANCH  17  20
ATOM     18  C   UNL     1       6.573   5.437  15.588  0.00  0.00    +0.000 C 
ATOM     19  O   UNL     1       7.442   6.054  16.188  0.00  0.00    +0.000 OA
ATOM     20  N   UNL     1       5.309   5.353  16.095  0.00  0.00    +0.000 N 
ATOM     21  H   UNL     1       4.589   4.850  15.553  0.00  0.00    +0.000 HD
BRANCH  18  22
ATOM     22  C   UNL     1       6.931   4.747  14.301  0.00  0.00    +0.000 C 
BRANCH  22  23
ATOM     23  O   UNL     1       5.786   4.158  13.717  0.00  0.00    +0.000 OA
BRANCH  23  25
ATOM     24  C   UNL     1       4.932   3.004  11.789  0.00  0.00    +0.000 C 
ATOM     25  C   UNL     1       6.156   3.590  12.476  0.00  0.00    +0.000 C 
ENDBRANCH  23  25
ENDBRANCH  22  23
ENDBRANCH  18  22
ENDBRANCH  17  20
ENDBRANCH   1  17
TORSDOF 6
ENDMDL
MODEL 7
REMARK VINA RESULT:      -7.1      1.670      2.132
REMARK  Name = 
REMARK  7 active torsions:
REMARK  status: ('A' for Active; 'I' for Inactive)
REMARK    1  A    between atoms: C_1  and  C_2
REMARK    2  A    between atoms: C_2  and  O_3
REMARK    3  A    between atoms: O_3  and  C_4
REMARK    4  A    between atoms: C_4  and  C_5
REMARK    5  A    between atoms: N_7  and  C_8
REMARK    6  A    between atoms: C_8  and  C_9
REMARK    7  A    between atoms: C_15  and  C_16
REMARK                            x       y       z     vdW  Elec       q    Type
REMARK                         _______ _______ _______ _____ _____    ______ ____
ROOT
ATOM      1  C   UNL     1       3.016   5.199  18.155  0.00  0.00    +0.000 C 
ATOM      2  C   UNL     1       2.065   4.932  19.362  0.00  0.00    +0.000 C 
ATOM      3  N   UNL     1       1.483   3.580  19.324  0.00  0.00    +0.000 NA
ATOM      4  C   UNL     1       2.283   2.483  19.892  0.00  0.00    +0.000 C 
ATOM      5  C   UNL     1       3.789   2.654  19.724  0.00  0.00    +0.000 C 
ATOM      6  O   UNL     1       4.099   2.993  18.385  0.00  0.00    +0.000 OA
ATOM      7  C   UNL     1       4.346   4.387  18.255  0.00  0.00    +0.000 C 
ATOM      8  H   UNL     1       1.185   3.350  18.348  0.00  0.00    +0.000 HD
ENDROOT
BRANCH   7   9
ATOM      9  C   UNL     1       5.212   4.579  17.024  0.00  0.00    +0.000 A 
ATOM     10  C   UNL     1       6.501   5.132  17.135  0.00  0.00    +0.000 A 
ATOM     11  C   UNL     1       7.297   5.303  15.999  0.00  0.00    +0.000 A 
ATOM     12  C   UNL     1       6.816   4.931  14.740  0.00  0.00    +0.000 A 
ATOM     13 CL   UNL     1       7.827   5.153  13.322  0.00  0.00    +0.000 Cl
ATOM     14  C   UNL     1       5.533   4.387  14.618  0.00  0.00    +0.000 A 
ATOM     15  F   UNL     1       5.055   4.027  13.401  0.00  0.00    +0.000 F 
ATOM     16  C   UNL     1       4.735   4.211  15.752  0.00  0.00    +0.000 A 
ENDBRANCH   7   9
BRANCH   1  17
ATOM     17  C   UNL     1       3.314   6.723  18.033  0.00  0.00    +0.000 C 
BRANCH  17  20
ATOM     18  C   UNL     1       1.895   8.678  18.600  0.00  0.00    +0.000 C 
ATOM     19  O   UNL     1       2.053   9.146  17.481  0.00  0.00    +0.000 OA
ATOM     20  N   UNL     1       2.503   7.508  18.953  0.00  0.00    +0.000 N 
ATOM     21  H   UNL     1       2.374   7.151  19.913  0.00  0.00    +0.000 HD
BRANCH  18  22
ATOM     22  C   UNL     1       0.993   9.396  19.565  0.00  0.00    +0.000 C 
BRANCH  22  23
ATOM     23  O   UNL     1       1.203   8.929  20.883  0.00  0.00    +0.000 OA
BRANCH  23  25
ATOM     24  C   UNL     1      -0.181   9.646  22.714  0.00  0.00    +0.000 C 
ATOM     25  C   UNL     1      -0.057   8.739  21.499  0.00  0.00    +0.000 C 
ENDBRANCH  23  25
ENDBRANCH  22  23
ENDBRANCH  18  22
ENDBRANCH  17  20
ENDBRANCH   1  17
TORSDOF 6
ENDMDL
MODEL 8
REMARK VINA RESULT:      -7.1      3.787      6.814
REMARK  Name = 
REMARK  7 active torsions:
REMARK  status: ('A' for Active; 'I' for Inactive)
REMARK    1  A    between atoms: C_1  and  C_2
REMARK    2  A    between atoms: C_2  and  O_3
REMARK    3  A    between atoms: O_3  and  C_4
REMARK    4  A    between atoms: C_4  and  C_5
REMARK    5  A    between atoms: N_7  and  C_8
REMARK    6  A    between atoms: C_8  and  C_9
REMARK    7  A    between atoms: C_15  and  C_16
REMARK                            x       y       z     vdW  Elec       q    Type
REMARK                         _______ _______ _______ _____ _____    ______ ____
ROOT
ATOM      1  C   UNL     1       3.908   4.650  19.575  0.00  0.00    +0.000 C 
ATOM      2  C   UNL     1       4.274   3.144  19.401  0.00  0.00    +0.000 C 
ATOM      3  N   UNL     1       3.254   2.253  19.980  0.00  0.00    +0.000 NA
ATOM      4  C   UNL     1       2.090   1.923  19.143  0.00  0.00    +0.000 C 
ATOM      5  C   UNL     1       1.659   3.043  18.202  0.00  0.00    +0.000 C 
ATOM      6  O   UNL     1       1.564   4.267  18.906  0.00  0.00    +0.000 OA
ATOM      7  C   UNL     1       2.708   5.079  18.674  0.00  0.00    +0.000 C 
ATOM      8  H   UNL     1       2.946   2.624  20.909  0.00  0.00    +0.000 HD
ENDROOT
BRANCH   7   9
ATOM      9  C   UNL     1       2.300   6.517  18.933  0.00  0.00    +0.000 A 
ATOM     10  C   UNL     1       2.328   7.467  17.895  0.00  0.00    +0.000 A 
ATOM     11  C   UNL     1       1.948   8.790  18.136  0.00  0.00    +0.000 A 
ATOM     12  C   UNL     1       1.542   9.183  19.415  0.00  0.00    +0.000 A 
ATOM     13 CL   UNL     1       1.068  10.849  19.704  0.00  0.00    +0.000 Cl
ATOM     14  C   UNL     1       1.517   8.249  20.456  0.00  0.00    +0.000 A 
ATOM     15  F   UNL     1       1.130   8.621  21.701  0.00  0.00    +0.000 F 
ATOM     16  C   UNL     1       1.894   6.924  20.217  0.00  0.00    +0.000 A 
ENDBRANCH   7   9
BRANCH   1  17
ATOM     17  C   UNL     1       5.154   5.542  19.289  0.00  0.00    +0.000 C 
BRANCH  17  20
ATOM     18  C   UNL     1       6.222   5.356  17.058  0.00  0.00    +0.000 C 
ATOM     19  O   UNL     1       5.555   6.291  16.636  0.00  0.00    +0.000 OA
ATOM     20  N   UNL     1       6.062   4.915  18.339  0.00  0.00    +0.000 N 
ATOM     21  H   UNL     1       6.617   4.106  18.659  0.00  0.00    +0.000 HD
BRANCH  18  22
ATOM     22  C   UNL     1       7.243   4.726  16.151  0.00  0.00    +0.000 C 
BRANCH  22  23
ATOM     23  O   UNL     1       7.422   5.507  14.986  0.00  0.00    +0.000 OA
BRANCH  23  25
ATOM     24  C   UNL     1       7.773   5.170  12.632  0.00  0.00    +0.000 C 
ATOM     25  C   UNL     1       6.995   4.750  13.869  0.00  0.00    +0.000 C 
ENDBRANCH  23  25
ENDBRANCH  22  23
ENDBRANCH  18  22
ENDBRANCH  17  20
ENDBRANCH   1  17
TORSDOF 6
ENDMDL
MODEL 9
REMARK VINA RESULT:      -7.1      4.268      6.347
REMARK  Name = 
REMARK  7 active torsions:
REMARK  status: ('A' for Active; 'I' for Inactive)
REMARK    1  A    between atoms: C_1  and  C_2
REMARK    2  A    between atoms: C_2  and  O_3
REMARK    3  A    between atoms: O_3  and  C_4
REMARK    4  A    between atoms: C_4  and  C_5
REMARK    5  A    between atoms: N_7  and  C_8
REMARK    6  A    between atoms: C_8  and  C_9
REMARK    7  A    between atoms: C_15  and  C_16
REMARK                            x       y       z     vdW  Elec       q    Type
REMARK                         _______ _______ _______ _____ _____    ______ ____
ROOT
ATOM      1  C   UNL     1       4.296   5.172  17.787  0.00  0.00    +0.000 C 
ATOM      2  C   UNL     1       4.771   3.821  17.171  0.00  0.00    +0.000 C 
ATOM      3  N   UNL     1       4.531   2.682  18.074  0.00  0.00    +0.000 NA
ATOM      4  C   UNL     1       3.195   2.066  18.045  0.00  0.00    +0.000 C 
ATOM      5  C   UNL     1       2.061   3.043  17.755  0.00  0.00    +0.000 C 
ATOM      6  O   UNL     1       2.177   4.188  18.579  0.00  0.00    +0.000 OA
ATOM      7  C   UNL     1       2.740   5.278  17.862  0.00  0.00    +0.000 C 
ATOM      8  H   UNL     1       4.794   2.945  19.052  0.00  0.00    +0.000 HD
ENDROOT
BRANCH   7   9
ATOM      9  C   UNL     1       2.300   6.553  18.557  0.00  0.00    +0.000 A 
ATOM     10  C   UNL     1       2.086   6.573  19.948  0.00  0.00    +0.000 A 
ATOM     11  C   UNL     1       1.685   7.750  20.585  0.00  0.00    +0.000 A 
ATOM     12  C   UNL     1       1.485   8.919  19.843  0.00  0.00    +0.000 A 
ATOM     13 CL   UNL     1       0.980  10.390  20.657  0.00  0.00    +0.000 Cl
ATOM     14  C   UNL     1       1.688   8.908  18.459  0.00  0.00    +0.000 A 
ATOM     15  F   UNL     1       1.493  10.034  17.730  0.00  0.00    +0.000 F 
ATOM     16  C   UNL     1       2.093   7.733  17.819  0.00  0.00    +0.000 A 
ENDBRANCH   7   9
BRANCH   1  17
ATOM     17  C   UNL     1       4.888   6.367  16.981  0.00  0.00    +0.000 C 
BRANCH  17  20
ATOM     18  C   UNL     1       7.222   7.117  17.359  0.00  0.00    +0.000 C 
ATOM     19  O   UNL     1       7.603   6.504  16.372  0.00  0.00    +0.000 OA
ATOM     20  N   UNL     1       5.912   7.076  17.736  0.00  0.00    +0.000 N 
ATOM     21  H   UNL     1       5.624   7.580  18.590  0.00  0.00    +0.000 HD
BRANCH  18  22
ATOM     22  C   UNL     1       8.217   7.942  18.128  0.00  0.00    +0.000 C 
BRANCH  22  23
ATOM     23  O   UNL     1       8.022   9.319  17.874  0.00  0.00    +0.000 OA
BRANCH  23  25
ATOM     24  C   UNL     1       9.162  11.426  18.079  0.00  0.00    +0.000 C 
ATOM     25  C   UNL     1       8.910  10.057  18.692  0.00  0.00    +0.000 C 
ENDBRANCH  23  25
ENDBRANCH  22  23
ENDBRANCH  18  22
ENDBRANCH  17  20
ENDBRANCH   1  17
TORSDOF 6
ENDMDL
