MODEL 1
REMARK VINA RESULT:      -7.9      0.000      0.000
REMARK  Name = 
REMARK  8 active torsions:
REMARK  status: ('A' for Active; 'I' for Inactive)
REMARK    1  A    between atoms: C_1  and  C_2
REMARK    2  A    between atoms: C_2  and  C_3
REMARK    3  A    between atoms: C_2  and  O_4
REMARK    4  A    between atoms: O_4  and  C_5
REMARK    5  A    between atoms: C_9  and  C_10
REMARK    6  A    between atoms: N_23  and  C_24
REMARK    7  A    between atoms: C_24  and  C_25
REMARK    8  A    between atoms: C_25  and  N_26
REMARK                            x       y       z     vdW  Elec       q    Type
REMARK                         _______ _______ _______ _____ _____    ______ ____
ROOT
ATOM      1  C   UNL     1       5.353   6.246  17.479  0.00  0.00    +0.000 C 
ATOM      2  C   UNL     1       5.418   5.800  16.051  0.00  0.00    +0.000 A 
ATOM      3  N   UNL     1       6.459   6.088  15.196  0.00  0.00    +0.000 N 
ATOM      4  C   UNL     1       6.515   5.134  14.194  0.00  0.00    +0.000 A 
ATOM      5  C   UNL     1       7.535   4.790  13.300  0.00  0.00    +0.000 A 
ATOM      6  C   UNL     1       7.252   3.794  12.354  0.00  0.00    +0.000 A 
ATOM      7  C   UNL     1       5.986   3.214  12.284  0.00  0.00    +0.000 A 
ATOM      8 CL   UNL     1       5.634   2.083  11.033  0.00  0.00    +0.000 Cl
ATOM      9  C   UNL     1       5.019   3.483  13.252  0.00  0.00    +0.000 A 
ATOM     10  C   UNL     1       5.330   4.399  14.273  0.00  0.00    +0.000 A 
ATOM     11  C   UNL     1       4.904   4.587  15.610  0.00  0.00    +0.000 A 
ATOM     12  C   UNL     1       4.463   3.586  16.624  0.00  0.00    +0.000 C 
ATOM     13  C   UNL     1       5.251   3.815  17.986  0.00  0.00    +0.000 C 
ATOM     14  N   UNL     1       5.968   5.102  18.166  0.00  0.00    +0.000 NA
ATOM     15  H   UNL     1       7.217   6.713  15.421  0.00  0.00    +0.000 HD
ENDROOT
BRANCH   1  20
ATOM     16  C   UNL     1       2.141   6.253  19.618  0.00  0.00    +0.000 A 
ATOM     17  C   UNL     1       1.535   7.458  19.301  0.00  0.00    +0.000 A 
ATOM     18  C   UNL     1       2.134   8.285  18.347  0.00  0.00    +0.000 A 
ATOM     19  C   UNL     1       3.352   7.928  17.738  0.00  0.00    +0.000 A 
ATOM     20  C   UNL     1       3.993   6.717  18.039  0.00  0.00    +0.000 A 
ATOM     21  C   UNL     1       3.330   5.885  18.966  0.00  0.00    +0.000 A 
BRANCH  16  22
ATOM     22  O   UNL     1       1.754   5.377  20.587  0.00  0.00    +0.000 OA
BRANCH  22  24
ATOM     23  C   UNL     1       2.109   3.469  21.894  0.00  0.00    +0.000 C 
ATOM     24  C   UNL     1       1.968   3.969  20.453  0.00  0.00    +0.000 C 
ATOM     25  C   UNL     1       0.768   3.290  19.799  0.00  0.00    +0.000 C 
ENDBRANCH  22  24
ENDBRANCH  16  22
ENDBRANCH   1  20
BRANCH  14  26
ATOM     26  C   UNL     1       6.508   5.425  19.477  0.00  0.00    +0.000 C 
BRANCH  26  27
ATOM     27  C   UNL     1       8.036   5.614  19.559  0.00  0.00    +0.000 C 
BRANCH  27  28
ATOM     28  N   UNL     1       8.517   5.185  20.879  0.00  0.00    +0.000 NA
ATOM     29  H   UNL     1       8.622   4.174  20.893  0.00  0.00    +0.000 HD
ATOM     30  H   UNL     1       7.823   5.411  21.588  0.00  0.00    +0.000 HD
ENDBRANCH  27  28
ENDBRANCH  26  27
ENDBRANCH  14  26
TORSDOF 6
ENDMDL
MODEL 2
REMARK VINA RESULT:      -7.8      3.974      7.607
REMARK  Name = 
REMARK  8 active torsions:
REMARK  status: ('A' for Active; 'I' for Inactive)
REMARK    1  A    between atoms: C_1  and  C_2
REMARK    2  A    between atoms: C_2  and  C_3
REMARK    3  A    between atoms: C_2  and  O_4
REMARK    4  A    between atoms: O_4  and  C_5
REMARK    5  A    between atoms: C_9  and  C_10
REMARK    6  A    between atoms: N_23  and  C_24
REMARK    7  A    between atoms: C_24  and  C_25
REMARK    8  A    between atoms: C_25  and  N_26
REMARK                            x       y       z     vdW  Elec       q    Type
REMARK                         _______ _______ _______ _____ _____    ______ ____
ROOT
ATOM      1  C   UNL     1       3.252   6.025  17.684  0.00  0.00    +0.000 C 
ATOM      2  C   UNL     1       2.713   7.232  18.386  0.00  0.00    +0.000 A 
ATOM      3  N   UNL     1       1.874   8.157  17.805  0.00  0.00    +0.000 N 
ATOM      4  C   UNL     1       1.136   8.797  18.787  0.00  0.00    +0.000 A 
ATOM      5  C   UNL     1      -0.039   9.554  18.715  0.00  0.00    +0.000 A 
ATOM      6  C   UNL     1      -0.514  10.119  19.908  0.00  0.00    +0.000 A 
ATOM      7  C   UNL     1       0.194   9.970  21.101  0.00  0.00    +0.000 A 
ATOM      8 CL   UNL     1      -0.350  10.778  22.521  0.00  0.00    +0.000 Cl
ATOM      9  C   UNL     1       1.297   9.120  21.179  0.00  0.00    +0.000 A 
ATOM     10  C   UNL     1       1.716   8.458  20.010  0.00  0.00    +0.000 A 
ATOM     11  C   UNL     1       2.394   7.245  19.739  0.00  0.00    +0.000 A 
ATOM     12  C   UNL     1       2.378   5.952  20.482  0.00  0.00    +0.000 C 
ATOM     13  C   UNL     1       2.088   4.756  19.476  0.00  0.00    +0.000 C 
ATOM     14  N   UNL     1       2.237   5.018  18.023  0.00  0.00    +0.000 NA
ATOM     15  H   UNL     1       1.634   8.164  16.826  0.00  0.00    +0.000 HD
ENDROOT
BRANCH   1  20
ATOM     16  C   UNL     1       6.875   4.926  16.941  0.00  0.00    +0.000 A 
ATOM     17  C   UNL     1       7.492   4.957  18.182  0.00  0.00    +0.000 A 
ATOM     18  C   UNL     1       6.732   5.295  19.305  0.00  0.00    +0.000 A 
ATOM     19  C   UNL     1       5.372   5.636  19.186  0.00  0.00    +0.000 A 
ATOM     20  C   UNL     1       4.719   5.618  17.945  0.00  0.00    +0.000 A 
ATOM     21  C   UNL     1       5.505   5.220  16.842  0.00  0.00    +0.000 A 
BRANCH  16  22
ATOM     22  O   UNL     1       7.478   4.717  15.737  0.00  0.00    +0.000 OA
BRANCH  22  24
ATOM     23  C   UNL     1       7.900   5.403  13.541  0.00  0.00    +0.000 C 
ATOM     24  C   UNL     1       6.795   4.960  14.504  0.00  0.00    +0.000 C 
ATOM     25  C   UNL     1       6.145   3.685  13.974  0.00  0.00    +0.000 C 
ENDBRANCH  22  24
ENDBRANCH  16  22
ENDBRANCH   1  20
BRANCH  14  26
ATOM     26  C   UNL     1       2.193   3.895  17.099  0.00  0.00    +0.000 C 
BRANCH  26  27
ATOM     27  C   UNL     1       2.401   2.497  17.714  0.00  0.00    +0.000 C 
BRANCH  27  28
ATOM     28  N   UNL     1       3.832   2.164  17.713  0.00  0.00    +0.000 NA
ATOM     29  H   UNL     1       4.021   1.466  16.998  0.00  0.00    +0.000 HD
ATOM     30  H   UNL     1       4.087   1.740  18.602  0.00  0.00    +0.000 HD
ENDBRANCH  27  28
ENDBRANCH  26  27
ENDBRANCH  14  26
TORSDOF 6
ENDMDL
MODEL 3
REMARK VINA RESULT:      -7.6      3.261      6.719
REMARK  Name = 
REMARK  8 active torsions:
REMARK  status: ('A' for Active; 'I' for Inactive)
REMARK    1  A    between atoms: C_1  and  C_2
REMARK    2  A    between atoms: C_2  and  C_3
REMARK    3  A    between atoms: C_2  and  O_4
REMARK    4  A    between atoms: O_4  and  C_5
REMARK    5  A    between atoms: C_9  and  C_10
REMARK    6  A    between atoms: N_23  and  C_24
REMARK    7  A    between atoms: C_24  and  C_25
REMARK    8  A    between atoms: C_25  and  N_26
REMARK                            x       y       z     vdW  Elec       q    Type
REMARK                         _______ _______ _______ _____ _____    ______ ____
ROOT
ATOM      1  C   UNL     1       6.761   4.841  17.107  0.00  0.00    +0.000 C 
ATOM      2  C   UNL     1       5.579   4.112  17.669  0.00  0.00    +0.000 A 
ATOM      3  N   UNL     1       5.602   3.383  18.837  0.00  0.00    +0.000 N 
ATOM      4  C   UNL     1       4.323   3.310  19.364  0.00  0.00    +0.000 A 
ATOM      5  C   UNL     1       3.869   2.981  20.646  0.00  0.00    +0.000 A 
ATOM      6  C   UNL     1       2.482   2.949  20.848  0.00  0.00    +0.000 A 
ATOM      7  C   UNL     1       1.600   3.186  19.793  0.00  0.00    +0.000 A 
ATOM      8 CL   UNL     1      -0.096   3.019  20.045  0.00  0.00    +0.000 Cl
ATOM      9  C   UNL     1       2.066   3.624  18.554  0.00  0.00    +0.000 A 
ATOM     10  C   UNL     1       3.454   3.768  18.373  0.00  0.00    +0.000 A 
ATOM     11  C   UNL     1       4.274   4.576  17.549  0.00  0.00    +0.000 A 
ATOM     12  C   UNL     1       4.051   5.958  17.035  0.00  0.00    +0.000 C 
ATOM     13  C   UNL     1       5.327   6.858  17.334  0.00  0.00    +0.000 C 
ATOM     14  N   UNL     1       6.590   6.172  17.705  0.00  0.00    +0.000 NA
ATOM     15  H   UNL     1       6.439   3.184  19.361  0.00  0.00    +0.000 HD
ENDROOT
BRANCH   1  20
ATOM     16  C   UNL     1       6.174   3.966  13.395  0.00  0.00    +0.000 A 
ATOM     17  C   UNL     1       7.130   4.712  12.724  0.00  0.00    +0.000 A 
ATOM     18  C   UNL     1       8.023   5.490  13.466  0.00  0.00    +0.000 A 
ATOM     19  C   UNL     1       7.940   5.551  14.870  0.00  0.00    +0.000 A 
ATOM     20  C   UNL     1       6.983   4.811  15.579  0.00  0.00    +0.000 A 
ATOM     21  C   UNL     1       6.134   3.997  14.799  0.00  0.00    +0.000 A 
BRANCH  16  22
ATOM     22  O   UNL     1       5.169   3.236  12.835  0.00  0.00    +0.000 OA
BRANCH  22  24
ATOM     23  C   UNL     1       5.689   1.607  11.238  0.00  0.00    +0.000 C 
ATOM     24  C   UNL     1       5.104   3.011  11.423  0.00  0.00    +0.000 C 
ATOM     25  C   UNL     1       3.659   3.023  10.931  0.00  0.00    +0.000 C 
ENDBRANCH  22  24
ENDBRANCH  16  22
ENDBRANCH   1  20
BRANCH  14  26
ATOM     26  C   UNL     1       7.817   6.949  17.769  0.00  0.00    +0.000 C 
BRANCH  26  27
ATOM     27  C   UNL     1       7.670   8.474  17.593  0.00  0.00    +0.000 C 
BRANCH  27  28
ATOM     28  N   UNL     1       8.594   9.167  18.500  0.00  0.00    +0.000 NA
ATOM     29  H   UNL     1       8.768  10.110  18.157  0.00  0.00    +0.000 HD
ATOM     30  H   UNL     1       9.494   8.693  18.502  0.00  0.00    +0.000 HD
ENDBRANCH  27  28
ENDBRANCH  26  27
ENDBRANCH  14  26
TORSDOF 6
ENDMDL
MODEL 4
REMARK VINA RESULT:      -7.4      6.186      9.397
REMARK  Name = 
REMARK  8 active torsions:
REMARK  status: ('A' for Active; 'I' for Inactive)
REMARK    1  A    between atoms: C_1  and  C_2
REMARK    2  A    between atoms: C_2  and  C_3
REMARK    3  A    between atoms: C_2  and  O_4
REMARK    4  A    between atoms: O_4  and  C_5
REMARK    5  A    between atoms: C_9  and  C_10
REMARK    6  A    between atoms: N_23  and  C_24
REMARK    7  A    between atoms: C_24  and  C_25
REMARK    8  A    between atoms: C_25  and  N_26
REMARK                            x       y       z     vdW  Elec       q    Type
REMARK                         _______ _______ _______ _____ _____    ______ ____
ROOT
ATOM      1  C   UNL     1       1.042  10.688  18.341  0.00  0.00    +0.000 C 
ATOM      2  C   UNL     1       1.960  11.846  18.591  0.00  0.00    +0.000 A 
ATOM      3  N   UNL     1       2.359  12.741  17.624  0.00  0.00    +0.000 N 
ATOM      4  C   UNL     1       2.711  13.941  18.219  0.00  0.00    +0.000 A 
ATOM      5  C   UNL     1       2.868  15.226  17.687  0.00  0.00    +0.000 A 
ATOM      6  C   UNL     1       3.290  16.237  18.562  0.00  0.00    +0.000 A 
ATOM      7  C   UNL     1       3.590  15.950  19.894  0.00  0.00    +0.000 A 
ATOM      8 CL   UNL     1       4.223  17.188  20.911  0.00  0.00    +0.000 Cl
ATOM      9  C   UNL     1       3.320  14.694  20.436  0.00  0.00    +0.000 A 
ATOM     10  C   UNL     1       2.790  13.701  19.592  0.00  0.00    +0.000 A 
ATOM     11  C   UNL     1       1.973  12.560  19.783  0.00  0.00    +0.000 A 
ATOM     12  C   UNL     1       0.888  12.315  20.776  0.00  0.00    +0.000 C 
ATOM     13  C   UNL     1      -0.413  11.782  20.033  0.00  0.00    +0.000 C 
ATOM     14  N   UNL     1      -0.265  11.288  18.641  0.00  0.00    +0.000 NA
ATOM     15  H   UNL     1       2.159  12.637  16.642  0.00  0.00    +0.000 HD
ENDROOT
BRANCH   1  20
ATOM     16  C   UNL     1       2.407   7.116  18.852  0.00  0.00    +0.000 A 
ATOM     17  C   UNL     1       2.123   6.839  20.180  0.00  0.00    +0.000 A 
ATOM     18  C   UNL     1       1.439   7.794  20.937  0.00  0.00    +0.000 A 
ATOM     19  C   UNL     1       1.071   9.034  20.381  0.00  0.00    +0.000 A 
ATOM     20  C   UNL     1       1.346   9.346  19.042  0.00  0.00    +0.000 A 
ATOM     21  C   UNL     1       1.990   8.337  18.295  0.00  0.00    +0.000 A 
BRANCH  16  22
ATOM     22  O   UNL     1       3.147   6.350  18.001  0.00  0.00    +0.000 OA
BRANCH  22  24
ATOM     23  C   UNL     1       1.778   4.479  17.687  0.00  0.00    +0.000 C 
ATOM     24  C   UNL     1       3.180   4.924  18.113  0.00  0.00    +0.000 C 
ATOM     25  C   UNL     1       4.211   4.323  17.161  0.00  0.00    +0.000 C 
ENDBRANCH  22  24
ENDBRANCH  16  22
ENDBRANCH   1  20
BRANCH  14  26
ATOM     26  C   UNL     1      -1.384  10.597  18.020  0.00  0.00    +0.000 C 
BRANCH  26  27
ATOM     27  C   UNL     1      -2.506  11.488  17.450  0.00  0.00    +0.000 C 
BRANCH  27  28
ATOM     28  N   UNL     1      -2.466  11.456  15.982  0.00  0.00    +0.000 NA
ATOM     29  H   UNL     1      -3.206  12.043  15.606  0.00  0.00    +0.000 HD
ATOM     30  H   UNL     1      -2.654  10.512  15.654  0.00  0.00    +0.000 HD
ENDBRANCH  27  28
ENDBRANCH  26  27
ENDBRANCH  14  26
TORSDOF 6
ENDMDL
MODEL 5
REMARK VINA RESULT:      -7.3      2.618      4.912
REMARK  Name = 
REMARK  8 active torsions:
REMARK  status: ('A' for Active; 'I' for Inactive)
REMARK    1  A    between atoms: C_1  and  C_2
REMARK    2  A    between atoms: C_2  and  C_3
REMARK    3  A    between atoms: C_2  and  O_4
REMARK    4  A    between atoms: O_4  and  C_5
REMARK    5  A    between atoms: C_9  and  C_10
REMARK    6  A    between atoms: N_23  and  C_24
REMARK    7  A    between atoms: C_24  and  C_25
REMARK    8  A    between atoms: C_25  and  N_26
REMARK                            x       y       z     vdW  Elec       q    Type
REMARK                         _______ _______ _______ _____ _____    ______ ____
ROOT
ATOM      1  C   UNL     1       2.821   5.917  20.322  0.00  0.00    +0.000 C 
ATOM      2  C   UNL     1       3.864   5.990  19.250  0.00  0.00    +0.000 A 
ATOM      3  N   UNL     1       5.166   5.567  19.405  0.00  0.00    +0.000 N 
ATOM      4  C   UNL     1       5.701   5.247  18.169  0.00  0.00    +0.000 A 
ATOM      5  C   UNL     1       6.825   4.492  17.816  0.00  0.00    +0.000 A 
ATOM      6  C   UNL     1       7.132   4.396  16.450  0.00  0.00    +0.000 A 
ATOM      7  C   UNL     1       6.371   5.073  15.498  0.00  0.00    +0.000 A 
ATOM      8 CL   UNL     1       6.846   5.035  13.842  0.00  0.00    +0.000 Cl
ATOM      9  C   UNL     1       5.190   5.725  15.854  0.00  0.00    +0.000 A 
ATOM     10  C   UNL     1       4.812   5.732  17.209  0.00  0.00    +0.000 A 
ATOM     11  C   UNL     1       3.580   5.819  17.900  0.00  0.00    +0.000 A 
ATOM     12  C   UNL     1       2.227   5.327  17.512  0.00  0.00    +0.000 C 
ATOM     13  C   UNL     1       1.597   4.483  18.703  0.00  0.00    +0.000 C 
ATOM     14  N   UNL     1       2.216   4.607  20.046  0.00  0.00    +0.000 NA
ATOM     15  H   UNL     1       5.562   5.272  20.284  0.00  0.00    +0.000 HD
ENDROOT
BRANCH   1  20
ATOM     16  C   UNL     1       1.133   9.314  19.611  0.00  0.00    +0.000 A 
ATOM     17  C   UNL     1       0.052   9.334  20.478  0.00  0.00    +0.000 A 
ATOM     18  C   UNL     1      -0.133   8.259  21.352  0.00  0.00    +0.000 A 
ATOM     19  C   UNL     1       0.735   7.151  21.336  0.00  0.00    +0.000 A 
ATOM     20  C   UNL     1       1.836   7.098  20.468  0.00  0.00    +0.000 A 
ATOM     21  C   UNL     1       2.021   8.225  19.640  0.00  0.00    +0.000 A 
BRANCH  16  22
ATOM     22  O   UNL     1       1.408  10.220  18.632  0.00  0.00    +0.000 OA
BRANCH  22  24
ATOM     23  C   UNL     1       2.555  12.153  17.982  0.00  0.00    +0.000 C 
ATOM     24  C   UNL     1       1.449  11.625  18.901  0.00  0.00    +0.000 C 
ATOM     25  C   UNL     1       0.127  12.293  18.534  0.00  0.00    +0.000 C 
ENDBRANCH  22  24
ENDBRANCH  16  22
ENDBRANCH   1  20
BRANCH  14  26
ATOM     26  C   UNL     1       1.533   4.024  21.190  0.00  0.00    +0.000 C 
BRANCH  26  27
ATOM     27  C   UNL     1       2.000   2.620  21.622  0.00  0.00    +0.000 C 
BRANCH  27  28
ATOM     28  N   UNL     1       3.423   2.451  21.298  0.00  0.00    +0.000 NA
ATOM     29  H   UNL     1       3.989   2.989  21.950  0.00  0.00    +0.000 HD
ATOM     30  H   UNL     1       3.613   2.833  20.373  0.00  0.00    +0.000 HD
ENDBRANCH  27  28
ENDBRANCH  26  27
ENDBRANCH  14  26
TORSDOF 6
ENDMDL
MODEL 6
REMARK VINA RESULT:      -7.3      2.744      4.283
REMARK  Name = 
REMARK  8 active torsions:
REMARK  status: ('A' for Active; 'I' for Inactive)
REMARK    1  A    between atoms: C_1  and  C_2
REMARK    2  A    between atoms: C_2  and  C_3
REMARK    3  A    between atoms: C_2  and  O_4
REMARK    4  A    between atoms: O_4  and  C_5
REMARK    5  A    between atoms: C_9  and  C_10
REMARK    6  A    between atoms: N_23  and  C_24
REMARK    7  A    between atoms: C_24  and  C_25
REMARK    8  A    between atoms: C_25  and  N_26
REMARK                            x       y       z     vdW  Elec       q    Type
REMARK                         _______ _______ _______ _____ _____    ______ ____
ROOT
ATOM      1  C   UNL     1       3.272   6.561  19.404  0.00  0.00    +0.000 C 
ATOM      2  C   UNL     1       4.201   6.305  18.257  0.00  0.00    +0.000 A 
ATOM      3  N   UNL     1       5.541   6.018  18.394  0.00  0.00    +0.000 N 
ATOM      4  C   UNL     1       5.982   5.316  17.285  0.00  0.00    +0.000 A 
ATOM      5  C   UNL     1       7.125   4.535  17.079  0.00  0.00    +0.000 A 
ATOM      6  C   UNL     1       7.309   3.989  15.801  0.00  0.00    +0.000 A 
ATOM      7  C   UNL     1       6.410   4.264  14.770  0.00  0.00    +0.000 A 
ATOM      8 CL   UNL     1       6.729   3.680  13.181  0.00  0.00    +0.000 Cl
ATOM      9  C   UNL     1       5.220   4.947  15.020  0.00  0.00    +0.000 A 
ATOM     10  C   UNL     1       4.971   5.403  16.327  0.00  0.00    +0.000 A 
ATOM     11  C   UNL     1       3.806   5.669  17.086  0.00  0.00    +0.000 A 
ATOM     12  C   UNL     1       2.466   5.015  17.045  0.00  0.00    +0.000 C 
ATOM     13  C   UNL     1       2.020   4.606  18.516  0.00  0.00    +0.000 C 
ATOM     14  N   UNL     1       2.751   5.210  19.657  0.00  0.00    +0.000 NA
ATOM     15  H   UNL     1       6.040   6.061  19.269  0.00  0.00    +0.000 HD
ENDROOT
BRANCH   1  20
ATOM     16  C   UNL     1       0.717   9.265  20.428  0.00  0.00    +0.000 A 
ATOM     17  C   UNL     1       0.334   9.832  19.223  0.00  0.00    +0.000 A 
ATOM     18  C   UNL     1       0.866   9.319  18.036  0.00  0.00    +0.000 A 
ATOM     19  C   UNL     1       1.803   8.269  18.054  0.00  0.00    +0.000 A 
ATOM     20  C   UNL     1       2.214   7.676  19.256  0.00  0.00    +0.000 A 
ATOM     21  C   UNL     1       1.615   8.184  20.429  0.00  0.00    +0.000 A 
BRANCH  16  22
ATOM     22  O   UNL     1       0.380   9.697  21.675  0.00  0.00    +0.000 OA
BRANCH  22  24
ATOM     23  C   UNL     1      -1.102  10.474  23.310  0.00  0.00    +0.000 C 
ATOM     24  C   UNL     1      -0.619  10.702  21.875  0.00  0.00    +0.000 C 
ATOM     25  C   UNL     1      -0.021  12.102  21.761  0.00  0.00    +0.000 C 
ENDBRANCH  22  24
ENDBRANCH  16  22
ENDBRANCH   1  20
BRANCH  14  26
ATOM     26  C   UNL     1       2.227   5.026  21.002  0.00  0.00    +0.000 C 
BRANCH  26  27
ATOM     27  C   UNL     1       1.567   3.665  21.297  0.00  0.00    +0.000 C 
BRANCH  27  28
ATOM     28  N   UNL     1       2.510   2.806  22.024  0.00  0.00    +0.000 NA
ATOM     29  H   UNL     1       2.464   3.012  23.020  0.00  0.00    +0.000 HD
ATOM     30  H   UNL     1       3.462   3.016  21.732  0.00  0.00    +0.000 HD
ENDBRANCH  27  28
ENDBRANCH  26  27
ENDBRANCH  14  26
TORSDOF 6
ENDMDL
MODEL 7
REMARK VINA RESULT:      -7.1      6.452      9.574
REMARK  Name = 
REMARK  8 active torsions:
REMARK  status: ('A' for Active; 'I' for Inactive)
REMARK    1  A    between atoms: C_1  and  C_2
REMARK    2  A    between atoms: C_2  and  C_3
REMARK    3  A    between atoms: C_2  and  O_4
REMARK    4  A    between atoms: O_4  and  C_5
REMARK    5  A    between atoms: C_9  and  C_10
REMARK    6  A    between atoms: N_23  and  C_24
REMARK    7  A    between atoms: C_24  and  C_25
REMARK    8  A    between atoms: C_25  and  N_26
REMARK                            x       y       z     vdW  Elec       q    Type
REMARK                         _______ _______ _______ _____ _____    ______ ____
ROOT
ATOM      1  C   UNL     1       0.754  11.453  18.765  0.00  0.00    +0.000 C 
ATOM      2  C   UNL     1       1.887  12.432  18.768  0.00  0.00    +0.000 A 
ATOM      3  N   UNL     1       2.299  13.144  17.664  0.00  0.00    +0.000 N 
ATOM      4  C   UNL     1       2.937  14.304  18.070  0.00  0.00    +0.000 A 
ATOM      5  C   UNL     1       3.242  15.483  17.379  0.00  0.00    +0.000 A 
ATOM      6  C   UNL     1       3.954  16.470  18.075  0.00  0.00    +0.000 A 
ATOM      7  C   UNL     1       4.382  16.253  19.385  0.00  0.00    +0.000 A 
ATOM      8 CL   UNL     1       5.361  17.434  20.169  0.00  0.00    +0.000 Cl
ATOM      9  C   UNL     1       3.974  15.124  20.095  0.00  0.00    +0.000 A 
ATOM     10  C   UNL     1       3.163  14.178  19.442  0.00  0.00    +0.000 A 
ATOM     11  C   UNL     1       2.193  13.236  19.860  0.00  0.00    +0.000 A 
ATOM     12  C   UNL     1       1.232  13.293  20.998  0.00  0.00    +0.000 C 
ATOM     13  C   UNL     1      -0.234  12.952  20.484  0.00  0.00    +0.000 C 
ATOM     14  N   UNL     1      -0.372  12.315  19.151  0.00  0.00    +0.000 NA
ATOM     15  H   UNL     1       1.947  12.992  16.731  0.00  0.00    +0.000 HD
ENDROOT
BRANCH   1  20
ATOM     16  C   UNL     1       1.878   7.866  19.637  0.00  0.00    +0.000 A 
ATOM     17  C   UNL     1       1.433   7.686  20.937  0.00  0.00    +0.000 A 
ATOM     18  C   UNL     1       0.715   8.715  21.553  0.00  0.00    +0.000 A 
ATOM     19  C   UNL     1       0.472   9.931  20.888  0.00  0.00    +0.000 A 
ATOM     20  C   UNL     1       0.912  10.146  19.574  0.00  0.00    +0.000 A 
ATOM     21  C   UNL     1       1.586   9.066  18.966  0.00  0.00    +0.000 A 
BRANCH  16  22
ATOM     22  O   UNL     1       2.671   7.019  18.924  0.00  0.00    +0.000 OA
BRANCH  22  24
ATOM     23  C   UNL     1       2.135   4.910  18.063  0.00  0.00    +0.000 C 
ATOM     24  C   UNL     1       2.772   5.630  19.255  0.00  0.00    +0.000 C 
ATOM     25  C   UNL     1       4.232   5.201  19.381  0.00  0.00    +0.000 C 
ENDBRANCH  22  24
ENDBRANCH  16  22
ENDBRANCH   1  20
BRANCH  14  26
ATOM     26  C   UNL     1      -1.671  11.796  18.753  0.00  0.00    +0.000 C 
BRANCH  26  27
ATOM     27  C   UNL     1      -1.693  10.894  17.503  0.00  0.00    +0.000 C 
BRANCH  27  28
ATOM     28  N   UNL     1      -2.210  11.653  16.356  0.00  0.00    +0.000 NA
ATOM     29  H   UNL     1      -2.827  12.393  16.684  0.00  0.00    +0.000 HD
ATOM     30  H   UNL     1      -2.779  11.045  15.771  0.00  0.00    +0.000 HD
ENDBRANCH  27  28
ENDBRANCH  26  27
ENDBRANCH  14  26
TORSDOF 6
ENDMDL
MODEL 8
REMARK VINA RESULT:      -7.1      0.885      1.147
REMARK  Name = 
REMARK  8 active torsions:
REMARK  status: ('A' for Active; 'I' for Inactive)
REMARK    1  A    between atoms: C_1  and  C_2
REMARK    2  A    between atoms: C_2  and  C_3
REMARK    3  A    between atoms: C_2  and  O_4
REMARK    4  A    between atoms: O_4  and  C_5
REMARK    5  A    between atoms: C_9  and  C_10
REMARK    6  A    between atoms: N_23  and  C_24
REMARK    7  A    between atoms: C_24  and  C_25
REMARK    8  A    between atoms: C_25  and  N_26
REMARK                            x       y       z     vdW  Elec       q    Type
REMARK                         _______ _______ _______ _____ _____    ______ ____
ROOT
ATOM      1  C   UNL     1       5.782   6.358  16.746  0.00  0.00    +0.000 C 
ATOM      2  C   UNL     1       5.714   5.693  15.406  0.00  0.00    +0.000 A 
ATOM      3  N   UNL     1       6.422   6.105  14.299  0.00  0.00    +0.000 N 
ATOM      4  C   UNL     1       6.590   5.039  13.431  0.00  0.00    +0.000 A 
ATOM      5  C   UNL     1       7.475   4.845  12.365  0.00  0.00    +0.000 A 
ATOM      6  C   UNL     1       7.354   3.651  11.638  0.00  0.00    +0.000 A 
ATOM      7  C   UNL     1       6.353   2.728  11.941  0.00  0.00    +0.000 A 
ATOM      8 CL   UNL     1       6.153   1.332  10.952  0.00  0.00    +0.000 Cl
ATOM      9  C   UNL     1       5.555   2.882  13.074  0.00  0.00    +0.000 A 
ATOM     10  C   UNL     1       5.744   4.022  13.877  0.00  0.00    +0.000 A 
ATOM     11  C   UNL     1       5.544   4.323  15.246  0.00  0.00    +0.000 A 
ATOM     12  C   UNL     1       5.652   3.444  16.445  0.00  0.00    +0.000 C 
ATOM     13  C   UNL     1       6.569   4.140  17.543  0.00  0.00    +0.000 C 
ATOM     14  N   UNL     1       6.853   5.589  17.394  0.00  0.00    +0.000 NA
ATOM     15  H   UNL     1       6.966   6.953  14.261  0.00  0.00    +0.000 HD
ENDROOT
BRANCH   1  20
ATOM     16  C   UNL     1       2.985   5.525  19.269  0.00  0.00    +0.000 A 
ATOM     17  C   UNL     1       2.172   6.647  19.245  0.00  0.00    +0.000 A 
ATOM     18  C   UNL     1       2.489   7.692  18.372  0.00  0.00    +0.000 A 
ATOM     19  C   UNL     1       3.632   7.633  17.553  0.00  0.00    +0.000 A 
ATOM     20  C   UNL     1       4.476   6.513  17.556  0.00  0.00    +0.000 A 
ATOM     21  C   UNL     1       4.095   5.457  18.410  0.00  0.00    +0.000 A 
BRANCH  16  22
ATOM     22  O   UNL     1       2.885   4.466  20.120  0.00  0.00    +0.000 OA
BRANCH  22  24
ATOM     23  C   UNL     1       1.128   3.144  19.319  0.00  0.00    +0.000 C 
ATOM     24  C   UNL     1       1.614   3.949  20.528  0.00  0.00    +0.000 C 
ATOM     25  C   UNL     1       1.760   3.018  21.729  0.00  0.00    +0.000 C 
ENDBRANCH  22  24
ENDBRANCH  16  22
ENDBRANCH   1  20
BRANCH  14  26
ATOM     26  C   UNL     1       7.500   6.292  18.491  0.00  0.00    +0.000 C 
BRANCH  26  27
ATOM     27  C   UNL     1       7.371   5.649  19.886  0.00  0.00    +0.000 C 
BRANCH  27  28
ATOM     28  N   UNL     1       8.686   5.171  20.333  0.00  0.00    +0.000 NA
ATOM     29  H   UNL     1       8.660   4.982  21.332  0.00  0.00    +0.000 HD
ATOM     30  H   UNL     1       9.381   5.902  20.198  0.00  0.00    +0.000 HD
ENDBRANCH  27  28
ENDBRANCH  26  27
ENDBRANCH  14  26
TORSDOF 6
ENDMDL
MODEL 9
REMARK VINA RESULT:      -7.1      5.992      9.370
REMARK  Name = 
REMARK  8 active torsions:
REMARK  status: ('A' for Active; 'I' for Inactive)
REMARK    1  A    between atoms: C_1  and  C_2
REMARK    2  A    between atoms: C_2  and  C_3
REMARK    3  A    between atoms: C_2  and  O_4
REMARK    4  A    between atoms: O_4  and  C_5
REMARK    5  A    between atoms: C_9  and  C_10
REMARK    6  A    between atoms: N_23  and  C_24
REMARK    7  A    between atoms: C_24  and  C_25
REMARK    8  A    between atoms: C_25  and  N_26
REMARK                            x       y       z     vdW  Elec       q    Type
REMARK                         _______ _______ _______ _____ _____    ______ ____
ROOT
ATOM      1  C   UNL     1       1.102  10.252  18.250  0.00  0.00    +0.000 C 
ATOM      2  C   UNL     1       1.870  11.479  18.633  0.00  0.00    +0.000 A 
ATOM      3  N   UNL     1       2.207  12.487  17.757  0.00  0.00    +0.000 N 
ATOM      4  C   UNL     1       2.395  13.668  18.456  0.00  0.00    +0.000 A 
ATOM      5  C   UNL     1       2.427  15.000  18.029  0.00  0.00    +0.000 A 
ATOM      6  C   UNL     1       2.694  15.979  18.998  0.00  0.00    +0.000 A 
ATOM      7  C   UNL     1       2.967  15.622  20.319  0.00  0.00    +0.000 A 
ATOM      8 CL   UNL     1       3.412  16.837  21.456  0.00  0.00    +0.000 Cl
ATOM      9  C   UNL     1       2.818  14.304  20.751  0.00  0.00    +0.000 A 
ATOM     10  C   UNL     1       2.441  13.329  19.809  0.00  0.00    +0.000 A 
ATOM     11  C   UNL     1       1.752  12.094  19.873  0.00  0.00    +0.000 A 
ATOM     12  C   UNL     1       0.659  11.654  20.788  0.00  0.00    +0.000 C 
ATOM     13  C   UNL     1      -0.539  11.041  19.941  0.00  0.00    +0.000 C 
ATOM     14  N   UNL     1      -0.277  10.679  18.526  0.00  0.00    +0.000 NA
ATOM     15  H   UNL     1       2.062  12.440  16.760  0.00  0.00    +0.000 HD
ENDROOT
BRANCH   1  20
ATOM     16  C   UNL     1       2.756   6.777  18.524  0.00  0.00    +0.000 A 
ATOM     17  C   UNL     1       2.523   6.401  19.838  0.00  0.00    +0.000 A 
ATOM     18  C   UNL     1       1.781   7.253  20.661  0.00  0.00    +0.000 A 
ATOM     19  C   UNL     1       1.304   8.489  20.187  0.00  0.00    +0.000 A 
ATOM     20  C   UNL     1       1.526   8.900  18.865  0.00  0.00    +0.000 A 
ATOM     21  C   UNL     1       2.232   7.991  18.049  0.00  0.00    +0.000 A 
BRANCH  16  22
ATOM     22  O   UNL     1       3.536   6.125  17.618  0.00  0.00    +0.000 OA
BRANCH  22  24
ATOM     23  C   UNL     1       5.766   5.697  18.183  0.00  0.00    +0.000 C 
ATOM     24  C   UNL     1       4.860   6.571  17.310  0.00  0.00    +0.000 C 
ATOM     25  C   UNL     1       5.193   6.330  15.840  0.00  0.00    +0.000 C 
ENDBRANCH  22  24
ENDBRANCH  16  22
ENDBRANCH   1  20
BRANCH  14  26
ATOM     26  C   UNL     1      -1.283   9.920  17.799  0.00  0.00    +0.000 C 
BRANCH  26  27
ATOM     27  C   UNL     1      -2.274  10.740  16.950  0.00  0.00    +0.000 C 
BRANCH  27  28
ATOM     28  N   UNL     1      -1.803  12.128  16.841  0.00  0.00    +0.000 NA
ATOM     29  H   UNL     1      -1.187  12.342  17.622  0.00  0.00    +0.000 HD
ATOM     30  H   UNL     1      -2.592  12.765  16.916  0.00  0.00    +0.000 HD
ENDBRANCH  27  28
ENDBRANCH  26  27
ENDBRANCH  14  26
TORSDOF 6
ENDMDL
