MODEL 1
REMARK VINA RESULT:      -8.2      0.000      0.000
REMARK  Name = 
REMARK  8 active torsions:
REMARK  status: ('A' for Active; 'I' for Inactive)
REMARK    1  A    between atoms: C_1  and  C_2
REMARK    2  A    between atoms: C_2  and  C_3
REMARK    3  A    between atoms: C_2  and  C_4
REMARK    4  A    between atoms: C_4  and  C_5
REMARK    5  A    between atoms: C_11  and  C_12
REMARK    6  A    between atoms: N_18  and  C_19
REMARK    7  A    between atoms: C_19  and  C_20
REMARK    8  A    between atoms: C_23  and  C_24
REMARK                            x       y       z     vdW  Elec       q    Type
REMARK                         _______ _______ _______ _____ _____    ______ ____
ROOT
ATOM      1  C   UNL     1       2.389   5.309  20.091  0.00  0.00    +0.000 C 
ATOM      2  C   UNL     1       2.090   6.622  20.896  0.00  0.00    +0.000 C 
ATOM      3  N   UNL     1       1.657   7.471  19.809  0.00  0.00    +0.000 N 
ATOM      4  C   UNL     1       2.277   7.136  18.636  0.00  0.00    +0.000 C 
ATOM      5  N   UNL     1       2.283   8.013  17.682  0.00  0.00    +0.000 NA
ATOM      6  C   UNL     1       1.488   9.138  18.302  0.00  0.00    +0.000 C 
ATOM      7  C   UNL     1       1.551   8.907  19.835  0.00  0.00    +0.000 C 
ATOM      8  N   UNL     1       2.851   5.899  18.811  0.00  0.00    +0.000 N 
ENDROOT
BRANCH   7   9
ATOM      9  C   UNL     1       0.391   9.417  20.707  0.00  0.00    +0.000 C 
ATOM     10  C   UNL     1      -0.127  10.818  20.332  0.00  0.00    +0.000 C 
ATOM     11  C   UNL     1      -1.218  11.309  21.286  0.00  0.00    +0.000 C 
ATOM     12  C   UNL     1      -0.755  11.254  22.736  0.00  0.00    +0.000 C 
ATOM     13  C   UNL     1      -0.336   9.840  23.115  0.00  0.00    +0.000 C 
ATOM     14  C   UNL     1       0.770   9.328  22.195  0.00  0.00    +0.000 C 
ENDBRANCH   7   9
BRANCH   1  15
ATOM     15  C   UNL     1       1.051   4.529  19.954  0.00  0.00    +0.000 C 
BRANCH  15  17
ATOM     16  C   UNL     1       1.461   2.154  19.178  0.00  0.00    +0.000 C 
ATOM     17  C   UNL     1       1.069   3.045  20.350  0.00  0.00    +0.000 C 
ATOM     18  C   UNL     1       2.039   2.806  21.517  0.00  0.00    +0.000 C 
ENDBRANCH  15  17
ENDBRANCH   1  15
BRANCH   8  19
ATOM     19  C   UNL     1       3.631   5.148  17.830  0.00  0.00    +0.000 C 
BRANCH  19  20
ATOM     20  C   UNL     1       5.142   5.526  17.740  0.00  0.00    +0.000 C 
ATOM     21  C   UNL     1       6.112   4.371  17.443  0.00  0.00    +0.000 C 
ATOM     22  C   UNL     1       5.976   3.787  16.035  0.00  0.00    +0.000 C 
ATOM     23  C   UNL     1       5.937   4.809  14.884  0.00  0.00    +0.000 C 
ATOM     24  C   UNL     1       7.325   5.088  14.290  0.00  0.00    +0.000 C 
ATOM     25  C   UNL     1       5.196   6.110  15.234  0.00  0.00    +0.000 C 
ATOM     26  C   UNL     1       5.398   6.606  16.668  0.00  0.00    +0.000 C 
ENDBRANCH  19  20
ENDBRANCH   8  19
TORSDOF 5
ENDMDL
MODEL 2
REMARK VINA RESULT:      -7.8      1.364      2.142
REMARK  Name = 
REMARK  8 active torsions:
REMARK  status: ('A' for Active; 'I' for Inactive)
REMARK    1  A    between atoms: C_1  and  C_2
REMARK    2  A    between atoms: C_2  and  C_3
REMARK    3  A    between atoms: C_2  and  C_4
REMARK    4  A    between atoms: C_4  and  C_5
REMARK    5  A    between atoms: C_11  and  C_12
REMARK    6  A    between atoms: N_18  and  C_19
REMARK    7  A    between atoms: C_19  and  C_20
REMARK    8  A    between atoms: C_23  and  C_24
REMARK                            x       y       z     vdW  Elec       q    Type
REMARK                         _______ _______ _______ _____ _____    ______ ____
ROOT
ATOM      1  C   UNL     1       2.019   6.108  20.683  0.00  0.00    +0.000 C 
ATOM      2  C   UNL     1       1.294   7.483  20.892  0.00  0.00    +0.000 C 
ATOM      3  N   UNL     1       1.429   8.026  19.560  0.00  0.00    +0.000 N 
ATOM      4  C   UNL     1       2.571   7.580  18.952  0.00  0.00    +0.000 C 
ATOM      5  N   UNL     1       3.017   8.247  17.935  0.00  0.00    +0.000 NA
ATOM      6  C   UNL     1       1.966   9.324  17.797  0.00  0.00    +0.000 C 
ATOM      7  C   UNL     1       1.258   9.403  19.176  0.00  0.00    +0.000 C 
ATOM      8  N   UNL     1       3.035   6.510  19.681  0.00  0.00    +0.000 N 
ENDROOT
BRANCH   7   9
ATOM      9  C   UNL     1      -0.206   9.873  19.228  0.00  0.00    +0.000 C 
ATOM     10  C   UNL     1      -0.918   9.913  17.862  0.00  0.00    +0.000 C 
ATOM     11  C   UNL     1      -2.339  10.470  17.963  0.00  0.00    +0.000 C 
ATOM     12  C   UNL     1      -2.355  11.834  18.641  0.00  0.00    +0.000 C 
ATOM     13  C   UNL     1      -1.733  11.753  20.028  0.00  0.00    +0.000 C 
ATOM     14  C   UNL     1      -0.303  11.222  19.961  0.00  0.00    +0.000 C 
ENDBRANCH   7   9
BRANCH   1  15
ATOM     15  C   UNL     1       0.971   5.107  20.119  0.00  0.00    +0.000 C 
BRANCH  15  17
ATOM     16  C   UNL     1       1.195   2.670  19.470  0.00  0.00    +0.000 C 
ATOM     17  C   UNL     1       1.055   3.657  20.621  0.00  0.00    +0.000 C 
ATOM     18  C   UNL     1       2.237   3.485  21.586  0.00  0.00    +0.000 C 
ENDBRANCH  15  17
ENDBRANCH   1  15
BRANCH   8  19
ATOM     19  C   UNL     1       4.238   5.724  19.414  0.00  0.00    +0.000 C 
BRANCH  19  20
ATOM     20  C   UNL     1       4.078   4.585  18.359  0.00  0.00    +0.000 C 
ATOM     21  C   UNL     1       3.780   5.034  16.920  0.00  0.00    +0.000 C 
ATOM     22  C   UNL     1       4.940   5.764  16.240  0.00  0.00    +0.000 C 
ATOM     23  C   UNL     1       6.318   5.087  16.351  0.00  0.00    +0.000 C 
ATOM     24  C   UNL     1       6.623   4.161  15.166  0.00  0.00    +0.000 C 
ATOM     25  C   UNL     1       6.557   4.384  17.699  0.00  0.00    +0.000 C 
ATOM     26  C   UNL     1       5.331   3.688  18.293  0.00  0.00    +0.000 C 
ENDBRANCH  19  20
ENDBRANCH   8  19
TORSDOF 5
ENDMDL
MODEL 3
REMARK VINA RESULT:      -7.6      0.893      1.071
REMARK  Name = 
REMARK  8 active torsions:
REMARK  status: ('A' for Active; 'I' for Inactive)
REMARK    1  A    between atoms: C_1  and  C_2
REMARK    2  A    between atoms: C_2  and  C_3
REMARK    3  A    between atoms: C_2  and  C_4
REMARK    4  A    between atoms: C_4  and  C_5
REMARK    5  A    between atoms: C_11  and  C_12
REMARK    6  A    between atoms: N_18  and  C_19
REMARK    7  A    between atoms: C_19  and  C_20
REMARK    8  A    between atoms: C_23  and  C_24
REMARK                            x       y       z     vdW  Elec       q    Type
REMARK                         _______ _______ _______ _____ _____    ______ ____
ROOT
ATOM      1  C   UNL     1       2.451   5.899  20.061  0.00  0.00    +0.000 C 
ATOM      2  C   UNL     1       1.955   7.257  20.668  0.00  0.00    +0.000 C 
ATOM      3  N   UNL     1       1.713   7.989  19.446  0.00  0.00    +0.000 N 
ATOM      4  C   UNL     1       2.562   7.589  18.449  0.00  0.00    +0.000 C 
ATOM      5  N   UNL     1       2.724   8.382  17.437  0.00  0.00    +0.000 NA
ATOM      6  C   UNL     1       1.786   9.512  17.787  0.00  0.00    +0.000 C 
ATOM      7  C   UNL     1       1.556   9.414  19.318  0.00  0.00    +0.000 C 
ATOM      8  N   UNL     1       3.133   6.402  18.844  0.00  0.00    +0.000 N 
ENDROOT
BRANCH   7   9
ATOM      9  C   UNL     1       0.231   9.935  19.901  0.00  0.00    +0.000 C 
ATOM     10  C   UNL     1      -0.558  10.873  18.967  0.00  0.00    +0.000 C 
ATOM     11  C   UNL     1      -1.820  11.428  19.631  0.00  0.00    +0.000 C 
ATOM     12  C   UNL     1      -1.499  12.103  20.959  0.00  0.00    +0.000 C 
ATOM     13  C   UNL     1      -0.803  11.131  21.903  0.00  0.00    +0.000 C 
ATOM     14  C   UNL     1       0.474  10.575  21.278  0.00  0.00    +0.000 C 
ENDBRANCH   7   9
BRANCH   1  15
ATOM     15  C   UNL     1       1.192   5.042  19.743  0.00  0.00    +0.000 C 
BRANCH  15  17
ATOM     16  C   UNL     1       0.891   2.549  19.416  0.00  0.00    +0.000 C 
ATOM     17  C   UNL     1       1.095   3.670  20.427  0.00  0.00    +0.000 C 
ATOM     18  C   UNL     1       2.358   3.385  21.253  0.00  0.00    +0.000 C 
ENDBRANCH  15  17
ENDBRANCH   1  15
BRANCH   8  19
ATOM     19  C   UNL     1       4.115   5.613  18.105  0.00  0.00    +0.000 C 
BRANCH  19  20
ATOM     20  C   UNL     1       5.259   6.427  17.425  0.00  0.00    +0.000 C 
ATOM     21  C   UNL     1       6.681   5.868  17.597  0.00  0.00    +0.000 C 
ATOM     22  C   UNL     1       6.925   4.547  16.865  0.00  0.00    +0.000 C 
ATOM     23  C   UNL     1       6.467   4.497  15.396  0.00  0.00    +0.000 C 
ATOM     24  C   UNL     1       7.581   4.882  14.413  0.00  0.00    +0.000 C 
ATOM     25  C   UNL     1       5.172   5.281  15.123  0.00  0.00    +0.000 C 
ATOM     26  C   UNL     1       5.026   6.586  15.908  0.00  0.00    +0.000 C 
ENDBRANCH  19  20
ENDBRANCH   8  19
TORSDOF 5
ENDMDL
MODEL 4
REMARK VINA RESULT:      -7.5      1.121      1.746
REMARK  Name = 
REMARK  8 active torsions:
REMARK  status: ('A' for Active; 'I' for Inactive)
REMARK    1  A    between atoms: C_1  and  C_2
REMARK    2  A    between atoms: C_2  and  C_3
REMARK    3  A    between atoms: C_2  and  C_4
REMARK    4  A    between atoms: C_4  and  C_5
REMARK    5  A    between atoms: C_11  and  C_12
REMARK    6  A    between atoms: N_18  and  C_19
REMARK    7  A    between atoms: C_19  and  C_20
REMARK    8  A    between atoms: C_23  and  C_24
REMARK                            x       y       z     vdW  Elec       q    Type
REMARK                         _______ _______ _______ _____ _____    ______ ____
ROOT
ATOM      1  C   UNL     1       2.049   6.291  20.642  0.00  0.00    +0.000 C 
ATOM      2  C   UNL     1       1.479   7.683  21.083  0.00  0.00    +0.000 C 
ATOM      3  N   UNL     1       1.350   8.308  19.786  0.00  0.00    +0.000 N 
ATOM      4  C   UNL     1       2.298   7.845  18.914  0.00  0.00    +0.000 C 
ATOM      5  N   UNL     1       2.549   8.556  17.859  0.00  0.00    +0.000 NA
ATOM      6  C   UNL     1       1.567   9.692  18.020  0.00  0.00    +0.000 C 
ATOM      7  C   UNL     1       1.189   9.714  19.525  0.00  0.00    +0.000 C 
ATOM      8  N   UNL     1       2.841   6.706  19.460  0.00  0.00    +0.000 N 
ENDROOT
BRANCH   7   9
ATOM      9  C   UNL     1      -0.194  10.254  19.931  0.00  0.00    +0.000 C 
ATOM     10  C   UNL     1      -0.958  10.977  18.806  0.00  0.00    +0.000 C 
ATOM     11  C   UNL     1      -2.283  11.568  19.290  0.00  0.00    +0.000 C 
ATOM     12  C   UNL     1      -2.081  12.473  20.499  0.00  0.00    +0.000 C 
ATOM     13  C   UNL     1      -1.409  11.713  21.634  0.00  0.00    +0.000 C 
ATOM     14  C   UNL     1      -0.070  11.129  21.191  0.00  0.00    +0.000 C 
ENDBRANCH   7   9
BRANCH   1  15
ATOM     15  C   UNL     1       0.839   5.385  20.276  0.00  0.00    +0.000 C 
BRANCH  15  17
ATOM     16  C   UNL     1       1.229   3.151  19.149  0.00  0.00    +0.000 C 
ATOM     17  C   UNL     1       1.019   3.872  20.474  0.00  0.00    +0.000 C 
ATOM     18  C   UNL     1       2.207   3.584  21.404  0.00  0.00    +0.000 C 
ENDBRANCH  15  17
ENDBRANCH   1  15
BRANCH   8  19
ATOM     19  C   UNL     1       3.901   5.879  18.887  0.00  0.00    +0.000 C 
BRANCH  19  20
ATOM     20  C   UNL     1       3.825   5.662  17.343  0.00  0.00    +0.000 C 
ATOM     21  C   UNL     1       4.736   6.558  16.489  0.00  0.00    +0.000 C 
ATOM     22  C   UNL     1       6.229   6.268  16.651  0.00  0.00    +0.000 C 
ATOM     23  C   UNL     1       6.640   4.787  16.559  0.00  0.00    +0.000 C 
ATOM     24  C   UNL     1       7.036   4.367  15.137  0.00  0.00    +0.000 C 
ATOM     25  C   UNL     1       5.614   3.819  17.173  0.00  0.00    +0.000 C 
ATOM     26  C   UNL     1       4.149   4.204  16.955  0.00  0.00    +0.000 C 
ENDBRANCH  19  20
ENDBRANCH   8  19
TORSDOF 5
ENDMDL
MODEL 5
REMARK VINA RESULT:      -7.4      1.127      1.552
REMARK  Name = 
REMARK  8 active torsions:
REMARK  status: ('A' for Active; 'I' for Inactive)
REMARK    1  A    between atoms: C_1  and  C_2
REMARK    2  A    between atoms: C_2  and  C_3
REMARK    3  A    between atoms: C_2  and  C_4
REMARK    4  A    between atoms: C_4  and  C_5
REMARK    5  A    between atoms: C_11  and  C_12
REMARK    6  A    between atoms: N_18  and  C_19
REMARK    7  A    between atoms: C_19  and  C_20
REMARK    8  A    between atoms: C_23  and  C_24
REMARK                            x       y       z     vdW  Elec       q    Type
REMARK                         _______ _______ _______ _____ _____    ______ ____
ROOT
ATOM      1  C   UNL     1       2.254   6.059  20.022  0.00  0.00    +0.000 C 
ATOM      2  C   UNL     1       1.894   7.336  20.858  0.00  0.00    +0.000 C 
ATOM      3  N   UNL     1       1.396   8.181  19.796  0.00  0.00    +0.000 N 
ATOM      4  C   UNL     1       2.015   7.905  18.607  0.00  0.00    +0.000 C 
ATOM      5  N   UNL     1       1.955   8.799  17.671  0.00  0.00    +0.000 NA
ATOM      6  C   UNL     1       1.109   9.864  18.326  0.00  0.00    +0.000 C 
ATOM      7  C   UNL     1       1.210   9.607  19.853  0.00  0.00    +0.000 C 
ATOM      8  N   UNL     1       2.660   6.698  18.748  0.00  0.00    +0.000 N 
ENDROOT
BRANCH   7   9
ATOM      9  C   UNL     1       0.037  10.033  20.753  0.00  0.00    +0.000 C 
ATOM     10  C   UNL     1      -0.446  11.480  20.537  0.00  0.00    +0.000 C 
ATOM     11  C   UNL     1      -1.552  11.875  21.518  0.00  0.00    +0.000 C 
ATOM     12  C   UNL     1      -1.128  11.637  22.962  0.00  0.00    +0.000 C 
ATOM     13  C   UNL     1      -0.744  10.179  23.177  0.00  0.00    +0.000 C 
ATOM     14  C   UNL     1       0.376   9.758  22.228  0.00  0.00    +0.000 C 
ENDBRANCH   7   9
BRANCH   1  15
ATOM     15  C   UNL     1       0.960   5.206  19.890  0.00  0.00    +0.000 C 
BRANCH  15  17
ATOM     16  C   UNL     1       1.180   2.733  19.393  0.00  0.00    +0.000 C 
ATOM     17  C   UNL     1       1.000   3.787  20.478  0.00  0.00    +0.000 C 
ATOM     18  C   UNL     1       2.133   3.658  21.506  0.00  0.00    +0.000 C 
ENDBRANCH  15  17
ENDBRANCH   1  15
BRANCH   8  19
ATOM     19  C   UNL     1       3.465   6.013  17.740  0.00  0.00    +0.000 C 
BRANCH  19  20
ATOM     20  C   UNL     1       4.210   4.731  18.230  0.00  0.00    +0.000 C 
ATOM     21  C   UNL     1       4.942   3.920  17.150  0.00  0.00    +0.000 C 
ATOM     22  C   UNL     1       6.158   4.631  16.551  0.00  0.00    +0.000 C 
ATOM     23  C   UNL     1       7.140   5.251  17.562  0.00  0.00    +0.000 C 
ATOM     24  C   UNL     1       8.282   4.298  17.942  0.00  0.00    +0.000 C 
ATOM     25  C   UNL     1       6.457   5.844  18.806  0.00  0.00    +0.000 C 
ATOM     26  C   UNL     1       5.250   5.058  19.321  0.00  0.00    +0.000 C 
ENDBRANCH  19  20
ENDBRANCH   8  19
TORSDOF 5
ENDMDL
MODEL 6
REMARK VINA RESULT:      -7.3      0.674      1.168
REMARK  Name = 
REMARK  8 active torsions:
REMARK  status: ('A' for Active; 'I' for Inactive)
REMARK    1  A    between atoms: C_1  and  C_2
REMARK    2  A    between atoms: C_2  and  C_3
REMARK    3  A    between atoms: C_2  and  C_4
REMARK    4  A    between atoms: C_4  and  C_5
REMARK    5  A    between atoms: C_11  and  C_12
REMARK    6  A    between atoms: N_18  and  C_19
REMARK    7  A    between atoms: C_19  and  C_20
REMARK    8  A    between atoms: C_23  and  C_24
REMARK                            x       y       z     vdW  Elec       q    Type
REMARK                         _______ _______ _______ _____ _____    ______ ____
ROOT
ATOM      1  C   UNL     1       2.371   5.379  20.540  0.00  0.00    +0.000 C 
ATOM      2  C   UNL     1       1.927   6.699  21.261  0.00  0.00    +0.000 C 
ATOM      3  N   UNL     1       1.713   7.540  20.106  0.00  0.00    +0.000 N 
ATOM      4  C   UNL     1       2.546   7.194  19.076  0.00  0.00    +0.000 C 
ATOM      5  N   UNL     1       2.738   8.063  18.134  0.00  0.00    +0.000 NA
ATOM      6  C   UNL     1       1.844   9.195  18.581  0.00  0.00    +0.000 C 
ATOM      7  C   UNL     1       1.611   8.976  20.099  0.00  0.00    +0.000 C 
ATOM      8  N   UNL     1       3.071   5.957  19.367  0.00  0.00    +0.000 N 
ENDROOT
BRANCH   7   9
ATOM      9  C   UNL     1       0.307   9.496  20.729  0.00  0.00    +0.000 C 
ATOM     10  C   UNL     1      -0.214  10.817  20.132  0.00  0.00    +0.000 C 
ATOM     11  C   UNL     1      -1.461  11.330  20.854  0.00  0.00    +0.000 C 
ATOM     12  C   UNL     1      -1.226  11.450  22.354  0.00  0.00    +0.000 C 
ATOM     13  C   UNL     1      -0.803  10.110  22.942  0.00  0.00    +0.000 C 
ATOM     14  C   UNL     1       0.454   9.580  22.258  0.00  0.00    +0.000 C 
ENDBRANCH   7   9
BRANCH   1  15
ATOM     15  C   UNL     1       1.080   4.601  20.155  0.00  0.00    +0.000 C 
BRANCH  15  17
ATOM     16  C   UNL     1       1.481   2.320  19.129  0.00  0.00    +0.000 C 
ATOM     17  C   UNL     1       1.090   3.082  20.389  0.00  0.00    +0.000 C 
ATOM     18  C   UNL     1       2.055   2.714  21.525  0.00  0.00    +0.000 C 
ENDBRANCH  15  17
ENDBRANCH   1  15
BRANCH   8  19
ATOM     19  C   UNL     1       4.022   5.196  18.560  0.00  0.00    +0.000 C 
BRANCH  19  20
ATOM     20  C   UNL     1       3.964   5.462  17.023  0.00  0.00    +0.000 C 
ATOM     21  C   UNL     1       4.947   6.513  16.482  0.00  0.00    +0.000 C 
ATOM     22  C   UNL     1       6.416   6.088  16.548  0.00  0.00    +0.000 C 
ATOM     23  C   UNL     1       6.733   4.680  16.011  0.00  0.00    +0.000 C 
ATOM     24  C   UNL     1       7.132   4.686  14.529  0.00  0.00    +0.000 C 
ATOM     25  C   UNL     1       5.635   3.643  16.302  0.00  0.00    +0.000 C 
ATOM     26  C   UNL     1       4.203   4.172  16.211  0.00  0.00    +0.000 C 
ENDBRANCH  19  20
ENDBRANCH   8  19
TORSDOF 5
ENDMDL
MODEL 7
REMARK VINA RESULT:      -7.3      1.137      1.491
REMARK  Name = 
REMARK  8 active torsions:
REMARK  status: ('A' for Active; 'I' for Inactive)
REMARK    1  A    between atoms: C_1  and  C_2
REMARK    2  A    between atoms: C_2  and  C_3
REMARK    3  A    between atoms: C_2  and  C_4
REMARK    4  A    between atoms: C_4  and  C_5
REMARK    5  A    between atoms: C_11  and  C_12
REMARK    6  A    between atoms: N_18  and  C_19
REMARK    7  A    between atoms: C_19  and  C_20
REMARK    8  A    between atoms: C_23  and  C_24
REMARK                            x       y       z     vdW  Elec       q    Type
REMARK                         _______ _______ _______ _____ _____    ______ ____
ROOT
ATOM      1  C   UNL     1       2.424   6.824  20.005  0.00  0.00    +0.000 C 
ATOM      2  C   UNL     1       1.930   8.076  20.809  0.00  0.00    +0.000 C 
ATOM      3  N   UNL     1       1.168   8.737  19.774  0.00  0.00    +0.000 N 
ATOM      4  C   UNL     1       1.691   8.487  18.534  0.00  0.00    +0.000 C 
ATOM      5  N   UNL     1       1.363   9.284  17.566  0.00  0.00    +0.000 NA
ATOM      6  C   UNL     1       0.413  10.229  18.262  0.00  0.00    +0.000 C 
ATOM      7  C   UNL     1       0.730  10.109  19.776  0.00  0.00    +0.000 C 
ATOM      8  N   UNL     1       2.560   7.428  18.658  0.00  0.00    +0.000 N 
ENDROOT
BRANCH   7   9
ATOM      9  C   UNL     1      -0.393  10.387  20.790  0.00  0.00    +0.000 C 
ATOM     10  C   UNL     1      -1.058  11.769  20.651  0.00  0.00    +0.000 C 
ATOM     11  C   UNL     1      -2.104  12.024  21.738  0.00  0.00    +0.000 C 
ATOM     12  C   UNL     1      -1.520  11.823  23.130  0.00  0.00    +0.000 C 
ATOM     13  C   UNL     1      -0.951  10.419  23.279  0.00  0.00    +0.000 C 
ATOM     14  C   UNL     1       0.114  10.139  22.222  0.00  0.00    +0.000 C 
ENDBRANCH   7   9
BRANCH   1  15
ATOM     15  C   UNL     1       1.302   5.749  20.079  0.00  0.00    +0.000 C 
BRANCH  15  17
ATOM     16  C   UNL     1       1.296   3.405  21.037  0.00  0.00    +0.000 C 
ATOM     17  C   UNL     1       1.727   4.287  19.872  0.00  0.00    +0.000 C 
ATOM     18  C   UNL     1       1.138   3.729  18.568  0.00  0.00    +0.000 C 
ENDBRANCH  15  17
ENDBRANCH   1  15
BRANCH   8  19
ATOM     19  C   UNL     1       3.360   6.822  17.596  0.00  0.00    +0.000 C 
BRANCH  19  20
ATOM     20  C   UNL     1       4.647   6.075  18.066  0.00  0.00    +0.000 C 
ATOM     21  C   UNL     1       4.638   4.546  17.903  0.00  0.00    +0.000 C 
ATOM     22  C   UNL     1       4.662   4.072  16.448  0.00  0.00    +0.000 C 
ATOM     23  C   UNL     1       5.715   4.736  15.542  0.00  0.00    +0.000 C 
ATOM     24  C   UNL     1       7.031   3.950  15.487  0.00  0.00    +0.000 C 
ATOM     25  C   UNL     1       5.952   6.224  15.854  0.00  0.00    +0.000 C 
ATOM     26  C   UNL     1       5.905   6.591  17.338  0.00  0.00    +0.000 C 
ENDBRANCH  19  20
ENDBRANCH   8  19
TORSDOF 5
ENDMDL
MODEL 8
REMARK VINA RESULT:      -7.1      2.027      4.554
REMARK  Name = 
REMARK  8 active torsions:
REMARK  status: ('A' for Active; 'I' for Inactive)
REMARK    1  A    between atoms: C_1  and  C_2
REMARK    2  A    between atoms: C_2  and  C_3
REMARK    3  A    between atoms: C_2  and  C_4
REMARK    4  A    between atoms: C_4  and  C_5
REMARK    5  A    between atoms: C_11  and  C_12
REMARK    6  A    between atoms: N_18  and  C_19
REMARK    7  A    between atoms: C_19  and  C_20
REMARK    8  A    between atoms: C_23  and  C_24
REMARK                            x       y       z     vdW  Elec       q    Type
REMARK                         _______ _______ _______ _____ _____    ______ ____
ROOT
ATOM      1  C   UNL     1       2.588   7.268  17.960  0.00  0.00    +0.000 C 
ATOM      2  C   UNL     1       1.613   8.451  17.631  0.00  0.00    +0.000 C 
ATOM      3  N   UNL     1       1.576   9.095  18.924  0.00  0.00    +0.000 N 
ATOM      4  C   UNL     1       1.744   8.189  19.937  0.00  0.00    +0.000 C 
ATOM      5  N   UNL     1       1.372   8.536  21.129  0.00  0.00    +0.000 NA
ATOM      6  C   UNL     1       0.898   9.951  20.896  0.00  0.00    +0.000 C 
ATOM      7  C   UNL     1       0.603  10.054  19.376  0.00  0.00    +0.000 C 
ATOM      8  N   UNL     1       2.222   7.027  19.377  0.00  0.00    +0.000 N 
ENDROOT
BRANCH   7   9
ATOM      9  C   UNL     1       0.735  11.425  18.689  0.00  0.00    +0.000 C 
ATOM     10  C   UNL     1       2.146  12.042  18.751  0.00  0.00    +0.000 C 
ATOM     11  C   UNL     1       2.196  13.440  18.131  0.00  0.00    +0.000 C 
ATOM     12  C   UNL     1       1.155  14.362  18.753  0.00  0.00    +0.000 C 
ATOM     13  C   UNL     1      -0.243  13.779  18.598  0.00  0.00    +0.000 C 
ATOM     14  C   UNL     1      -0.334  12.391  19.227  0.00  0.00    +0.000 C 
ENDBRANCH   7   9
BRANCH   1  15
ATOM     15  C   UNL     1       4.041   7.798  17.789  0.00  0.00    +0.000 C 
BRANCH  15  17
ATOM     16  C   UNL     1       4.910   6.436  15.839  0.00  0.00    +0.000 C 
ATOM     17  C   UNL     1       5.096   6.789  17.309  0.00  0.00    +0.000 C 
ATOM     18  C   UNL     1       6.512   7.342  17.524  0.00  0.00    +0.000 C 
ENDBRANCH  15  17
ENDBRANCH   1  15
BRANCH   8  19
ATOM     19  C   UNL     1       2.535   5.783  20.074  0.00  0.00    +0.000 C 
BRANCH  19  20
ATOM     20  C   UNL     1       1.759   4.521  19.582  0.00  0.00    +0.000 C 
ATOM     21  C   UNL     1       1.984   4.119  18.116  0.00  0.00    +0.000 C 
ATOM     22  C   UNL     1       3.395   3.605  17.817  0.00  0.00    +0.000 C 
ATOM     23  C   UNL     1       3.943   2.545  18.790  0.00  0.00    +0.000 C 
ATOM     24  C   UNL     1       3.665   1.110  18.322  0.00  0.00    +0.000 C 
ATOM     25  C   UNL     1       3.513   2.761  20.251  0.00  0.00    +0.000 C 
ATOM     26  C   UNL     1       2.086   3.279  20.437  0.00  0.00    +0.000 C 
ENDBRANCH  19  20
ENDBRANCH   8  19
TORSDOF 5
ENDMDL
MODEL 9
REMARK VINA RESULT:      -7.1      2.501      8.250
REMARK  Name = 
REMARK  8 active torsions:
REMARK  status: ('A' for Active; 'I' for Inactive)
REMARK    1  A    between atoms: C_1  and  C_2
REMARK    2  A    between atoms: C_2  and  C_3
REMARK    3  A    between atoms: C_2  and  C_4
REMARK    4  A    between atoms: C_4  and  C_5
REMARK    5  A    between atoms: C_11  and  C_12
REMARK    6  A    between atoms: N_18  and  C_19
REMARK    7  A    between atoms: C_19  and  C_20
REMARK    8  A    between atoms: C_23  and  C_24
REMARK                            x       y       z     vdW  Elec       q    Type
REMARK                         _______ _______ _______ _____ _____    ______ ____
ROOT
ATOM      1  C   UNL     1       0.479  10.276  18.258  0.00  0.00    +0.000 C 
ATOM      2  C   UNL     1       1.628   9.305  17.814  0.00  0.00    +0.000 C 
ATOM      3  N   UNL     1       1.528   8.323  18.870  0.00  0.00    +0.000 N 
ATOM      4  C   UNL     1       1.092   8.889  20.038  0.00  0.00    +0.000 C 
ATOM      5  N   UNL     1       1.303   8.243  21.141  0.00  0.00    +0.000 NA
ATOM      6  C   UNL     1       1.972   6.988  20.631  0.00  0.00    +0.000 C 
ATOM      7  C   UNL     1       2.521   7.343  19.224  0.00  0.00    +0.000 C 
ATOM      8  N   UNL     1       0.578  10.127  19.730  0.00  0.00    +0.000 N 
ENDROOT
BRANCH   7   9
ATOM      9  C   UNL     1       2.665   6.219  18.183  0.00  0.00    +0.000 C 
ATOM     10  C   UNL     1       1.960   4.902  18.556  0.00  0.00    +0.000 C 
ATOM     11  C   UNL     1       2.211   3.797  17.528  0.00  0.00    +0.000 C 
ATOM     12  C   UNL     1       3.700   3.584  17.291  0.00  0.00    +0.000 C 
ATOM     13  C   UNL     1       4.362   4.876  16.832  0.00  0.00    +0.000 C 
ATOM     14  C   UNL     1       4.150   5.996  17.848  0.00  0.00    +0.000 C 
ENDBRANCH   7   9
BRANCH   1  15
ATOM     15  C   UNL     1      -0.853   9.720  17.678  0.00  0.00    +0.000 C 
BRANCH  15  17
ATOM     16  C   UNL     1      -2.776  10.129  16.082  0.00  0.00    +0.000 C 
ATOM     17  C   UNL     1      -1.850  10.748  17.122  0.00  0.00    +0.000 C 
ATOM     18  C   UNL     1      -2.693  11.355  18.254  0.00  0.00    +0.000 C 
ENDBRANCH  15  17
ENDBRANCH   1  15
BRANCH   8  19
ATOM     19  C   UNL     1       0.011  11.097  20.663  0.00  0.00    +0.000 C 
BRANCH  19  20
ATOM     20  C   UNL     1       0.866  12.381  20.902  0.00  0.00    +0.000 C 
ATOM     21  C   UNL     1       1.446  13.050  19.646  0.00  0.00    +0.000 C 
ATOM     22  C   UNL     1       0.396  13.686  18.733  0.00  0.00    +0.000 C 
ATOM     23  C   UNL     1      -0.643  14.585  19.428  0.00  0.00    +0.000 C 
ATOM     24  C   UNL     1      -0.229  16.063  19.451  0.00  0.00    +0.000 C 
ATOM     25  C   UNL     1      -1.058  14.089  20.824  0.00  0.00    +0.000 C 
ATOM     26  C   UNL     1       0.067  13.467  21.653  0.00  0.00    +0.000 C 
ENDBRANCH  19  20
ENDBRANCH   8  19
TORSDOF 5
ENDMDL
