MODEL 1
REMARK VINA RESULT:      -7.2      0.000      0.000
REMARK  Name = 
REMARK  3 active torsions:
REMARK  status: ('A' for Active; 'I' for Inactive)
REMARK    1  A    between atoms: N_10  and  C_11
REMARK    2  A    between atoms: C_11  and  C_12
REMARK    3  A    between atoms: C_16  and  C_17
REMARK                            x       y       z     vdW  Elec       q    Type
REMARK                         _______ _______ _______ _____ _____    ______ ____
ROOT
ATOM      1  C   UNL     1       4.505   3.592  17.046  0.00  0.00    +0.000 C 
ENDROOT
BRANCH   1  11
ATOM      2  O   UNL     1       6.577   3.954  18.883  0.00  0.00    +0.000 OA
ATOM      3  C   UNL     1       6.277   4.880  18.137  0.00  0.00    +0.000 A 
ATOM      4  C   UNL     1       6.994   6.141  18.165  0.00  0.00    +0.000 A 
ATOM      5  C   UNL     1       8.076   6.543  19.002  0.00  0.00    +0.000 A 
ATOM      6  C   UNL     1       8.505   7.815  18.698  0.00  0.00    +0.000 A 
ATOM      7  S   UNL     1       7.596   8.512  17.422  0.00  0.00    +0.000 S 
ATOM      8  C   UNL     1       6.618   7.122  17.274  0.00  0.00    +0.000 A 
ATOM      9  N   UNL     1       5.611   7.043  16.367  0.00  0.00    +0.000 NA
ATOM     10  C   UNL     1       4.985   5.907  16.369  0.00  0.00    +0.000 A 
ATOM     11  N   UNL     1       5.266   4.823  17.183  0.00  0.00    +0.000 N 
ENDBRANCH   1  11
BRANCH   1  12
ATOM     12  C   UNL     1       3.256   3.608  17.899  0.00  0.00    +0.000 A 
ATOM     13  C   UNL     1       1.997   3.782  17.309  0.00  0.00    +0.000 A 
ATOM     14  C   UNL     1       0.834   3.689  18.072  0.00  0.00    +0.000 A 
ATOM     15  C   UNL     1       0.915   3.423  19.438  0.00  0.00    +0.000 A 
ATOM     16  C   UNL     1       2.162   3.274  20.060  0.00  0.00    +0.000 A 
ATOM     17  C   UNL     1       3.329   3.378  19.282  0.00  0.00    +0.000 A 
BRANCH  16  18
ATOM     18  C   UNL     1       2.266   2.987  21.538  0.00  0.00    +0.000 C 
ATOM     19  F   UNL     1       3.274   2.132  21.862  0.00  0.00    +0.000 F 
ATOM     20  F   UNL     1       2.484   4.116  22.268  0.00  0.00    +0.000 F 
ATOM     21  F   UNL     1       1.127   2.434  22.041  0.00  0.00    +0.000 F 
ENDBRANCH  16  18
ENDBRANCH   1  12
TORSDOF 3
ENDMDL
MODEL 2
REMARK VINA RESULT:      -7.1      4.076      4.843
REMARK  Name = 
REMARK  3 active torsions:
REMARK  status: ('A' for Active; 'I' for Inactive)
REMARK    1  A    between atoms: N_10  and  C_11
REMARK    2  A    between atoms: C_11  and  C_12
REMARK    3  A    between atoms: C_16  and  C_17
REMARK                            x       y       z     vdW  Elec       q    Type
REMARK                         _______ _______ _______ _____ _____    ______ ____
ROOT
ATOM      1  C   UNL     1       2.615   5.389  19.761  0.00  0.00    +0.000 C 
ENDROOT
BRANCH   1  11
ATOM      2  O   UNL     1       2.547   4.274  17.200  0.00  0.00    +0.000 OA
ATOM      3  C   UNL     1       3.627   4.617  17.670  0.00  0.00    +0.000 A 
ATOM      4  C   UNL     1       4.859   4.487  16.915  0.00  0.00    +0.000 A 
ATOM      5  C   UNL     1       5.062   3.960  15.606  0.00  0.00    +0.000 A 
ATOM      6  C   UNL     1       6.383   4.040  15.227  0.00  0.00    +0.000 A 
ATOM      7  S   UNL     1       7.362   4.733  16.453  0.00  0.00    +0.000 S 
ATOM      8  C   UNL     1       6.028   4.924  17.500  0.00  0.00    +0.000 A 
ATOM      9  N   UNL     1       6.157   5.452  18.743  0.00  0.00    +0.000 NA
ATOM     10  C   UNL     1       5.041   5.551  19.396  0.00  0.00    +0.000 A 
ATOM     11  N   UNL     1       3.790   5.182  18.931  0.00  0.00    +0.000 N 
ENDBRANCH   1  11
BRANCH   1  12
ATOM     12  C   UNL     1       2.157   6.830  19.734  0.00  0.00    +0.000 A 
ATOM     13  C   UNL     1       2.304   7.598  18.571  0.00  0.00    +0.000 A 
ATOM     14  C   UNL     1       1.787   8.890  18.501  0.00  0.00    +0.000 A 
ATOM     15  C   UNL     1       1.118   9.435  19.596  0.00  0.00    +0.000 A 
ATOM     16  C   UNL     1       0.982   8.700  20.782  0.00  0.00    +0.000 A 
ATOM     17  C   UNL     1       1.515   7.400  20.844  0.00  0.00    +0.000 A 
BRANCH  16  18
ATOM     18  C   UNL     1       0.262   9.276  21.977  0.00  0.00    +0.000 C 
ATOM     19  F   UNL     1       1.034   9.363  23.094  0.00  0.00    +0.000 F 
ATOM     20  F   UNL     1      -0.200  10.536  21.742  0.00  0.00    +0.000 F 
ATOM     21  F   UNL     1      -0.829   8.541  22.330  0.00  0.00    +0.000 F 
ENDBRANCH  16  18
ENDBRANCH   1  12
TORSDOF 3
ENDMDL
MODEL 3
REMARK VINA RESULT:      -7.1      4.833      5.368
REMARK  Name = 
REMARK  3 active torsions:
REMARK  status: ('A' for Active; 'I' for Inactive)
REMARK    1  A    between atoms: N_10  and  C_11
REMARK    2  A    between atoms: C_11  and  C_12
REMARK    3  A    between atoms: C_16  and  C_17
REMARK                            x       y       z     vdW  Elec       q    Type
REMARK                         _______ _______ _______ _____ _____    ______ ____
ROOT
ATOM      1  C   UNL     1       2.893   7.018  18.586  0.00  0.00    +0.000 C 
ENDROOT
BRANCH   1  11
ATOM      2  O   UNL     1       1.989   9.326  17.296  0.00  0.00    +0.000 OA
ATOM      3  C   UNL     1       1.677   9.140  18.467  0.00  0.00    +0.000 A 
ATOM      4  C   UNL     1       0.826  10.071  19.184  0.00  0.00    +0.000 A 
ATOM      5  C   UNL     1       0.250  11.294  18.732  0.00  0.00    +0.000 A 
ATOM      6  C   UNL     1      -0.528  11.878  19.707  0.00  0.00    +0.000 A 
ATOM      7  S   UNL     1      -0.543  10.957  21.153  0.00  0.00    +0.000 S 
ATOM      8  C   UNL     1       0.494   9.777  20.488  0.00  0.00    +0.000 A 
ATOM      9  N   UNL     1       0.907   8.697  21.199  0.00  0.00    +0.000 NA
ATOM     10  C   UNL     1       1.670   7.885  20.536  0.00  0.00    +0.000 A 
ATOM     11  N   UNL     1       2.065   8.033  19.217  0.00  0.00    +0.000 N 
ENDBRANCH   1  11
BRANCH   1  12
ATOM     12  C   UNL     1       2.341   5.628  18.808  0.00  0.00    +0.000 A 
ATOM     13  C   UNL     1       1.796   4.904  17.739  0.00  0.00    +0.000 A 
ATOM     14  C   UNL     1       1.385   3.583  17.911  0.00  0.00    +0.000 A 
ATOM     15  C   UNL     1       1.511   2.968  19.156  0.00  0.00    +0.000 A 
ATOM     16  C   UNL     1       2.025   3.679  20.249  0.00  0.00    +0.000 A 
ATOM     17  C   UNL     1       2.428   5.014  20.067  0.00  0.00    +0.000 A 
BRANCH  16  18
ATOM     18  C   UNL     1       2.166   3.028  21.604  0.00  0.00    +0.000 C 
ATOM     19  F   UNL     1       3.173   2.116  21.672  0.00  0.00    +0.000 F 
ATOM     20  F   UNL     1       2.415   3.936  22.589  0.00  0.00    +0.000 F 
ATOM     21  F   UNL     1       1.035   2.370  21.984  0.00  0.00    +0.000 F 
ENDBRANCH  16  18
ENDBRANCH   1  12
TORSDOF 3
ENDMDL
MODEL 4
REMARK VINA RESULT:      -7.1      3.166      4.097
REMARK  Name = 
REMARK  3 active torsions:
REMARK  status: ('A' for Active; 'I' for Inactive)
REMARK    1  A    between atoms: N_10  and  C_11
REMARK    2  A    between atoms: C_11  and  C_12
REMARK    3  A    between atoms: C_16  and  C_17
REMARK                            x       y       z     vdW  Elec       q    Type
REMARK                         _______ _______ _______ _____ _____    ______ ____
ROOT
ATOM      1  C   UNL     1       6.067   5.104  17.905  0.00  0.00    +0.000 C 
ENDROOT
BRANCH   1  11
ATOM      2  O   UNL     1       7.765   6.261  16.012  0.00  0.00    +0.000 OA
ATOM      3  C   UNL     1       6.997   5.372  15.657  0.00  0.00    +0.000 A 
ATOM      4  C   UNL     1       6.977   4.889  14.289  0.00  0.00    +0.000 A 
ATOM      5  C   UNL     1       7.748   5.320  13.170  0.00  0.00    +0.000 A 
ATOM      6  C   UNL     1       7.457   4.586  12.042  0.00  0.00    +0.000 A 
ATOM      7  S   UNL     1       6.253   3.402  12.339  0.00  0.00    +0.000 S 
ATOM      8  C   UNL     1       6.108   3.866  13.975  0.00  0.00    +0.000 A 
ATOM      9  N   UNL     1       5.233   3.265  14.821  0.00  0.00    +0.000 NA
ATOM     10  C   UNL     1       5.270   3.721  16.034  0.00  0.00    +0.000 A 
ATOM     11  N   UNL     1       6.105   4.721  16.503  0.00  0.00    +0.000 N 
ENDBRANCH   1  11
BRANCH   1  12
ATOM     12  C   UNL     1       4.793   5.843  18.249  0.00  0.00    +0.000 A 
ATOM     13  C   UNL     1       4.411   6.974  17.516  0.00  0.00    +0.000 A 
ATOM     14  C   UNL     1       3.187   7.596  17.753  0.00  0.00    +0.000 A 
ATOM     15  C   UNL     1       2.328   7.097  18.731  0.00  0.00    +0.000 A 
ATOM     16  C   UNL     1       2.698   5.985  19.500  0.00  0.00    +0.000 A 
ATOM     17  C   UNL     1       3.939   5.370  19.257  0.00  0.00    +0.000 A 
BRANCH  16  18
ATOM     18  C   UNL     1       1.780   5.434  20.564  0.00  0.00    +0.000 C 
ATOM     19  F   UNL     1       1.011   6.380  21.169  0.00  0.00    +0.000 F 
ATOM     20  F   UNL     1       0.912   4.509  20.068  0.00  0.00    +0.000 F 
ATOM     21  F   UNL     1       2.460   4.807  21.563  0.00  0.00    +0.000 F 
ENDBRANCH  16  18
ENDBRANCH   1  12
TORSDOF 3
ENDMDL
MODEL 5
REMARK VINA RESULT:      -7.1      2.906      3.648
REMARK  Name = 
REMARK  3 active torsions:
REMARK  status: ('A' for Active; 'I' for Inactive)
REMARK    1  A    between atoms: N_10  and  C_11
REMARK    2  A    between atoms: C_11  and  C_12
REMARK    3  A    between atoms: C_16  and  C_17
REMARK                            x       y       z     vdW  Elec       q    Type
REMARK                         _______ _______ _______ _____ _____    ______ ____
ROOT
ATOM      1  C   UNL     1       6.111   5.122  18.098  0.00  0.00    +0.000 C 
ENDROOT
BRANCH   1  11
ATOM      2  O   UNL     1       7.729   6.361  16.188  0.00  0.00    +0.000 OA
ATOM      3  C   UNL     1       6.997   5.441  15.840  0.00  0.00    +0.000 A 
ATOM      4  C   UNL     1       6.979   4.963  14.469  0.00  0.00    +0.000 A 
ATOM      5  C   UNL     1       7.715   5.432  13.342  0.00  0.00    +0.000 A 
ATOM      6  C   UNL     1       7.441   4.691  12.214  0.00  0.00    +0.000 A 
ATOM      7  S   UNL     1       6.295   3.453  12.522  0.00  0.00    +0.000 S 
ATOM      8  C   UNL     1       6.153   3.903  14.162  0.00  0.00    +0.000 A 
ATOM      9  N   UNL     1       5.317   3.260  15.017  0.00  0.00    +0.000 NA
ATOM     10  C   UNL     1       5.351   3.712  16.232  0.00  0.00    +0.000 A 
ATOM     11  N   UNL     1       6.147   4.747  16.694  0.00  0.00    +0.000 N 
ENDBRANCH   1  11
BRANCH   1  12
ATOM     12  C   UNL     1       4.703   5.421  18.562  0.00  0.00    +0.000 A 
ATOM     13  C   UNL     1       4.001   6.514  18.036  0.00  0.00    +0.000 A 
ATOM     14  C   UNL     1       2.667   6.733  18.375  0.00  0.00    +0.000 A 
ATOM     15  C   UNL     1       2.016   5.863  19.248  0.00  0.00    +0.000 A 
ATOM     16  C   UNL     1       2.702   4.779  19.812  0.00  0.00    +0.000 A 
ATOM     17  C   UNL     1       4.050   4.572  19.469  0.00  0.00    +0.000 A 
BRANCH  16  18
ATOM     18  C   UNL     1       2.012   3.829  20.760  0.00  0.00    +0.000 C 
ATOM     19  F   UNL     1       2.343   4.020  22.067  0.00  0.00    +0.000 F 
ATOM     20  F   UNL     1       0.655   3.935  20.700  0.00  0.00    +0.000 F 
ATOM     21  F   UNL     1       2.295   2.525  20.487  0.00  0.00    +0.000 F 
ENDBRANCH  16  18
ENDBRANCH   1  12
TORSDOF 3
ENDMDL
MODEL 6
REMARK VINA RESULT:      -7.1      4.589      5.443
REMARK  Name = 
REMARK  3 active torsions:
REMARK  status: ('A' for Active; 'I' for Inactive)
REMARK    1  A    between atoms: N_10  and  C_11
REMARK    2  A    between atoms: C_11  and  C_12
REMARK    3  A    between atoms: C_16  and  C_17
REMARK                            x       y       z     vdW  Elec       q    Type
REMARK                         _______ _______ _______ _____ _____    ______ ____
ROOT
ATOM      1  C   UNL     1       3.240   7.181  17.695  0.00  0.00    +0.000 C 
ENDROOT
BRANCH   1  11
ATOM      2  O   UNL     1       1.843   9.585  17.419  0.00  0.00    +0.000 OA
ATOM      3  C   UNL     1       1.773   8.975  18.481  0.00  0.00    +0.000 A 
ATOM      4  C   UNL     1       0.956   9.457  19.580  0.00  0.00    +0.000 A 
ATOM      5  C   UNL     1       0.162  10.638  19.661  0.00  0.00    +0.000 A 
ATOM      6  C   UNL     1      -0.493  10.726  20.869  0.00  0.00    +0.000 A 
ATOM      7  S   UNL     1      -0.134   9.397  21.892  0.00  0.00    +0.000 S 
ATOM      8  C   UNL     1       0.903   8.700  20.730  0.00  0.00    +0.000 A 
ATOM      9  N   UNL     1       1.567   7.538  20.960  0.00  0.00    +0.000 NA
ATOM     10  C   UNL     1       2.292   7.136  19.964  0.00  0.00    +0.000 A 
ATOM     11  N   UNL     1       2.421   7.772  18.740  0.00  0.00    +0.000 N 
ENDBRANCH   1  11
BRANCH   1  12
ATOM     12  C   UNL     1       3.191   5.670  17.732  0.00  0.00    +0.000 A 
ATOM     13  C   UNL     1       4.208   4.914  17.133  0.00  0.00    +0.000 A 
ATOM     14  C   UNL     1       4.229   3.526  17.257  0.00  0.00    +0.000 A 
ATOM     15  C   UNL     1       3.231   2.873  17.978  0.00  0.00    +0.000 A 
ATOM     16  C   UNL     1       2.185   3.602  18.562  0.00  0.00    +0.000 A 
ATOM     17  C   UNL     1       2.170   5.002  18.424  0.00  0.00    +0.000 A 
BRANCH  16  18
ATOM     18  C   UNL     1       1.096   2.911  19.344  0.00  0.00    +0.000 C 
ATOM     19  F   UNL     1       0.373   3.748  20.137  0.00  0.00    +0.000 F 
ATOM     20  F   UNL     1       0.193   2.291  18.534  0.00  0.00    +0.000 F 
ATOM     21  F   UNL     1       1.583   1.941  20.167  0.00  0.00    +0.000 F 
ENDBRANCH  16  18
ENDBRANCH   1  12
TORSDOF 3
ENDMDL
MODEL 7
REMARK VINA RESULT:      -7.0      2.962      3.984
REMARK  Name = 
REMARK  3 active torsions:
REMARK  status: ('A' for Active; 'I' for Inactive)
REMARK    1  A    between atoms: N_10  and  C_11
REMARK    2  A    between atoms: C_11  and  C_12
REMARK    3  A    between atoms: C_16  and  C_17
REMARK                            x       y       z     vdW  Elec       q    Type
REMARK                         _______ _______ _______ _____ _____    ______ ____
ROOT
ATOM      1  C   UNL     1       6.100   4.826  18.083  0.00  0.00    +0.000 C 
ENDROOT
BRANCH   1  11
ATOM      2  O   UNL     1       4.726   3.206  16.269  0.00  0.00    +0.000 OA
ATOM      3  C   UNL     1       5.640   3.913  15.859  0.00  0.00    +0.000 A 
ATOM      4  C   UNL     1       5.999   3.951  14.453  0.00  0.00    +0.000 A 
ATOM      5  C   UNL     1       5.440   3.225  13.361  0.00  0.00    +0.000 A 
ATOM      6  C   UNL     1       6.038   3.564  12.168  0.00  0.00    +0.000 A 
ATOM      7  S   UNL     1       7.270   4.738  12.379  0.00  0.00    +0.000 S 
ATOM      8  C   UNL     1       7.017   4.795  14.065  0.00  0.00    +0.000 A 
ATOM      9  N   UNL     1       7.753   5.595  14.878  0.00  0.00    +0.000 NA
ATOM     10  C   UNL     1       7.414   5.536  16.128  0.00  0.00    +0.000 A 
ATOM     11  N   UNL     1       6.398   4.760  16.661  0.00  0.00    +0.000 N 
ENDBRANCH   1  11
BRANCH   1  12
ATOM     12  C   UNL     1       4.850   5.632  18.356  0.00  0.00    +0.000 A 
ATOM     13  C   UNL     1       4.541   6.748  17.568  0.00  0.00    +0.000 A 
ATOM     14  C   UNL     1       3.338   7.431  17.741  0.00  0.00    +0.000 A 
ATOM     15  C   UNL     1       2.427   7.007  18.708  0.00  0.00    +0.000 A 
ATOM     16  C   UNL     1       2.724   5.912  19.530  0.00  0.00    +0.000 A 
ATOM     17  C   UNL     1       3.944   5.236  19.352  0.00  0.00    +0.000 A 
BRANCH  16  18
ATOM     18  C   UNL     1       1.750   5.442  20.583  0.00  0.00    +0.000 C 
ATOM     19  F   UNL     1       2.343   4.847  21.654  0.00  0.00    +0.000 F 
ATOM     20  F   UNL     1       1.005   6.464  21.089  0.00  0.00    +0.000 F 
ATOM     21  F   UNL     1       0.856   4.537  20.097  0.00  0.00    +0.000 F 
ENDBRANCH  16  18
ENDBRANCH   1  12
TORSDOF 3
ENDMDL
MODEL 8
REMARK VINA RESULT:      -7.0      4.847      5.602
REMARK  Name = 
REMARK  3 active torsions:
REMARK  status: ('A' for Active; 'I' for Inactive)
REMARK    1  A    between atoms: N_10  and  C_11
REMARK    2  A    between atoms: C_11  and  C_12
REMARK    3  A    between atoms: C_16  and  C_17
REMARK                            x       y       z     vdW  Elec       q    Type
REMARK                         _______ _______ _______ _____ _____    ______ ____
ROOT
ATOM      1  C   UNL     1       3.025   7.248  17.951  0.00  0.00    +0.000 C 
ENDROOT
BRANCH   1  11
ATOM      2  O   UNL     1       1.781   9.694  17.426  0.00  0.00    +0.000 OA
ATOM      3  C   UNL     1       1.657   9.191  18.538  0.00  0.00    +0.000 A 
ATOM      4  C   UNL     1       0.854   9.820  19.570  0.00  0.00    +0.000 A 
ATOM      5  C   UNL     1       0.132  11.048  19.527  0.00  0.00    +0.000 A 
ATOM      6  C   UNL     1      -0.535  11.286  20.707  0.00  0.00    +0.000 A 
ATOM      7  S   UNL     1      -0.274  10.038  21.855  0.00  0.00    +0.000 S 
ATOM      8  C   UNL     1       0.737   9.177  20.784  0.00  0.00    +0.000 A 
ATOM      9  N   UNL     1       1.326   8.004  21.134  0.00  0.00    +0.000 NA
ATOM     10  C   UNL     1       2.040   7.469  20.193  0.00  0.00    +0.000 A 
ATOM     11  N   UNL     1       2.227   7.981  18.920  0.00  0.00    +0.000 N 
ENDBRANCH   1  11
BRANCH   1  12
ATOM     12  C   UNL     1       3.296   5.831  18.404  0.00  0.00    +0.000 A 
ATOM     13  C   UNL     1       4.599   5.426  18.722  0.00  0.00    +0.000 A 
ATOM     14  C   UNL     1       4.842   4.157  19.244  0.00  0.00    +0.000 A 
ATOM     15  C   UNL     1       3.785   3.273  19.454  0.00  0.00    +0.000 A 
ATOM     16  C   UNL     1       2.475   3.641  19.117  0.00  0.00    +0.000 A 
ATOM     17  C   UNL     1       2.242   4.921  18.583  0.00  0.00    +0.000 A 
BRANCH  16  18
ATOM     18  C   UNL     1       1.320   2.695  19.336  0.00  0.00    +0.000 C 
ATOM     19  F   UNL     1       1.692   1.391  19.449  0.00  0.00    +0.000 F 
ATOM     20  F   UNL     1       0.623   2.985  20.470  0.00  0.00    +0.000 F 
ATOM     21  F   UNL     1       0.412   2.740  18.321  0.00  0.00    +0.000 F 
ENDBRANCH  16  18
ENDBRANCH   1  12
TORSDOF 3
ENDMDL
MODEL 9
REMARK VINA RESULT:      -7.0      4.736      6.211
REMARK  Name = 
REMARK  3 active torsions:
REMARK  status: ('A' for Active; 'I' for Inactive)
REMARK    1  A    between atoms: N_10  and  C_11
REMARK    2  A    between atoms: C_11  and  C_12
REMARK    3  A    between atoms: C_16  and  C_17
REMARK                            x       y       z     vdW  Elec       q    Type
REMARK                         _______ _______ _______ _____ _____    ______ ____
ROOT
ATOM      1  C   UNL     1       3.546   4.566  18.662  0.00  0.00    +0.000 C 
ENDROOT
BRANCH   1  11
ATOM      2  O   UNL     1       2.141   5.314  20.958  0.00  0.00    +0.000 OA
ATOM      3  C   UNL     1       2.257   6.122  20.042  0.00  0.00    +0.000 A 
ATOM      4  C   UNL     1       1.712   7.463  20.141  0.00  0.00    +0.000 A 
ATOM      5  C   UNL     1       0.973   8.060  21.204  0.00  0.00    +0.000 A 
ATOM      6  C   UNL     1       0.658   9.371  20.929  0.00  0.00    +0.000 A 
ATOM      7  S   UNL     1       1.240   9.862  19.393  0.00  0.00    +0.000 S 
ATOM      8  C   UNL     1       1.911   8.324  19.083  0.00  0.00    +0.000 A 
ATOM      9  N   UNL     1       2.556   8.039  17.924  0.00  0.00    +0.000 NA
ATOM     10  C   UNL     1       3.028   6.833  17.862  0.00  0.00    +0.000 A 
ATOM     11  N   UNL     1       2.931   5.869  18.852  0.00  0.00    +0.000 N 
ENDBRANCH   1  11
BRANCH   1  12
ATOM     12  C   UNL     1       4.862   4.670  17.924  0.00  0.00    +0.000 A 
ATOM     13  C   UNL     1       6.063   4.807  18.632  0.00  0.00    +0.000 A 
ATOM     14  C   UNL     1       7.287   4.793  17.967  0.00  0.00    +0.000 A 
ATOM     15  C   UNL     1       7.328   4.646  16.581  0.00  0.00    +0.000 A 
ATOM     16  C   UNL     1       6.141   4.537  15.844  0.00  0.00    +0.000 A 
ATOM     17  C   UNL     1       4.910   4.560  16.525  0.00  0.00    +0.000 A 
BRANCH  16  18
ATOM     18  C   UNL     1       6.168   4.379  14.344  0.00  0.00    +0.000 C 
ATOM     19  F   UNL     1       7.020   5.235  13.717  0.00  0.00    +0.000 F 
ATOM     20  F   UNL     1       6.548   3.127  13.964  0.00  0.00    +0.000 F 
ATOM     21  F   UNL     1       4.946   4.583  13.778  0.00  0.00    +0.000 F 
ENDBRANCH  16  18
ENDBRANCH   1  12
TORSDOF 3
ENDMDL
