MODEL 1
REMARK VINA RESULT:      -7.3      0.000      0.000
REMARK  Name = 
REMARK  10 active torsions:
REMARK  status: ('A' for Active; 'I' for Inactive)
REMARK    1  A    between atoms: C_1  and  O_2
REMARK    2  A    between atoms: O_2  and  C_3
REMARK    3  A    between atoms: C_9  and  C_10
REMARK    4  A    between atoms: N_12  and  C_13
REMARK    5  A    between atoms: C_14  and  C_15
REMARK    6  A    between atoms: C_15  and  C_16
REMARK    7  A    between atoms: C_15  and  C_17
REMARK    8  A    between atoms: C_21  and  C_22
REMARK    9  A    between atoms: C_22  and  C_23
REMARK   10  A    between atoms: C_22  and  C_24
REMARK                            x       y       z     vdW  Elec       q    Type
REMARK                         _______ _______ _______ _____ _____    ______ ____
ROOT
ATOM      1  C   UNL     1      -4.587  14.772  20.827  0.00  0.00    +0.000 A 
ATOM      2  C   UNL     1      -5.928  14.482  20.598  0.00  0.00    +0.000 A 
ATOM      3  C   UNL     1      -6.268  13.261  20.031  0.00  0.00    +0.000 A 
ATOM      4  C   UNL     1      -5.258  12.416  19.565  0.00  0.00    +0.000 A 
ATOM      5  C   UNL     1      -3.900  12.719  19.666  0.00  0.00    +0.000 A 
ATOM      6  C   UNL     1      -3.597  13.847  20.445  0.00  0.00    +0.000 A 
ATOM      7  C   UNL     1      -2.825  11.825  19.017  0.00  0.00    +0.000 C 
ATOM      8  C   UNL     1      -3.134  11.127  17.667  0.00  0.00    +0.000 A 
ATOM      9  C   UNL     1      -2.132  10.321  17.105  0.00  0.00    +0.000 A 
ATOM     10  C   UNL     1      -2.227   9.823  15.798  0.00  0.00    +0.000 A 
ATOM     11  C   UNL     1      -3.318  10.136  15.011  0.00  0.00    +0.000 A 
ATOM     12  C   UNL     1      -4.399  10.762  15.607  0.00  0.00    +0.000 A 
ATOM     13  C   UNL     1      -4.352  11.150  16.964  0.00  0.00    +0.000 A 
ATOM     14  C   UNL     1      -5.689  11.420  17.596  0.00  0.00    +0.000 C 
ATOM     15  O   UNL     1      -5.656  11.242  19.006  0.00  0.00    +0.000 OA
ENDROOT
BRANCH   7  16
ATOM     16  C   UNL     1      -1.366  12.424  19.072  0.00  0.00    +0.000 C 
ATOM     17  O   UNL     1      -1.000  13.214  18.183  0.00  0.00    +0.000 OA
ATOM     18  N   UNL     1      -0.431  12.188  20.068  0.00  0.00    +0.000 N 
ATOM     19  H   UNL     1       0.402  12.749  19.944  0.00  0.00    +0.000 HD
BRANCH  18  20
ATOM     20  C   UNL     1      -0.295  11.137  21.001  0.00  0.00    +0.000 A 
ATOM     21  C   UNL     1      -0.870  11.222  22.309  0.00  0.00    +0.000 A 
ATOM     22  C   UNL     1      -0.431  10.288  23.262  0.00  0.00    +0.000 A 
ATOM     23  C   UNL     1       0.382   9.225  22.925  0.00  0.00    +0.000 A 
ATOM     24  C   UNL     1       0.736   9.028  21.598  0.00  0.00    +0.000 A 
ATOM     25  C   UNL     1       0.399   9.949  20.588  0.00  0.00    +0.000 A 
BRANCH  21  26
ATOM     26  C   UNL     1      -1.887  12.277  22.793  0.00  0.00    +0.000 C 
ATOM     27  C   UNL     1      -2.989  11.770  23.727  0.00  0.00    +0.000 C 
ATOM     28  C   UNL     1      -1.325  13.548  23.481  0.00  0.00    +0.000 C 
ENDBRANCH  21  26
BRANCH  25  29
ATOM     29  C   UNL     1       0.960   9.689  19.168  0.00  0.00    +0.000 C 
ATOM     30  C   UNL     1       1.792  10.853  18.568  0.00  0.00    +0.000 C 
ATOM     31  C   UNL     1       1.720   8.389  18.892  0.00  0.00    +0.000 C 
ENDBRANCH  25  29
ENDBRANCH  18  20
ENDBRANCH   7  16
BRANCH   1  33
ATOM     32  C   UNL     1      -4.082  17.054  20.410  0.00  0.00    +0.000 C 
ATOM     33  O   UNL     1      -4.103  15.955  21.313  0.00  0.00    +0.000 OA
ENDBRANCH   1  33
TORSDOF 5
ENDMDL
MODEL 2
REMARK VINA RESULT:      -7.2      0.642      2.979
REMARK  Name = 
REMARK  10 active torsions:
REMARK  status: ('A' for Active; 'I' for Inactive)
REMARK    1  A    between atoms: C_1  and  O_2
REMARK    2  A    between atoms: O_2  and  C_3
REMARK    3  A    between atoms: C_9  and  C_10
REMARK    4  A    between atoms: N_12  and  C_13
REMARK    5  A    between atoms: C_14  and  C_15
REMARK    6  A    between atoms: C_15  and  C_16
REMARK    7  A    between atoms: C_15  and  C_17
REMARK    8  A    between atoms: C_21  and  C_22
REMARK    9  A    between atoms: C_22  and  C_23
REMARK   10  A    between atoms: C_22  and  C_24
REMARK                            x       y       z     vdW  Elec       q    Type
REMARK                         _______ _______ _______ _____ _____    ______ ____
ROOT
ATOM      1  C   UNL     1      -4.926  14.868  21.149  0.00  0.00    +0.000 A 
ATOM      2  C   UNL     1      -6.247  14.514  20.898  0.00  0.00    +0.000 A 
ATOM      3  C   UNL     1      -6.517  13.281  20.320  0.00  0.00    +0.000 A 
ATOM      4  C   UNL     1      -5.460  12.489  19.867  0.00  0.00    +0.000 A 
ATOM      5  C   UNL     1      -4.120  12.858  19.990  0.00  0.00    +0.000 A 
ATOM      6  C   UNL     1      -3.885  13.995  20.779  0.00  0.00    +0.000 A 
ATOM      7  C   UNL     1      -2.992  12.021  19.354  0.00  0.00    +0.000 C 
ATOM      8  C   UNL     1      -3.246  11.316  17.997  0.00  0.00    +0.000 A 
ATOM      9  C   UNL     1      -2.196  10.563  17.447  0.00  0.00    +0.000 A 
ATOM     10  C   UNL     1      -2.247  10.067  16.136  0.00  0.00    +0.000 A 
ATOM     11  C   UNL     1      -3.340  10.331  15.334  0.00  0.00    +0.000 A 
ATOM     12  C   UNL     1      -4.459  10.899  15.915  0.00  0.00    +0.000 A 
ATOM     13  C   UNL     1      -4.452  11.282  17.274  0.00  0.00    +0.000 A 
ATOM     14  C   UNL     1      -5.811  11.483  17.886  0.00  0.00    +0.000 C 
ATOM     15  O   UNL     1      -5.791  11.299  19.296  0.00  0.00    +0.000 OA
ENDROOT
BRANCH   7  16
ATOM     16  C   UNL     1      -1.566  12.691  19.435  0.00  0.00    +0.000 C 
ATOM     17  O   UNL     1      -1.332  13.704  18.752  0.00  0.00    +0.000 OA
ATOM     18  N   UNL     1      -0.523  12.279  20.250  0.00  0.00    +0.000 N 
ATOM     19  H   UNL     1       0.265  12.913  20.203  0.00  0.00    +0.000 HD
BRANCH  18  20
ATOM     20  C   UNL     1      -0.242  11.039  20.864  0.00  0.00    +0.000 A 
ATOM     21  C   UNL     1       0.413   9.985  20.150  0.00  0.00    +0.000 A 
ATOM     22  C   UNL     1       0.372   8.703  20.723  0.00  0.00    +0.000 A 
ATOM     23  C   UNL     1      -0.117   8.485  21.995  0.00  0.00    +0.000 A 
ATOM     24  C   UNL     1      -0.531   9.564  22.763  0.00  0.00    +0.000 A 
ATOM     25  C   UNL     1      -0.589  10.873  22.248  0.00  0.00    +0.000 A 
BRANCH  21  26
ATOM     26  C   UNL     1       1.113  10.108  18.780  0.00  0.00    +0.000 C 
ATOM     27  C   UNL     1       2.024  11.325  18.598  0.00  0.00    +0.000 C 
ATOM     28  C   UNL     1       1.953   8.897  18.296  0.00  0.00    +0.000 C 
ENDBRANCH  21  26
BRANCH  25  29
ATOM     29  C   UNL     1      -1.191  11.973  23.157  0.00  0.00    +0.000 C 
ATOM     30  C   UNL     1      -0.687  13.411  22.869  0.00  0.00    +0.000 C 
ATOM     31  C   UNL     1      -2.710  12.044  23.336  0.00  0.00    +0.000 C 
ENDBRANCH  25  29
ENDBRANCH  18  20
ENDBRANCH   7  16
BRANCH   1  33
ATOM     32  C   UNL     1      -5.419  17.158  21.536  0.00  0.00    +0.000 C 
ATOM     33  O   UNL     1      -4.508  16.072  21.648  0.00  0.00    +0.000 OA
ENDBRANCH   1  33
TORSDOF 5
ENDMDL
MODEL 3
REMARK VINA RESULT:      -7.1      2.204      5.411
REMARK  Name = 
REMARK  10 active torsions:
REMARK  status: ('A' for Active; 'I' for Inactive)
REMARK    1  A    between atoms: C_1  and  O_2
REMARK    2  A    between atoms: O_2  and  C_3
REMARK    3  A    between atoms: C_9  and  C_10
REMARK    4  A    between atoms: N_12  and  C_13
REMARK    5  A    between atoms: C_14  and  C_15
REMARK    6  A    between atoms: C_15  and  C_16
REMARK    7  A    between atoms: C_15  and  C_17
REMARK    8  A    between atoms: C_21  and  C_22
REMARK    9  A    between atoms: C_22  and  C_23
REMARK   10  A    between atoms: C_22  and  C_24
REMARK                            x       y       z     vdW  Elec       q    Type
REMARK                         _______ _______ _______ _____ _____    ______ ____
ROOT
ATOM      1  C   UNL     1      -1.138  10.357  17.990  0.00  0.00    +0.000 A 
ATOM      2  C   UNL     1      -1.949   9.877  16.967  0.00  0.00    +0.000 A 
ATOM      3  C   UNL     1      -3.209  10.431  16.788  0.00  0.00    +0.000 A 
ATOM      4  C   UNL     1      -3.695  11.347  17.723  0.00  0.00    +0.000 A 
ATOM      5  C   UNL     1      -2.962  11.769  18.833  0.00  0.00    +0.000 A 
ATOM      6  C   UNL     1      -1.619  11.362  18.850  0.00  0.00    +0.000 A 
ATOM      7  C   UNL     1      -3.587  12.674  19.914  0.00  0.00    +0.000 C 
ATOM      8  C   UNL     1      -5.083  12.496  20.278  0.00  0.00    +0.000 A 
ATOM      9  C   UNL     1      -5.618  13.337  21.267  0.00  0.00    +0.000 A 
ATOM     10  C   UNL     1      -6.888  13.119  21.818  0.00  0.00    +0.000 A 
ATOM     11  C   UNL     1      -7.649  12.040  21.410  0.00  0.00    +0.000 A 
ATOM     12  C   UNL     1      -7.226  11.320  20.307  0.00  0.00    +0.000 A 
ATOM     13  C   UNL     1      -6.003  11.623  19.670  0.00  0.00    +0.000 A 
ATOM     14  C   UNL     1      -5.858  11.079  18.276  0.00  0.00    +0.000 C 
ATOM     15  O   UNL     1      -4.943  11.842  17.500  0.00  0.00    +0.000 OA
ENDROOT
BRANCH   7  16
ATOM     16  C   UNL     1      -2.673  12.892  21.181  0.00  0.00    +0.000 C 
ATOM     17  O   UNL     1      -2.877  12.208  22.201  0.00  0.00    +0.000 OA
ATOM     18  N   UNL     1      -1.600  13.765  21.267  0.00  0.00    +0.000 N 
ATOM     19  H   UNL     1      -1.104  13.670  22.144  0.00  0.00    +0.000 HD
BRANCH  18  20
ATOM     20  C   UNL     1      -1.270  14.924  20.530  0.00  0.00    +0.000 A 
ATOM     21  C   UNL     1      -2.094  16.093  20.571  0.00  0.00    +0.000 A 
ATOM     22  C   UNL     1      -1.869  17.069  19.585  0.00  0.00    +0.000 A 
ATOM     23  C   UNL     1      -0.796  17.001  18.720  0.00  0.00    +0.000 A 
ATOM     24  C   UNL     1       0.127  15.976  18.854  0.00  0.00    +0.000 A 
ATOM     25  C   UNL     1      -0.052  14.919  19.767  0.00  0.00    +0.000 A 
BRANCH  21  26
ATOM     26  C   UNL     1      -3.246  16.364  21.562  0.00  0.00    +0.000 C 
ATOM     27  C   UNL     1      -2.854  17.030  22.883  0.00  0.00    +0.000 C 
ATOM     28  C   UNL     1      -4.459  17.179  21.042  0.00  0.00    +0.000 C 
ENDBRANCH  21  26
BRANCH  25  29
ATOM     29  C   UNL     1       0.978  13.764  19.736  0.00  0.00    +0.000 C 
ATOM     30  C   UNL     1       1.517  13.403  18.327  0.00  0.00    +0.000 C 
ATOM     31  C   UNL     1       2.174  13.804  20.691  0.00  0.00    +0.000 C 
ENDBRANCH  25  29
ENDBRANCH  18  20
ENDBRANCH   7  16
BRANCH   1  33
ATOM     32  C   UNL     1       0.489  10.008  19.684  0.00  0.00    +0.000 C 
ATOM     33  O   UNL     1       0.093   9.863  18.325  0.00  0.00    +0.000 OA
ENDBRANCH   1  33
TORSDOF 5
ENDMDL
MODEL 4
REMARK VINA RESULT:      -7.0      0.836      1.062
REMARK  Name = 
REMARK  10 active torsions:
REMARK  status: ('A' for Active; 'I' for Inactive)
REMARK    1  A    between atoms: C_1  and  O_2
REMARK    2  A    between atoms: O_2  and  C_3
REMARK    3  A    between atoms: C_9  and  C_10
REMARK    4  A    between atoms: N_12  and  C_13
REMARK    5  A    between atoms: C_14  and  C_15
REMARK    6  A    between atoms: C_15  and  C_16
REMARK    7  A    between atoms: C_15  and  C_17
REMARK    8  A    between atoms: C_21  and  C_22
REMARK    9  A    between atoms: C_22  and  C_23
REMARK   10  A    between atoms: C_22  and  C_24
REMARK                            x       y       z     vdW  Elec       q    Type
REMARK                         _______ _______ _______ _____ _____    ______ ____
ROOT
ATOM      1  C   UNL     1      -4.184  15.425  21.211  0.00  0.00    +0.000 A 
ATOM      2  C   UNL     1      -5.542  15.184  21.034  0.00  0.00    +0.000 A 
ATOM      3  C   UNL     1      -5.950  13.949  20.547  0.00  0.00    +0.000 A 
ATOM      4  C   UNL     1      -4.992  13.034  20.106  0.00  0.00    +0.000 A 
ATOM      5  C   UNL     1      -3.619  13.282  20.154  0.00  0.00    +0.000 A 
ATOM      6  C   UNL     1      -3.246  14.437  20.858  0.00  0.00    +0.000 A 
ATOM      7  C   UNL     1      -2.602  12.304  19.531  0.00  0.00    +0.000 C 
ATOM      8  C   UNL     1      -2.979  11.546  18.232  0.00  0.00    +0.000 A 
ATOM      9  C   UNL     1      -2.029  10.666  17.692  0.00  0.00    +0.000 A 
ATOM     10  C   UNL     1      -2.182  10.099  16.419  0.00  0.00    +0.000 A 
ATOM     11  C   UNL     1      -3.280  10.416  15.643  0.00  0.00    +0.000 A 
ATOM     12  C   UNL     1      -4.316  11.122  16.229  0.00  0.00    +0.000 A 
ATOM     13  C   UNL     1      -4.214  11.584  17.559  0.00  0.00    +0.000 A 
ATOM     14  C   UNL     1      -5.520  11.950  18.208  0.00  0.00    +0.000 C 
ATOM     15  O   UNL     1      -5.456  11.849  19.625  0.00  0.00    +0.000 OA
ENDROOT
BRANCH   7  16
ATOM     16  C   UNL     1      -1.118  12.839  19.514  0.00  0.00    +0.000 C 
ATOM     17  O   UNL     1      -0.829  13.807  18.786  0.00  0.00    +0.000 OA
ATOM     18  N   UNL     1      -0.074  12.355  20.287  0.00  0.00    +0.000 N 
ATOM     19  H   UNL     1       0.766  12.910  20.177  0.00  0.00    +0.000 HD
BRANCH  18  20
ATOM     20  C   UNL     1       0.125  11.112  20.926  0.00  0.00    +0.000 A 
ATOM     21  C   UNL     1      -0.249  10.907  22.292  0.00  0.00    +0.000 A 
ATOM     22  C   UNL     1       0.260   9.763  22.930  0.00  0.00    +0.000 A 
ATOM     23  C   UNL     1       0.945   8.784  22.239  0.00  0.00    +0.000 A 
ATOM     24  C   UNL     1       1.091   8.891  20.865  0.00  0.00    +0.000 A 
ATOM     25  C   UNL     1       0.673  10.032  20.152  0.00  0.00    +0.000 A 
BRANCH  21  26
ATOM     26  C   UNL     1      -1.115  11.851  23.153  0.00  0.00    +0.000 C 
ATOM     27  C   UNL     1      -0.850  13.349  22.982  0.00  0.00    +0.000 C 
ATOM     28  C   UNL     1      -2.655  11.698  23.053  0.00  0.00    +0.000 C 
ENDBRANCH  21  26
BRANCH  25  29
ATOM     29  C   UNL     1       1.007  10.094  18.642  0.00  0.00    +0.000 C 
ATOM     30  C   UNL     1       1.998  11.215  18.233  0.00  0.00    +0.000 C 
ATOM     31  C   UNL     1       1.436   8.814  17.919  0.00  0.00    +0.000 C 
ENDBRANCH  25  29
ENDBRANCH  18  20
ENDBRANCH   7  16
BRANCH   1  33
ATOM     32  C   UNL     1      -4.311  17.303  22.660  0.00  0.00    +0.000 C 
ATOM     33  O   UNL     1      -3.635  16.612  21.616  0.00  0.00    +0.000 OA
ENDBRANCH   1  33
TORSDOF 5
ENDMDL
MODEL 5
REMARK VINA RESULT:      -6.9      2.296      5.770
REMARK  Name = 
REMARK  10 active torsions:
REMARK  status: ('A' for Active; 'I' for Inactive)
REMARK    1  A    between atoms: C_1  and  O_2
REMARK    2  A    between atoms: O_2  and  C_3
REMARK    3  A    between atoms: C_9  and  C_10
REMARK    4  A    between atoms: N_12  and  C_13
REMARK    5  A    between atoms: C_14  and  C_15
REMARK    6  A    between atoms: C_15  and  C_16
REMARK    7  A    between atoms: C_15  and  C_17
REMARK    8  A    between atoms: C_21  and  C_22
REMARK    9  A    between atoms: C_22  and  C_23
REMARK   10  A    between atoms: C_22  and  C_24
REMARK                            x       y       z     vdW  Elec       q    Type
REMARK                         _______ _______ _______ _____ _____    ______ ____
ROOT
ATOM      1  C   UNL     1      -1.158  10.604  18.202  0.00  0.00    +0.000 A 
ATOM      2  C   UNL     1      -1.906  10.111  17.137  0.00  0.00    +0.000 A 
ATOM      3  C   UNL     1      -3.195  10.587  16.940  0.00  0.00    +0.000 A 
ATOM      4  C   UNL     1      -3.768  11.432  17.894  0.00  0.00    +0.000 A 
ATOM      5  C   UNL     1      -3.096  11.858  19.040  0.00  0.00    +0.000 A 
ATOM      6  C   UNL     1      -1.730  11.541  19.083  0.00  0.00    +0.000 A 
ATOM      7  C   UNL     1      -3.811  12.678  20.134  0.00  0.00    +0.000 C 
ATOM      8  C   UNL     1      -5.301  12.386  20.446  0.00  0.00    +0.000 A 
ATOM      9  C   UNL     1      -5.919  13.151  21.449  0.00  0.00    +0.000 A 
ATOM     10  C   UNL     1      -7.187  12.828  21.952  0.00  0.00    +0.000 A 
ATOM     11  C   UNL     1      -7.861  11.718  21.481  0.00  0.00    +0.000 A 
ATOM     12  C   UNL     1      -7.360  11.070  20.366  0.00  0.00    +0.000 A 
ATOM     13  C   UNL     1      -6.143  11.479  19.778  0.00  0.00    +0.000 A 
ATOM     14  C   UNL     1      -5.923  11.000  18.370  0.00  0.00    +0.000 C 
ATOM     15  O   UNL     1      -5.039  11.851  17.651  0.00  0.00    +0.000 OA
ENDROOT
BRANCH   7  16
ATOM     16  C   UNL     1      -2.950  12.905  21.436  0.00  0.00    +0.000 C 
ATOM     17  O   UNL     1      -2.681  11.933  22.165  0.00  0.00    +0.000 OA
ATOM     18  N   UNL     1      -2.404  14.113  21.846  0.00  0.00    +0.000 N 
ATOM     19  H   UNL     1      -1.814  14.003  22.660  0.00  0.00    +0.000 HD
BRANCH  18  20
ATOM     20  C   UNL     1      -2.747  15.449  21.546  0.00  0.00    +0.000 A 
ATOM     21  C   UNL     1      -3.774  16.135  22.270  0.00  0.00    +0.000 A 
ATOM     22  C   UNL     1      -4.259  17.331  21.713  0.00  0.00    +0.000 A 
ATOM     23  C   UNL     1      -3.666  17.920  20.615  0.00  0.00    +0.000 A 
ATOM     24  C   UNL     1      -2.521  17.357  20.071  0.00  0.00    +0.000 A 
ATOM     25  C   UNL     1      -2.004  16.126  20.520  0.00  0.00    +0.000 A 
BRANCH  21  26
ATOM     26  C   UNL     1      -4.442  15.662  23.578  0.00  0.00    +0.000 C 
ATOM     27  C   UNL     1      -3.696  15.995  24.872  0.00  0.00    +0.000 C 
ATOM     28  C   UNL     1      -5.908  16.099  23.831  0.00  0.00    +0.000 C 
ENDBRANCH  21  26
BRANCH  25  29
ATOM     29  C   UNL     1      -0.798  15.534  19.750  0.00  0.00    +0.000 C 
ATOM     30  C   UNL     1      -0.397  16.303  18.465  0.00  0.00    +0.000 C 
ATOM     31  C   UNL     1       0.488  15.210  20.514  0.00  0.00    +0.000 C 
ENDBRANCH  25  29
ENDBRANCH  18  20
ENDBRANCH   7  16
BRANCH   1  33
ATOM     32  C   UNL     1       0.654  10.758  19.729  0.00  0.00    +0.000 C 
ATOM     33  O   UNL     1       0.093  10.180  18.556  0.00  0.00    +0.000 OA
ENDBRANCH   1  33
TORSDOF 5
ENDMDL
MODEL 6
REMARK VINA RESULT:      -6.8      2.810      5.834
REMARK  Name = 
REMARK  10 active torsions:
REMARK  status: ('A' for Active; 'I' for Inactive)
REMARK    1  A    between atoms: C_1  and  O_2
REMARK    2  A    between atoms: O_2  and  C_3
REMARK    3  A    between atoms: C_9  and  C_10
REMARK    4  A    between atoms: N_12  and  C_13
REMARK    5  A    between atoms: C_14  and  C_15
REMARK    6  A    between atoms: C_15  and  C_16
REMARK    7  A    between atoms: C_15  and  C_17
REMARK    8  A    between atoms: C_21  and  C_22
REMARK    9  A    between atoms: C_22  and  C_23
REMARK   10  A    between atoms: C_22  and  C_24
REMARK                            x       y       z     vdW  Elec       q    Type
REMARK                         _______ _______ _______ _____ _____    ______ ____
ROOT
ATOM      1  C   UNL     1      -2.578  17.246  21.445  0.00  0.00    +0.000 A 
ATOM      2  C   UNL     1      -2.503  18.384  20.648  0.00  0.00    +0.000 A 
ATOM      3  C   UNL     1      -1.862  18.304  19.418  0.00  0.00    +0.000 A 
ATOM      4  C   UNL     1      -1.180  17.136  19.074  0.00  0.00    +0.000 A 
ATOM      5  C   UNL     1      -1.128  16.009  19.896  0.00  0.00    +0.000 A 
ATOM      6  C   UNL     1      -1.972  16.050  21.017  0.00  0.00    +0.000 A 
ATOM      7  C   UNL     1      -0.251  14.792  19.541  0.00  0.00    +0.000 C 
ATOM      8  C   UNL     1       1.110  15.021  18.835  0.00  0.00    +0.000 A 
ATOM      9  C   UNL     1       1.883  13.890  18.527  0.00  0.00    +0.000 A 
ATOM     10  C   UNL     1       3.210  13.995  18.087  0.00  0.00    +0.000 A 
ATOM     11  C   UNL     1       3.806  15.236  17.965  0.00  0.00    +0.000 A 
ATOM     12  C   UNL     1       3.009  16.361  18.074  0.00  0.00    +0.000 A 
ATOM     13  C   UNL     1       1.637  16.247  18.392  0.00  0.00    +0.000 A 
ATOM     14  C   UNL     1       0.807  17.459  18.072  0.00  0.00    +0.000 C 
ATOM     15  O   UNL     1      -0.560  17.126  17.863  0.00  0.00    +0.000 OA
ENDROOT
BRANCH   7  16
ATOM     16  C   UNL     1      -0.172  13.699  20.676  0.00  0.00    +0.000 C 
ATOM     17  O   UNL     1       0.552  13.905  21.667  0.00  0.00    +0.000 OA
ATOM     18  N   UNL     1      -0.884  12.510  20.707  0.00  0.00    +0.000 N 
ATOM     19  H   UNL     1      -0.744  12.009  21.574  0.00  0.00    +0.000 HD
BRANCH  18  20
ATOM     20  C   UNL     1      -1.490  11.751  19.682  0.00  0.00    +0.000 A 
ATOM     21  C   UNL     1      -0.749  10.780  18.935  0.00  0.00    +0.000 A 
ATOM     22  C   UNL     1      -1.334  10.303  17.750  0.00  0.00    +0.000 A 
ATOM     23  C   UNL     1      -2.632  10.613  17.398  0.00  0.00    +0.000 A 
ATOM     24  C   UNL     1      -3.413  11.368  18.259  0.00  0.00    +0.000 A 
ATOM     25  C   UNL     1      -2.892  11.943  19.435  0.00  0.00    +0.000 A 
BRANCH  21  26
ATOM     26  C   UNL     1       0.657  10.244  19.277  0.00  0.00    +0.000 C 
ATOM     27  C   UNL     1       0.735   9.260  20.447  0.00  0.00    +0.000 C 
ATOM     28  C   UNL     1       1.466   9.579  18.133  0.00  0.00    +0.000 C 
ENDBRANCH  21  26
BRANCH  25  29
ATOM     29  C   UNL     1      -3.824  12.873  20.249  0.00  0.00    +0.000 C 
ATOM     30  C   UNL     1      -5.269  13.000  19.699  0.00  0.00    +0.000 C 
ATOM     31  C   UNL     1      -3.922  12.689  21.766  0.00  0.00    +0.000 C 
ENDBRANCH  25  29
ENDBRANCH  18  20
ENDBRANCH   7  16
BRANCH   1  33
ATOM     32  C   UNL     1      -4.369  17.842  22.887  0.00  0.00    +0.000 C 
ATOM     33  O   UNL     1      -3.116  17.193  22.702  0.00  0.00    +0.000 OA
ENDBRANCH   1  33
TORSDOF 5
ENDMDL
MODEL 7
REMARK VINA RESULT:      -6.8      2.176      6.016
REMARK  Name = 
REMARK  10 active torsions:
REMARK  status: ('A' for Active; 'I' for Inactive)
REMARK    1  A    between atoms: C_1  and  O_2
REMARK    2  A    between atoms: O_2  and  C_3
REMARK    3  A    between atoms: C_9  and  C_10
REMARK    4  A    between atoms: N_12  and  C_13
REMARK    5  A    between atoms: C_14  and  C_15
REMARK    6  A    between atoms: C_15  and  C_16
REMARK    7  A    between atoms: C_15  and  C_17
REMARK    8  A    between atoms: C_21  and  C_22
REMARK    9  A    between atoms: C_22  and  C_23
REMARK   10  A    between atoms: C_22  and  C_24
REMARK                            x       y       z     vdW  Elec       q    Type
REMARK                         _______ _______ _______ _____ _____    ______ ____
ROOT
ATOM      1  C   UNL     1      -1.091  10.388  18.171  0.00  0.00    +0.000 A 
ATOM      2  C   UNL     1      -1.850   9.885  17.119  0.00  0.00    +0.000 A 
ATOM      3  C   UNL     1      -3.112  10.414  16.885  0.00  0.00    +0.000 A 
ATOM      4  C   UNL     1      -3.653  11.327  17.793  0.00  0.00    +0.000 A 
ATOM      5  C   UNL     1      -2.974  11.770  18.929  0.00  0.00    +0.000 A 
ATOM      6  C   UNL     1      -1.625  11.390  19.003  0.00  0.00    +0.000 A 
ATOM      7  C   UNL     1      -3.660  12.671  19.976  0.00  0.00    +0.000 C 
ATOM      8  C   UNL     1      -5.166  12.466  20.280  0.00  0.00    +0.000 A 
ATOM      9  C   UNL     1      -5.757  13.303  21.240  0.00  0.00    +0.000 A 
ATOM     10  C   UNL     1      -7.044  13.065  21.740  0.00  0.00    +0.000 A 
ATOM     11  C   UNL     1      -7.767  11.969  21.309  0.00  0.00    +0.000 A 
ATOM     12  C   UNL     1      -7.286  11.249  20.230  0.00  0.00    +0.000 A 
ATOM     13  C   UNL     1      -6.044  11.572  19.641  0.00  0.00    +0.000 A 
ATOM     14  C   UNL     1      -5.832  11.021  18.259  0.00  0.00    +0.000 C 
ATOM     15  O   UNL     1      -4.900  11.796  17.515  0.00  0.00    +0.000 OA
ENDROOT
BRANCH   7  16
ATOM     16  C   UNL     1      -2.803  12.914  21.278  0.00  0.00    +0.000 C 
ATOM     17  O   UNL     1      -3.097  12.302  22.322  0.00  0.00    +0.000 OA
ATOM     18  N   UNL     1      -1.689  13.734  21.374  0.00  0.00    +0.000 N 
ATOM     19  H   UNL     1      -1.247  13.665  22.282  0.00  0.00    +0.000 HD
BRANCH  18  20
ATOM     20  C   UNL     1      -1.259  14.830  20.594  0.00  0.00    +0.000 A 
ATOM     21  C   UNL     1      -0.014  14.799  19.888  0.00  0.00    +0.000 A 
ATOM     22  C   UNL     1       0.475  16.023  19.402  0.00  0.00    +0.000 A 
ATOM     23  C   UNL     1      -0.277  17.179  19.440  0.00  0.00    +0.000 A 
ATOM     24  C   UNL     1      -1.579  17.133  19.917  0.00  0.00    +0.000 A 
ATOM     25  C   UNL     1      -2.128  15.968  20.486  0.00  0.00    +0.000 A 
BRANCH  21  26
ATOM     26  C   UNL     1       0.873  13.558  19.656  0.00  0.00    +0.000 C 
ATOM     27  C   UNL     1       1.495  13.428  18.263  0.00  0.00    +0.000 C 
ATOM     28  C   UNL     1       2.043  13.321  20.646  0.00  0.00    +0.000 C 
ENDBRANCH  21  26
BRANCH  25  29
ATOM     29  C   UNL     1      -3.545  16.074  21.103  0.00  0.00    +0.000 C 
ATOM     30  C   UNL     1      -3.593  16.653  22.541  0.00  0.00    +0.000 C 
ATOM     31  C   UNL     1      -4.661  16.744  20.298  0.00  0.00    +0.000 C 
ENDBRANCH  25  29
ENDBRANCH  18  20
ENDBRANCH   7  16
BRANCH   1  33
ATOM     32  C   UNL     1       0.391   9.891  19.960  0.00  0.00    +0.000 C 
ATOM     33  O   UNL     1       0.134   9.920  18.560  0.00  0.00    +0.000 OA
ENDBRANCH   1  33
TORSDOF 5
ENDMDL
MODEL 8
REMARK VINA RESULT:      -6.7      2.394      6.331
REMARK  Name = 
REMARK  10 active torsions:
REMARK  status: ('A' for Active; 'I' for Inactive)
REMARK    1  A    between atoms: C_1  and  O_2
REMARK    2  A    between atoms: O_2  and  C_3
REMARK    3  A    between atoms: C_9  and  C_10
REMARK    4  A    between atoms: N_12  and  C_13
REMARK    5  A    between atoms: C_14  and  C_15
REMARK    6  A    between atoms: C_15  and  C_16
REMARK    7  A    between atoms: C_15  and  C_17
REMARK    8  A    between atoms: C_21  and  C_22
REMARK    9  A    between atoms: C_22  and  C_23
REMARK   10  A    between atoms: C_22  and  C_24
REMARK                            x       y       z     vdW  Elec       q    Type
REMARK                         _______ _______ _______ _____ _____    ______ ____
ROOT
ATOM      1  C   UNL     1      -0.939  10.515  18.511  0.00  0.00    +0.000 A 
ATOM      2  C   UNL     1      -1.691  10.117  17.409  0.00  0.00    +0.000 A 
ATOM      3  C   UNL     1      -2.928  10.708  17.188  0.00  0.00    +0.000 A 
ATOM      4  C   UNL     1      -3.458  11.571  18.149  0.00  0.00    +0.000 A 
ATOM      5  C   UNL     1      -2.790  11.907  19.328  0.00  0.00    +0.000 A 
ATOM      6  C   UNL     1      -1.458  11.472  19.403  0.00  0.00    +0.000 A 
ATOM      7  C   UNL     1      -3.467  12.753  20.424  0.00  0.00    +0.000 C 
ATOM      8  C   UNL     1      -4.987  12.582  20.682  0.00  0.00    +0.000 A 
ATOM      9  C   UNL     1      -5.569  13.369  21.689  0.00  0.00    +0.000 A 
ATOM     10  C   UNL     1      -6.876  13.142  22.144  0.00  0.00    +0.000 A 
ATOM     11  C   UNL     1      -7.626  12.108  21.619  0.00  0.00    +0.000 A 
ATOM     12  C   UNL     1      -7.147  11.451  20.500  0.00  0.00    +0.000 A 
ATOM     13  C   UNL     1      -5.880  11.770  19.962  0.00  0.00    +0.000 A 
ATOM     14  C   UNL     1      -5.656  11.313  18.547  0.00  0.00    +0.000 C 
ATOM     15  O   UNL     1      -4.680  12.105  17.882  0.00  0.00    +0.000 OA
ENDROOT
BRANCH   7  16
ATOM     16  C   UNL     1      -2.633  12.870  21.758  0.00  0.00    +0.000 C 
ATOM     17  O   UNL     1      -2.509  11.868  22.487  0.00  0.00    +0.000 OA
ATOM     18  N   UNL     1      -1.962  14.001  22.198  0.00  0.00    +0.000 N 
ATOM     19  H   UNL     1      -1.419  13.817  23.032  0.00  0.00    +0.000 HD
BRANCH  18  20
ATOM     20  C   UNL     1      -2.132  15.370  21.899  0.00  0.00    +0.000 A 
ATOM     21  C   UNL     1      -1.457  15.982  20.794  0.00  0.00    +0.000 A 
ATOM     22  C   UNL     1      -1.435  17.386  20.757  0.00  0.00    +0.000 A 
ATOM     23  C   UNL     1      -2.171  18.153  21.636  0.00  0.00    +0.000 A 
ATOM     24  C   UNL     1      -3.007  17.532  22.552  0.00  0.00    +0.000 A 
ATOM     25  C   UNL     1      -3.043  16.133  22.707  0.00  0.00    +0.000 A 
BRANCH  21  26
ATOM     26  C   UNL     1      -0.700  15.248  19.667  0.00  0.00    +0.000 C 
ATOM     27  C   UNL     1      -0.314  16.097  18.453  0.00  0.00    +0.000 C 
ATOM     28  C   UNL     1       0.592  14.482  20.054  0.00  0.00    +0.000 C 
ENDBRANCH  21  26
BRANCH  25  29
ATOM     29  C   UNL     1      -3.917  15.562  23.850  0.00  0.00    +0.000 C 
ATOM     30  C   UNL     1      -3.186  15.375  25.205  0.00  0.00    +0.000 C 
ATOM     31  C   UNL     1      -5.275  16.206  24.143  0.00  0.00    +0.000 C 
ENDBRANCH  25  29
ENDBRANCH  18  20
ENDBRANCH   7  16
BRANCH   1  33
ATOM     32  C   UNL     1       0.494   9.863  20.288  0.00  0.00    +0.000 C 
ATOM     33  O   UNL     1       0.260   9.975  18.889  0.00  0.00    +0.000 OA
ENDBRANCH   1  33
TORSDOF 5
ENDMDL
MODEL 9
REMARK VINA RESULT:      -6.6      2.625      6.289
REMARK  Name = 
REMARK  10 active torsions:
REMARK  status: ('A' for Active; 'I' for Inactive)
REMARK    1  A    between atoms: C_1  and  O_2
REMARK    2  A    between atoms: O_2  and  C_3
REMARK    3  A    between atoms: C_9  and  C_10
REMARK    4  A    between atoms: N_12  and  C_13
REMARK    5  A    between atoms: C_14  and  C_15
REMARK    6  A    between atoms: C_15  and  C_16
REMARK    7  A    between atoms: C_15  and  C_17
REMARK    8  A    between atoms: C_21  and  C_22
REMARK    9  A    between atoms: C_22  and  C_23
REMARK   10  A    between atoms: C_22  and  C_24
REMARK                            x       y       z     vdW  Elec       q    Type
REMARK                         _______ _______ _______ _____ _____    ______ ____
ROOT
ATOM      1  C   UNL     1      -0.501  10.284  18.849  0.00  0.00    +0.000 A 
ATOM      2  C   UNL     1      -1.295  10.068  17.727  0.00  0.00    +0.000 A 
ATOM      3  C   UNL     1      -2.436  10.839  17.550  0.00  0.00    +0.000 A 
ATOM      4  C   UNL     1      -2.845  11.704  18.567  0.00  0.00    +0.000 A 
ATOM      5  C   UNL     1      -2.144  11.865  19.763  0.00  0.00    +0.000 A 
ATOM      6  C   UNL     1      -0.886  11.244  19.804  0.00  0.00    +0.000 A 
ATOM      7  C   UNL     1      -2.702  12.725  20.915  0.00  0.00    +0.000 C 
ATOM      8  C   UNL     1      -4.232  12.752  21.167  0.00  0.00    +0.000 A 
ATOM      9  C   UNL     1      -4.704  13.545  22.224  0.00  0.00    +0.000 A 
ATOM     10  C   UNL     1      -6.032  13.474  22.668  0.00  0.00    +0.000 A 
ATOM     11  C   UNL     1      -6.917  12.592  22.080  0.00  0.00    +0.000 A 
ATOM     12  C   UNL     1      -6.528  11.948  20.918  0.00  0.00    +0.000 A 
ATOM     13  C   UNL     1      -5.226  12.121  20.398  0.00  0.00    +0.000 A 
ATOM     14  C   UNL     1      -5.060  11.731  18.956  0.00  0.00    +0.000 C 
ATOM     15  O   UNL     1      -3.980  12.420  18.340  0.00  0.00    +0.000 OA
ENDROOT
BRANCH   7  16
ATOM     16  C   UNL     1      -1.867  12.636  22.250  0.00  0.00    +0.000 C 
ATOM     17  O   UNL     1      -1.939  11.606  22.945  0.00  0.00    +0.000 OA
ATOM     18  N   UNL     1      -0.995  13.604  22.727  0.00  0.00    +0.000 N 
ATOM     19  H   UNL     1      -0.501  13.292  23.553  0.00  0.00    +0.000 HD
BRANCH  18  20
ATOM     20  C   UNL     1      -0.900  14.990  22.474  0.00  0.00    +0.000 A 
ATOM     21  C   UNL     1      -0.163  15.495  21.356  0.00  0.00    +0.000 A 
ATOM     22  C   UNL     1       0.137  16.868  21.356  0.00  0.00    +0.000 A 
ATOM     23  C   UNL     1      -0.394  17.733  22.290  0.00  0.00    +0.000 A 
ATOM     24  C   UNL     1      -1.298  17.257  23.228  0.00  0.00    +0.000 A 
ATOM     25  C   UNL     1      -1.606  15.888  23.346  0.00  0.00    +0.000 A 
BRANCH  21  26
ATOM     26  C   UNL     1       0.383  14.668  20.173  0.00  0.00    +0.000 C 
ATOM     27  C   UNL     1      -0.248  14.949  18.807  0.00  0.00    +0.000 C 
ATOM     28  C   UNL     1       1.914  14.699  19.927  0.00  0.00    +0.000 C 
ENDBRANCH  21  26
BRANCH  25  29
ATOM     29  C   UNL     1      -2.528  15.460  24.513  0.00  0.00    +0.000 C 
ATOM     30  C   UNL     1      -1.833  15.356  25.896  0.00  0.00    +0.000 C 
ATOM     31  C   UNL     1      -3.858  16.190  24.720  0.00  0.00    +0.000 C 
ENDBRANCH  25  29
ENDBRANCH  18  20
ENDBRANCH   7  16
BRANCH   1  33
ATOM     32  C   UNL     1       1.528   9.275  18.140  0.00  0.00    +0.000 C 
ATOM     33  O   UNL     1       0.608   9.558  19.187  0.00  0.00    +0.000 OA
ENDBRANCH   1  33
TORSDOF 5
ENDMDL
