MODEL 1
REMARK VINA RESULT:      -9.2      0.000      0.000
REMARK  Name = 
REMARK  5 active torsions:
REMARK  status: ('A' for Active; 'I' for Inactive)
REMARK    1  A    between atoms: C_1  and  N_2
REMARK    2  A    between atoms: N_2  and  C_3
REMARK    3  A    between atoms: N_2  and  C_4
REMARK    4  A    between atoms: C_11  and  C_12
REMARK    5  A    between atoms: C_17  and  C_18
REMARK                            x       y       z     vdW  Elec       q    Type
REMARK                         _______ _______ _______ _____ _____    ______ ____
ROOT
ATOM      1  C   UNL     1      -0.426  10.976  20.799  0.00  0.00    +0.000 A 
ATOM      2  C   UNL     1      -0.161   9.960  21.630  0.00  0.00    +0.000 A 
ATOM      3  O   UNL     1       0.549   8.828  21.332  0.00  0.00    +0.000 OA
ATOM      4  C   UNL     1       1.119   8.775  20.090  0.00  0.00    +0.000 A 
ATOM      5  C   UNL     1       1.952   7.650  19.854  0.00  0.00    +0.000 A 
ATOM      6  C   UNL     1       2.568   7.550  18.610  0.00  0.00    +0.000 A 
ATOM      7  C   UNL     1       2.314   8.530  17.639  0.00  0.00    +0.000 A 
ATOM      8  C   UNL     1       1.509   9.631  17.862  0.00  0.00    +0.000 A 
ATOM      9  C   UNL     1       0.923   9.763  19.126  0.00  0.00    +0.000 A 
ATOM     10  C   UNL     1       0.111  10.958  19.417  0.00  0.00    +0.000 A 
ATOM     11  O   UNL     1      -0.093  11.833  18.597  0.00  0.00    +0.000 OA
ENDROOT
BRANCH   1  19
ATOM     12  C   UNL     1      -5.371  16.109  23.947  0.00  0.00    +0.000 C 
ATOM     13  C   UNL     1      -4.200  16.352  24.920  0.00  0.00    +0.000 C 
ATOM     14  C   UNL     1      -2.943  15.998  24.141  0.00  0.00    +0.000 C 
ATOM     15  N   UNL     1      -3.408  14.928  23.287  0.00  0.00    +0.000 N 
ATOM     16  C   UNL     1      -2.601  14.081  22.582  0.00  0.00    +0.000 A 
ATOM     17  C   UNL     1      -1.290  13.836  22.988  0.00  0.00    +0.000 A 
ATOM     18  C   UNL     1      -0.541  12.851  22.364  0.00  0.00    +0.000 A 
ATOM     19  C   UNL     1      -1.114  12.129  21.330  0.00  0.00    +0.000 A 
ATOM     20  C   UNL     1      -2.399  12.460  20.933  0.00  0.00    +0.000 A 
ATOM     21  N   UNL     1      -3.141  13.408  21.540  0.00  0.00    +0.000 NA
ATOM     22  C   UNL     1      -4.769  15.193  22.831  0.00  0.00    +0.000 C 
BRANCH  12  24
ATOM     23  C   UNL     1      -5.469  18.004  22.381  0.00  0.00    +0.000 C 
ATOM     24  N   UNL     1      -6.073  17.335  23.534  0.00  0.00    +0.000 NA
ATOM     25  C   UNL     1      -7.489  17.059  23.258  0.00  0.00    +0.000 C 
ENDBRANCH  12  24
ENDBRANCH   1  19
BRANCH   6  26
ATOM     26  C   UNL     1       3.448   6.422  18.235  0.00  0.00    +0.000 C 
ATOM     27  C   UNL     1       4.810   6.327  18.214  0.00  0.00    +0.000 C 
ATOM     28  C   UNL     1       5.516   4.934  18.505  0.00  0.00    +0.000 C 
ATOM     29  C   UNL     1       4.534   3.754  18.888  0.00  0.00    +0.000 C 
ATOM     30  O   UNL     1       5.014   2.766  19.805  0.00  0.00    +0.000 OA
ATOM     31  C   UNL     1       3.882   1.970  20.266  0.00  0.00    +0.000 C 
ATOM     32  C   UNL     1       2.964   2.867  21.083  0.00  0.00    +0.000 C 
ATOM     33  O   UNL     1       2.307   3.693  20.115  0.00  0.00    +0.000 OA
ATOM     34  C   UNL     1       3.304   4.462  19.444  0.00  0.00    +0.000 C 
ATOM     35  C   UNL     1       2.774   5.091  18.178  0.00  0.00    +0.000 C 
ENDBRANCH   6  26
TORSDOF 3
ENDMDL
MODEL 2
REMARK VINA RESULT:      -9.2      1.146      1.601
REMARK  Name = 
REMARK  5 active torsions:
REMARK  status: ('A' for Active; 'I' for Inactive)
REMARK    1  A    between atoms: C_1  and  N_2
REMARK    2  A    between atoms: N_2  and  C_3
REMARK    3  A    between atoms: N_2  and  C_4
REMARK    4  A    between atoms: C_11  and  C_12
REMARK    5  A    between atoms: C_17  and  C_18
REMARK                            x       y       z     vdW  Elec       q    Type
REMARK                         _______ _______ _______ _____ _____    ______ ____
ROOT
ATOM      1  C   UNL     1      -0.213  10.802  21.373  0.00  0.00    +0.000 A 
ATOM      2  C   UNL     1       0.148   9.725  22.083  0.00  0.00    +0.000 A 
ATOM      3  O   UNL     1       0.817   8.627  21.614  0.00  0.00    +0.000 OA
ATOM      4  C   UNL     1       1.237   8.678  20.314  0.00  0.00    +0.000 A 
ATOM      5  C   UNL     1       2.036   7.583  19.892  0.00  0.00    +0.000 A 
ATOM      6  C   UNL     1       2.502   7.589  18.580  0.00  0.00    +0.000 A 
ATOM      7  C   UNL     1       2.136   8.640  17.728  0.00  0.00    +0.000 A 
ATOM      8  C   UNL     1       1.363   9.713  18.131  0.00  0.00    +0.000 A 
ATOM      9  C   UNL     1       0.929   9.739  19.462  0.00  0.00    +0.000 A 
ATOM     10  C   UNL     1       0.158  10.899  19.941  0.00  0.00    +0.000 A 
ATOM     11  O   UNL     1      -0.141  11.835  19.223  0.00  0.00    +0.000 OA
ENDROOT
BRANCH   1  19
ATOM     12  C   UNL     1      -3.842  17.327  23.599  0.00  0.00    +0.000 C 
ATOM     13  C   UNL     1      -4.773  16.335  24.326  0.00  0.00    +0.000 C 
ATOM     14  C   UNL     1      -3.920  15.108  24.605  0.00  0.00    +0.000 C 
ATOM     15  N   UNL     1      -3.034  15.088  23.462  0.00  0.00    +0.000 N 
ATOM     16  C   UNL     1      -2.251  14.032  23.096  0.00  0.00    +0.000 A 
ATOM     17  C   UNL     1      -2.583  12.729  23.467  0.00  0.00    +0.000 A 
ATOM     18  C   UNL     1      -1.876  11.657  22.949  0.00  0.00    +0.000 A 
ATOM     19  C   UNL     1      -0.833  11.903  22.071  0.00  0.00    +0.000 A 
ATOM     20  C   UNL     1      -0.513  13.220  21.788  0.00  0.00    +0.000 A 
ATOM     21  N   UNL     1      -1.201  14.272  22.277  0.00  0.00    +0.000 NA
ATOM     22  C   UNL     1      -2.654  16.448  23.088  0.00  0.00    +0.000 C 
BRANCH  12  24
ATOM     23  C   UNL     1      -4.252  18.630  25.645  0.00  0.00    +0.000 C 
ATOM     24  N   UNL     1      -3.525  18.535  24.379  0.00  0.00    +0.000 NA
ATOM     25  C   UNL     1      -2.080  18.629  24.631  0.00  0.00    +0.000 C 
ENDBRANCH  12  24
ENDBRANCH   1  19
BRANCH   6  26
ATOM     26  C   UNL     1       3.331   6.502  18.016  0.00  0.00    +0.000 C 
ATOM     27  C   UNL     1       4.675   6.441  17.781  0.00  0.00    +0.000 C 
ATOM     28  C   UNL     1       5.440   5.052  17.886  0.00  0.00    +0.000 C 
ATOM     29  C   UNL     1       4.547   3.832  18.352  0.00  0.00    +0.000 C 
ATOM     30  O   UNL     1       5.180   2.811  19.131  0.00  0.00    +0.000 OA
ATOM     31  C   UNL     1       4.146   1.966  19.718  0.00  0.00    +0.000 C 
ATOM     32  C   UNL     1       3.350   2.799  20.712  0.00  0.00    +0.000 C 
ATOM     33  O   UNL     1       2.539   3.656  19.902  0.00  0.00    +0.000 OA
ATOM     34  C   UNL     1       3.408   4.481  19.127  0.00  0.00    +0.000 C 
ATOM     35  C   UNL     1       2.678   5.160  17.993  0.00  0.00    +0.000 C 
ENDBRANCH   6  26
TORSDOF 3
ENDMDL
MODEL 3
REMARK VINA RESULT:      -9.1      4.519     12.163
REMARK  Name = 
REMARK  5 active torsions:
REMARK  status: ('A' for Active; 'I' for Inactive)
REMARK    1  A    between atoms: C_1  and  N_2
REMARK    2  A    between atoms: N_2  and  C_3
REMARK    3  A    between atoms: N_2  and  C_4
REMARK    4  A    between atoms: C_11  and  C_12
REMARK    5  A    between atoms: C_17  and  C_18
REMARK                            x       y       z     vdW  Elec       q    Type
REMARK                         _______ _______ _______ _____ _____    ______ ____
ROOT
ATOM      1  C   UNL     1       1.202   8.761  19.514  0.00  0.00    +0.000 A 
ATOM      2  C   UNL     1       0.834   9.878  18.872  0.00  0.00    +0.000 A 
ATOM      3  O   UNL     1       0.055  10.886  19.374  0.00  0.00    +0.000 OA
ATOM      4  C   UNL     1      -0.304  10.782  20.689  0.00  0.00    +0.000 A 
ATOM      5  C   UNL     1      -1.004  11.900  21.215  0.00  0.00    +0.000 A 
ATOM      6  C   UNL     1      -1.385  11.854  22.554  0.00  0.00    +0.000 A 
ATOM      7  C   UNL     1      -1.102  10.705  23.307  0.00  0.00    +0.000 A 
ATOM      8  C   UNL     1      -0.417   9.615  22.804  0.00  0.00    +0.000 A 
ATOM      9  C   UNL     1       0.010   9.672  21.473  0.00  0.00    +0.000 A 
ATOM     10  C   UNL     1       0.798   8.554  20.926  0.00  0.00    +0.000 A 
ATOM     11  O   UNL     1       1.080   7.565  21.575  0.00  0.00    +0.000 OA
ENDROOT
BRANCH   1  19
ATOM     12  C   UNL     1       7.016   5.259  15.688  0.00  0.00    +0.000 C 
ATOM     13  C   UNL     1       7.066   4.381  16.954  0.00  0.00    +0.000 C 
ATOM     14  C   UNL     1       5.657   4.411  17.525  0.00  0.00    +0.000 C 
ATOM     15  N   UNL     1       5.217   5.743  17.175  0.00  0.00    +0.000 N 
ATOM     16  C   UNL     1       4.118   6.367  17.693  0.00  0.00    +0.000 A 
ATOM     17  C   UNL     1       3.609   6.006  18.940  0.00  0.00    +0.000 A 
ATOM     18  C   UNL     1       2.603   6.757  19.524  0.00  0.00    +0.000 A 
ATOM     19  C   UNL     1       2.108   7.857  18.844  0.00  0.00    +0.000 A 
ATOM     20  C   UNL     1       2.612   8.129  17.584  0.00  0.00    +0.000 A 
ATOM     21  N   UNL     1       3.599   7.413  17.010  0.00  0.00    +0.000 NA
ATOM     22  C   UNL     1       5.718   6.116  15.856  0.00  0.00    +0.000 C 
BRANCH  12  24
ATOM     23  C   UNL     1       5.957   3.944  13.898  0.00  0.00    +0.000 C 
ATOM     24  N   UNL     1       7.196   4.513  14.432  0.00  0.00    +0.000 NA
ATOM     25  C   UNL     1       7.833   5.356  13.410  0.00  0.00    +0.000 C 
ENDBRANCH  12  24
ENDBRANCH   1  19
BRANCH   6  26
ATOM     26  C   UNL     1      -2.128  12.946  23.217  0.00  0.00    +0.000 C 
ATOM     27  C   UNL     1      -1.993  14.302  23.115  0.00  0.00    +0.000 C 
ATOM     28  C   UNL     1      -3.261  15.244  23.283  0.00  0.00    +0.000 C 
ATOM     29  C   UNL     1      -4.635  14.485  23.481  0.00  0.00    +0.000 C 
ATOM     30  O   UNL     1      -5.812  15.101  22.948  0.00  0.00    +0.000 OA
ATOM     31  C   UNL     1      -6.891  14.120  22.948  0.00  0.00    +0.000 C 
ATOM     32  C   UNL     1      -6.535  13.012  21.968  0.00  0.00    +0.000 C 
ATOM     33  O   UNL     1      -5.513  12.257  22.628  0.00  0.00    +0.000 OA
ATOM     34  C   UNL     1      -4.399  13.120  22.846  0.00  0.00    +0.000 C 
ATOM     35  C   UNL     1      -3.421  12.540  23.841  0.00  0.00    +0.000 C 
ENDBRANCH   6  26
TORSDOF 3
ENDMDL
MODEL 4
REMARK VINA RESULT:      -9.1      4.466     12.049
REMARK  Name = 
REMARK  5 active torsions:
REMARK  status: ('A' for Active; 'I' for Inactive)
REMARK    1  A    between atoms: C_1  and  N_2
REMARK    2  A    between atoms: N_2  and  C_3
REMARK    3  A    between atoms: N_2  and  C_4
REMARK    4  A    between atoms: C_11  and  C_12
REMARK    5  A    between atoms: C_17  and  C_18
REMARK                            x       y       z     vdW  Elec       q    Type
REMARK                         _______ _______ _______ _____ _____    ______ ____
ROOT
ATOM      1  C   UNL     1       1.187   9.164  20.250  0.00  0.00    +0.000 A 
ATOM      2  C   UNL     1       1.304   9.158  21.584  0.00  0.00    +0.000 A 
ATOM      3  O   UNL     1       0.627   9.960  22.464  0.00  0.00    +0.000 OA
ATOM      4  C   UNL     1      -0.326  10.782  21.931  0.00  0.00    +0.000 A 
ATOM      5  C   UNL     1      -1.096  11.509  22.877  0.00  0.00    +0.000 A 
ATOM      6  C   UNL     1      -2.090  12.354  22.390  0.00  0.00    +0.000 A 
ATOM      7  C   UNL     1      -2.261  12.483  21.004  0.00  0.00    +0.000 A 
ATOM      8  C   UNL     1      -1.520  11.776  20.076  0.00  0.00    +0.000 A 
ATOM      9  C   UNL     1      -0.550  10.889  20.558  0.00  0.00    +0.000 A 
ATOM     10  C   UNL     1       0.214  10.073  19.598  0.00  0.00    +0.000 A 
ATOM     11  O   UNL     1       0.055  10.149  18.394  0.00  0.00    +0.000 OA
ENDROOT
BRANCH   1  19
ATOM     12  C   UNL     1       6.323   4.999  16.129  0.00  0.00    +0.000 C 
ATOM     13  C   UNL     1       6.163   4.003  17.295  0.00  0.00    +0.000 C 
ATOM     14  C   UNL     1       4.770   4.250  17.852  0.00  0.00    +0.000 C 
ATOM     15  N   UNL     1       4.608   5.672  17.642  0.00  0.00    +0.000 N 
ATOM     16  C   UNL     1       3.637   6.443  18.213  0.00  0.00    +0.000 A 
ATOM     17  C   UNL     1       3.030   6.063  19.410  0.00  0.00    +0.000 A 
ATOM     18  C   UNL     1       2.171   6.933  20.061  0.00  0.00    +0.000 A 
ATOM     19  C   UNL     1       1.920   8.173  19.497  0.00  0.00    +0.000 A 
ATOM     20  C   UNL     1       2.505   8.468  18.277  0.00  0.00    +0.000 A 
ATOM     21  N   UNL     1       3.351   7.635  17.640  0.00  0.00    +0.000 NA
ATOM     22  C   UNL     1       5.212   6.072  16.374  0.00  0.00    +0.000 C 
BRANCH  12  24
ATOM     23  C   UNL     1       5.104   4.293  14.112  0.00  0.00    +0.000 C 
ATOM     24  N   UNL     1       6.392   4.365  14.802  0.00  0.00    +0.000 NA
ATOM     25  C   UNL     1       7.373   5.048  13.947  0.00  0.00    +0.000 C 
ENDBRANCH  12  24
ENDBRANCH   1  19
BRANCH   6  26
ATOM     26  C   UNL     1      -2.951  13.173  23.270  0.00  0.00    +0.000 C 
ATOM     27  C   UNL     1      -3.033  14.529  23.420  0.00  0.00    +0.000 C 
ATOM     28  C   UNL     1      -4.419  15.205  23.803  0.00  0.00    +0.000 C 
ATOM     29  C   UNL     1      -5.644  14.209  23.899  0.00  0.00    +0.000 C 
ATOM     30  O   UNL     1      -6.933  14.710  23.529  0.00  0.00    +0.000 OA
ATOM     31  C   UNL     1      -7.845  13.581  23.381  0.00  0.00    +0.000 C 
ATOM     32  C   UNL     1      -7.383  12.741  22.199  0.00  0.00    +0.000 C 
ATOM     33  O   UNL     1      -6.218  12.057  22.672  0.00  0.00    +0.000 OA
ATOM     34  C   UNL     1      -5.239  13.037  23.012  0.00  0.00    +0.000 C 
ATOM     35  C   UNL     1      -4.124  12.455  23.848  0.00  0.00    +0.000 C 
ENDBRANCH   6  26
TORSDOF 3
ENDMDL
MODEL 5
REMARK VINA RESULT:      -9.0      1.390      2.261
REMARK  Name = 
REMARK  5 active torsions:
REMARK  status: ('A' for Active; 'I' for Inactive)
REMARK    1  A    between atoms: C_1  and  N_2
REMARK    2  A    between atoms: N_2  and  C_3
REMARK    3  A    between atoms: N_2  and  C_4
REMARK    4  A    between atoms: C_11  and  C_12
REMARK    5  A    between atoms: C_17  and  C_18
REMARK                            x       y       z     vdW  Elec       q    Type
REMARK                         _______ _______ _______ _____ _____    ______ ____
ROOT
ATOM      1  C   UNL     1      -0.084  11.573  21.140  0.00  0.00    +0.000 A 
ATOM      2  C   UNL     1       0.054  11.777  19.824  0.00  0.00    +0.000 A 
ATOM      3  O   UNL     1       0.677  10.945  18.933  0.00  0.00    +0.000 OA
ATOM      4  C   UNL     1       1.120   9.748  19.422  0.00  0.00    +0.000 A 
ATOM      5  C   UNL     1       1.649   8.856  18.452  0.00  0.00    +0.000 A 
ATOM      6  C   UNL     1       2.104   7.616  18.893  0.00  0.00    +0.000 A 
ATOM      7  C   UNL     1       2.061   7.318  20.263  0.00  0.00    +0.000 A 
ATOM      8  C   UNL     1       1.544   8.178  21.213  0.00  0.00    +0.000 A 
ATOM      9  C   UNL     1       1.041   9.408  20.772  0.00  0.00    +0.000 A 
ATOM     10  C   UNL     1       0.425  10.321  21.751  0.00  0.00    +0.000 A 
ATOM     11  O   UNL     1       0.351  10.065  22.938  0.00  0.00    +0.000 OA
ENDROOT
BRANCH   1  19
ATOM     12  C   UNL     1      -4.175  17.629  23.842  0.00  0.00    +0.000 C 
ATOM     13  C   UNL     1      -5.246  16.549  24.094  0.00  0.00    +0.000 C 
ATOM     14  C   UNL     1      -4.478  15.251  24.286  0.00  0.00    +0.000 C 
ATOM     15  N   UNL     1      -3.345  15.437  23.407  0.00  0.00    +0.000 N 
ATOM     16  C   UNL     1      -2.491  14.448  23.009  0.00  0.00    +0.000 A 
ATOM     17  C   UNL     1      -2.896  13.114  22.995  0.00  0.00    +0.000 A 
ATOM     18  C   UNL     1      -2.080  12.146  22.432  0.00  0.00    +0.000 A 
ATOM     19  C   UNL     1      -0.859  12.526  21.900  0.00  0.00    +0.000 A 
ATOM     20  C   UNL     1      -0.488  13.856  21.998  0.00  0.00    +0.000 A 
ATOM     21  N   UNL     1      -1.277  14.809  22.533  0.00  0.00    +0.000 NA
ATOM     22  C   UNL     1      -2.894  16.825  23.442  0.00  0.00    +0.000 C 
BRANCH  12  24
ATOM     23  C   UNL     1      -5.184  18.613  25.859  0.00  0.00    +0.000 C 
ATOM     24  N   UNL     1      -4.059  18.623  24.922  0.00  0.00    +0.000 NA
ATOM     25  C   UNL     1      -2.800  18.449  25.660  0.00  0.00    +0.000 C 
ENDBRANCH  12  24
ENDBRANCH   1  19
BRANCH   6  26
ATOM     26  C   UNL     1       2.687   6.604  17.986  0.00  0.00    +0.000 C 
ATOM     27  C   UNL     1       3.952   6.484  17.485  0.00  0.00    +0.000 C 
ATOM     28  C   UNL     1       4.555   5.047  17.178  0.00  0.00    +0.000 C 
ATOM     29  C   UNL     1       3.621   3.833  17.576  0.00  0.00    +0.000 C 
ATOM     30  O   UNL     1       4.257   2.626  18.013  0.00  0.00    +0.000 OA
ATOM     31  C   UNL     1       3.250   1.766  18.624  0.00  0.00    +0.000 C 
ATOM     32  C   UNL     1       2.746   2.440  19.892  0.00  0.00    +0.000 C 
ATOM     33  O   UNL     1       1.911   3.507  19.431  0.00  0.00    +0.000 OA
ATOM     34  C   UNL     1       2.721   4.400  18.667  0.00  0.00    +0.000 C 
ATOM     35  C   UNL     1       1.887   5.352  17.843  0.00  0.00    +0.000 C 
ENDBRANCH   6  26
TORSDOF 3
ENDMDL
MODEL 6
REMARK VINA RESULT:      -8.9      1.106      1.213
REMARK  Name = 
REMARK  5 active torsions:
REMARK  status: ('A' for Active; 'I' for Inactive)
REMARK    1  A    between atoms: C_1  and  N_2
REMARK    2  A    between atoms: N_2  and  C_3
REMARK    3  A    between atoms: N_2  and  C_4
REMARK    4  A    between atoms: C_11  and  C_12
REMARK    5  A    between atoms: C_17  and  C_18
REMARK                            x       y       z     vdW  Elec       q    Type
REMARK                         _______ _______ _______ _____ _____    ______ ____
ROOT
ATOM      1  C   UNL     1      -0.184  11.096  20.915  0.00  0.00    +0.000 A 
ATOM      2  C   UNL     1       0.016  10.095  21.782  0.00  0.00    +0.000 A 
ATOM      3  O   UNL     1       0.654   8.911  21.526  0.00  0.00    +0.000 OA
ATOM      4  C   UNL     1       1.220   8.779  20.289  0.00  0.00    +0.000 A 
ATOM      5  C   UNL     1       1.980   7.595  20.095  0.00  0.00    +0.000 A 
ATOM      6  C   UNL     1       2.590   7.413  18.857  0.00  0.00    +0.000 A 
ATOM      7  C   UNL     1       2.399   8.372  17.851  0.00  0.00    +0.000 A 
ATOM      8  C   UNL     1       1.665   9.529  18.033  0.00  0.00    +0.000 A 
ATOM      9  C   UNL     1       1.087   9.743  19.290  0.00  0.00    +0.000 A 
ATOM     10  C   UNL     1       0.352  10.996  19.536  0.00  0.00    +0.000 A 
ATOM     11  O   UNL     1       0.204  11.853  18.685  0.00  0.00    +0.000 OA
ENDROOT
BRANCH   1  19
ATOM     12  C   UNL     1      -4.369  16.593  24.516  0.00  0.00    +0.000 C 
ATOM     13  C   UNL     1      -2.977  17.143  24.884  0.00  0.00    +0.000 C 
ATOM     14  C   UNL     1      -2.047  16.669  23.779  0.00  0.00    +0.000 C 
ATOM     15  N   UNL     1      -2.623  15.390  23.427  0.00  0.00    +0.000 N 
ATOM     16  C   UNL     1      -2.008  14.435  22.670  0.00  0.00    +0.000 A 
ATOM     17  C   UNL     1      -0.617  14.375  22.583  0.00  0.00    +0.000 A 
ATOM     18  C   UNL     1      -0.006  13.304  21.951  0.00  0.00    +0.000 A 
ATOM     19  C   UNL     1      -0.798  12.309  21.402  0.00  0.00    +0.000 A 
ATOM     20  C   UNL     1      -2.173  12.455  21.470  0.00  0.00    +0.000 A 
ATOM     21  N   UNL     1      -2.779  13.486  22.091  0.00  0.00    +0.000 NA
ATOM     22  C   UNL     1      -4.081  15.454  23.484  0.00  0.00    +0.000 C 
BRANCH  12  24
ATOM     23  C   UNL     1      -6.616  17.099  23.650  0.00  0.00    +0.000 C 
ATOM     24  N   UNL     1      -5.346  17.631  24.147  0.00  0.00    +0.000 NA
ATOM     25  C   UNL     1      -5.599  18.536  25.277  0.00  0.00    +0.000 C 
ENDBRANCH  12  24
ENDBRANCH   1  19
BRANCH   6  26
ATOM     26  C   UNL     1       3.397   6.219  18.525  0.00  0.00    +0.000 C 
ATOM     27  C   UNL     1       4.542   5.735  19.092  0.00  0.00    +0.000 C 
ATOM     28  C   UNL     1       4.820   4.172  19.116  0.00  0.00    +0.000 C 
ATOM     29  C   UNL     1       3.655   3.277  18.526  0.00  0.00    +0.000 C 
ATOM     30  O   UNL     1       3.458   1.983  19.105  0.00  0.00    +0.000 OA
ATOM     31  C   UNL     1       2.172   1.464  18.656  0.00  0.00    +0.000 C 
ATOM     32  C   UNL     1       1.071   2.338  19.238  0.00  0.00    +0.000 C 
ATOM     33  O   UNL     1       1.127   3.550  18.477  0.00  0.00    +0.000 OA
ATOM     34  C   UNL     1       2.410   4.140  18.684  0.00  0.00    +0.000 C 
ATOM     35  C   UNL     1       2.709   5.213  17.665  0.00  0.00    +0.000 C 
ENDBRANCH   6  26
TORSDOF 3
ENDMDL
MODEL 7
REMARK VINA RESULT:      -8.9      1.240      1.913
REMARK  Name = 
REMARK  5 active torsions:
REMARK  status: ('A' for Active; 'I' for Inactive)
REMARK    1  A    between atoms: C_1  and  N_2
REMARK    2  A    between atoms: N_2  and  C_3
REMARK    3  A    between atoms: N_2  and  C_4
REMARK    4  A    between atoms: C_11  and  C_12
REMARK    5  A    between atoms: C_17  and  C_18
REMARK                            x       y       z     vdW  Elec       q    Type
REMARK                         _______ _______ _______ _____ _____    ______ ____
ROOT
ATOM      1  C   UNL     1      -0.647  11.434  20.273  0.00  0.00    +0.000 A 
ATOM      2  C   UNL     1      -0.193  11.529  19.016  0.00  0.00    +0.000 A 
ATOM      3  O   UNL     1       0.673  10.669  18.397  0.00  0.00    +0.000 OA
ATOM      4  C   UNL     1       1.037   9.556  19.103  0.00  0.00    +0.000 A 
ATOM      5  C   UNL     1       1.834   8.621  18.391  0.00  0.00    +0.000 A 
ATOM      6  C   UNL     1       2.224   7.463  19.057  0.00  0.00    +0.000 A 
ATOM      7  C   UNL     1       1.854   7.286  20.398  0.00  0.00    +0.000 A 
ATOM      8  C   UNL     1       1.074   8.188  21.097  0.00  0.00    +0.000 A 
ATOM      9  C   UNL     1       0.638   9.333  20.421  0.00  0.00    +0.000 A 
ATOM     10  C   UNL     1      -0.247  10.283  21.118  0.00  0.00    +0.000 A 
ATOM     11  O   UNL     1      -0.604  10.129  22.270  0.00  0.00    +0.000 OA
ENDROOT
BRANCH   1  19
ATOM     12  C   UNL     1      -6.921  15.245  22.883  0.00  0.00    +0.000 C 
ATOM     13  C   UNL     1      -5.927  15.773  23.937  0.00  0.00    +0.000 C 
ATOM     14  C   UNL     1      -4.563  15.727  23.267  0.00  0.00    +0.000 C 
ATOM     15  N   UNL     1      -4.685  14.569  22.411  0.00  0.00    +0.000 N 
ATOM     16  C   UNL     1      -3.644  13.936  21.795  0.00  0.00    +0.000 A 
ATOM     17  C   UNL     1      -2.349  14.020  22.307  0.00  0.00    +0.000 A 
ATOM     18  C   UNL     1      -1.338  13.240  21.771  0.00  0.00    +0.000 A 
ATOM     19  C   UNL     1      -1.633  12.392  20.716  0.00  0.00    +0.000 A 
ATOM     20  C   UNL     1      -2.923  12.398  20.213  0.00  0.00    +0.000 A 
ATOM     21  N   UNL     1      -3.918  13.144  20.733  0.00  0.00    +0.000 NA
ATOM     22  C   UNL     1      -6.028  14.493  21.843  0.00  0.00    +0.000 C 
BRANCH  12  24
ATOM     23  C   UNL     1      -7.917  17.473  23.203  0.00  0.00    +0.000 C 
ATOM     24  N   UNL     1      -7.861  16.262  22.383  0.00  0.00    +0.000 NA
ATOM     25  C   UNL     1      -7.550  16.621  20.992  0.00  0.00    +0.000 C 
ENDBRANCH  12  24
ENDBRANCH   1  19
BRANCH   6  26
ATOM     26  C   UNL     1       3.064   6.419  18.431  0.00  0.00    +0.000 C 
ATOM     27  C   UNL     1       4.400   6.160  18.558  0.00  0.00    +0.000 C 
ATOM     28  C   UNL     1       4.937   4.670  18.434  0.00  0.00    +0.000 C 
ATOM     29  C   UNL     1       3.816   3.569  18.247  0.00  0.00    +0.000 C 
ATOM     30  O   UNL     1       4.057   2.278  18.816  0.00  0.00    +0.000 OA
ATOM     31  C   UNL     1       2.805   1.529  18.816  0.00  0.00    +0.000 C 
ATOM     32  C   UNL     1       1.834   2.214  19.766  0.00  0.00    +0.000 C 
ATOM     33  O   UNL     1       1.416   3.394  19.072  0.00  0.00    +0.000 OA
ATOM     34  C   UNL     1       2.569   4.205  18.849  0.00  0.00    +0.000 C 
ATOM     35  C   UNL     1       2.310   5.284  17.824  0.00  0.00    +0.000 C 
ENDBRANCH   6  26
TORSDOF 3
ENDMDL
MODEL 8
REMARK VINA RESULT:      -8.8      0.950      1.622
REMARK  Name = 
REMARK  5 active torsions:
REMARK  status: ('A' for Active; 'I' for Inactive)
REMARK    1  A    between atoms: C_1  and  N_2
REMARK    2  A    between atoms: N_2  and  C_3
REMARK    3  A    between atoms: N_2  and  C_4
REMARK    4  A    between atoms: C_11  and  C_12
REMARK    5  A    between atoms: C_17  and  C_18
REMARK                            x       y       z     vdW  Elec       q    Type
REMARK                         _______ _______ _______ _____ _____    ______ ____
ROOT
ATOM      1  C   UNL     1      -0.098  11.892  20.530  0.00  0.00    +0.000 A 
ATOM      2  C   UNL     1       0.217  11.995  19.232  0.00  0.00    +0.000 A 
ATOM      3  O   UNL     1       0.909  11.079  18.487  0.00  0.00    +0.000 OA
ATOM      4  C   UNL     1       1.230   9.904  19.109  0.00  0.00    +0.000 A 
ATOM      5  C   UNL     1       1.835   8.925  18.278  0.00  0.00    +0.000 A 
ATOM      6  C   UNL     1       2.172   7.704  18.856  0.00  0.00    +0.000 A 
ATOM      7  C   UNL     1       1.941   7.507  20.225  0.00  0.00    +0.000 A 
ATOM      8  C   UNL     1       1.347   8.453  21.040  0.00  0.00    +0.000 A 
ATOM      9  C   UNL     1       0.963   9.665  20.457  0.00  0.00    +0.000 A 
ATOM     10  C   UNL     1       0.270  10.669  21.284  0.00  0.00    +0.000 A 
ATOM     11  O   UNL     1       0.032  10.502  22.465  0.00  0.00    +0.000 OA
ENDROOT
BRANCH   1  19
ATOM     12  C   UNL     1      -5.578  16.207  24.002  0.00  0.00    +0.000 C 
ATOM     13  C   UNL     1      -4.413  16.593  24.935  0.00  0.00    +0.000 C 
ATOM     14  C   UNL     1      -3.154  16.438  24.098  0.00  0.00    +0.000 C 
ATOM     15  N   UNL     1      -3.499  15.330  23.235  0.00  0.00    +0.000 N 
ATOM     16  C   UNL     1      -2.611  14.621  22.478  0.00  0.00    +0.000 A 
ATOM     17  C   UNL     1      -1.262  14.556  22.825  0.00  0.00    +0.000 A 
ATOM     18  C   UNL     1      -0.410  13.700  22.147  0.00  0.00    +0.000 A 
ATOM     19  C   UNL     1      -0.918  12.926  21.117  0.00  0.00    +0.000 A 
ATOM     20  C   UNL     1      -2.252  13.079  20.780  0.00  0.00    +0.000 A 
ATOM     21  N   UNL     1      -3.094  13.899  21.439  0.00  0.00    +0.000 NA
ATOM     22  C   UNL     1      -4.902  15.409  22.839  0.00  0.00    +0.000 C 
BRANCH  12  24
ATOM     23  C   UNL     1      -5.924  18.203  22.605  0.00  0.00    +0.000 C 
ATOM     24  N   UNL     1      -6.463  17.330  23.649  0.00  0.00    +0.000 NA
ATOM     25  C   UNL     1      -7.791  16.843  23.249  0.00  0.00    +0.000 C 
ENDBRANCH  12  24
ENDBRANCH   1  19
BRANCH   6  26
ATOM     26  C   UNL     1       2.818   6.608  18.102  0.00  0.00    +0.000 C 
ATOM     27  C   UNL     1       4.139   6.353  17.864  0.00  0.00    +0.000 C 
ATOM     28  C   UNL     1       4.645   4.855  17.710  0.00  0.00    +0.000 C 
ATOM     29  C   UNL     1       3.537   3.749  17.939  0.00  0.00    +0.000 C 
ATOM     30  O   UNL     1       3.952   2.506  18.516  0.00  0.00    +0.000 OA
ATOM     31  C   UNL     1       2.766   1.767  18.932  0.00  0.00    +0.000 C 
ATOM     32  C   UNL     1       2.093   2.533  20.062  0.00  0.00    +0.000 C 
ATOM     33  O   UNL     1       1.474   3.654  19.424  0.00  0.00    +0.000 OA
ATOM     34  C   UNL     1       2.501   4.438  18.818  0.00  0.00    +0.000 C 
ATOM     35  C   UNL     1       1.943   5.432  17.827  0.00  0.00    +0.000 C 
ENDBRANCH   6  26
TORSDOF 3
ENDMDL
MODEL 9
REMARK VINA RESULT:      -8.8      1.708      2.686
REMARK  Name = 
REMARK  5 active torsions:
REMARK  status: ('A' for Active; 'I' for Inactive)
REMARK    1  A    between atoms: C_1  and  N_2
REMARK    2  A    between atoms: N_2  and  C_3
REMARK    3  A    between atoms: N_2  and  C_4
REMARK    4  A    between atoms: C_11  and  C_12
REMARK    5  A    between atoms: C_17  and  C_18
REMARK                            x       y       z     vdW  Elec       q    Type
REMARK                         _______ _______ _______ _____ _____    ______ ____
ROOT
ATOM      1  C   UNL     1       0.009  10.464  20.661  0.00  0.00    +0.000 A 
ATOM      2  C   UNL     1       0.656  10.661  19.505  0.00  0.00    +0.000 A 
ATOM      3  O   UNL     1       1.486   9.773  18.875  0.00  0.00    +0.000 OA
ATOM      4  C   UNL     1       1.590   8.530  19.436  0.00  0.00    +0.000 A 
ATOM      5  C   UNL     1       2.356   7.593  18.695  0.00  0.00    +0.000 A 
ATOM      6  C   UNL     1       2.485   6.308  19.214  0.00  0.00    +0.000 A 
ATOM      7  C   UNL     1       1.897   6.006  20.451  0.00  0.00    +0.000 A 
ATOM      8  C   UNL     1       1.145   6.911  21.177  0.00  0.00    +0.000 A 
ATOM      9  C   UNL     1       0.971   8.191  20.639  0.00  0.00    +0.000 A 
ATOM     10  C   UNL     1       0.123   9.159  21.357  0.00  0.00    +0.000 A 
ATOM     11  O   UNL     1      -0.421   8.904  22.415  0.00  0.00    +0.000 OA
ENDROOT
BRANCH   1  19
ATOM     12  C   UNL     1      -6.048  15.046  22.396  0.00  0.00    +0.000 C 
ATOM     13  C   UNL     1      -5.551  14.834  23.840  0.00  0.00    +0.000 C 
ATOM     14  C   UNL     1      -4.060  14.563  23.721  0.00  0.00    +0.000 C 
ATOM     15  N   UNL     1      -3.979  13.864  22.458  0.00  0.00    +0.000 N 
ATOM     16  C   UNL     1      -2.893  13.164  22.018  0.00  0.00    +0.000 A 
ATOM     17  C   UNL     1      -1.965  12.639  22.917  0.00  0.00    +0.000 A 
ATOM     18  C   UNL     1      -0.965  11.792  22.468  0.00  0.00    +0.000 A 
ATOM     19  C   UNL     1      -0.898  11.490  21.118  0.00  0.00    +0.000 A 
ATOM     20  C   UNL     1      -1.811  12.090  20.268  0.00  0.00    +0.000 A 
ATOM     21  N   UNL     1      -2.795  12.906  20.693  0.00  0.00    +0.000 NA
ATOM     22  C   UNL     1      -4.924  14.430  21.500  0.00  0.00    +0.000 C 
BRANCH  12  24
ATOM     23  C   UNL     1      -6.470  17.305  23.275  0.00  0.00    +0.000 C 
ATOM     24  N   UNL     1      -6.488  16.422  22.108  0.00  0.00    +0.000 NA
ATOM     25  C   UNL     1      -5.683  17.012  21.030  0.00  0.00    +0.000 C 
ENDBRANCH  12  24
ENDBRANCH   1  19
BRANCH   6  26
ATOM     26  C   UNL     1       3.266   5.245  18.545  0.00  0.00    +0.000 C 
ATOM     27  C   UNL     1       3.347   4.899  17.226  0.00  0.00    +0.000 C 
ATOM     28  C   UNL     1       4.696   4.297  16.642  0.00  0.00    +0.000 C 
ATOM     29  C   UNL     1       5.897   4.227  17.671  0.00  0.00    +0.000 C 
ATOM     30  O   UNL     1       7.220   4.401  17.154  0.00  0.00    +0.000 OA
ATOM     31  C   UNL     1       8.131   4.620  18.272  0.00  0.00    +0.000 C 
ATOM     32  C   UNL     1       7.776   5.946  18.928  0.00  0.00    +0.000 C 
ATOM     33  O   UNL     1       6.564   5.685  19.644  0.00  0.00    +0.000 OA
ATOM     34  C   UNL     1       5.567   5.303  18.698  0.00  0.00    +0.000 C 
ATOM     35  C   UNL     1       4.371   4.666  19.364  0.00  0.00    +0.000 C 
ENDBRANCH   6  26
TORSDOF 3
ENDMDL
