MODEL 1
REMARK VINA RESULT:      -7.2      0.000      0.000
REMARK  Name = 
REMARK  9 active torsions:
REMARK  status: ('A' for Active; 'I' for Inactive)
REMARK    1  A    between atoms: C_1  and  O_2
REMARK    2  A    between atoms: O_2  and  C_3
REMARK    3  A    between atoms: C_6  and  C_7
REMARK    4  A    between atoms: C_7  and  N_8
REMARK    5  A    between atoms: C_11  and  C_12
REMARK    6  A    between atoms: C_12  and  O_13
REMARK    7  A    between atoms: C_14  and  O_15
REMARK    8  A    between atoms: C_18  and  C_19
REMARK    9  A    between atoms: C_19  and  N_20
REMARK                            x       y       z     vdW  Elec       q    Type
REMARK                         _______ _______ _______ _____ _____    ______ ____
ROOT
ATOM      1  C   UNL     1       0.663   9.275  20.605  0.00  0.00    +0.000 A 
ATOM      2  C   UNL     1       1.266   8.089  21.046  0.00  0.00    +0.000 A 
ATOM      3  C   UNL     1       2.049   7.320  20.194  0.00  0.00    +0.000 A 
ATOM      4  C   UNL     1       2.263   7.728  18.879  0.00  0.00    +0.000 A 
ATOM      5  C   UNL     1       1.700   8.936  18.444  0.00  0.00    +0.000 A 
ATOM      6  C   UNL     1       0.920   9.730  19.297  0.00  0.00    +0.000 A 
ENDROOT
BRANCH   1   8
ATOM      7  C   UNL     1      -0.290   9.621  22.736  0.00  0.00    +0.000 C 
ATOM      8  O   UNL     1      -0.151  10.054  21.383  0.00  0.00    +0.000 OA
ENDBRANCH   1   8
BRANCH   4   9
ATOM      9  C   UNL     1       3.046   6.870  17.914  0.00  0.00    +0.000 C 
BRANCH   9  10
ATOM     10  N   UNL     1       3.068   5.431  18.248  0.00  0.00    +0.000 NA
ATOM     11  C   UNL     1       4.302   4.844  17.686  0.00  0.00    +0.000 C 
ATOM     12  C   UNL     1       4.205   3.360  17.327  0.00  0.00    +0.000 C 
ATOM     13  C   UNL     1       3.272   2.614  18.282  0.00  0.00    +0.000 C 
ATOM     14  C   UNL     1       1.860   3.187  18.086  0.00  0.00    +0.000 C 
ATOM     15  C   UNL     1       1.846   4.721  17.824  0.00  0.00    +0.000 C 
BRANCH  14  16
ATOM     16  O   UNL     1       1.005   2.813  19.166  0.00  0.00    +0.000 OA
ATOM     17  H   UNL     1       1.483   2.991  19.995  0.00  0.00    +0.000 HD
ENDBRANCH  14  16
BRANCH  13  18
ATOM     18  C   UNL     1       3.758   2.671  19.736  0.00  0.00    +0.000 C 
BRANCH  18  19
ATOM     19  O   UNL     1       5.040   2.059  19.832  0.00  0.00    +0.000 OA
ATOM     20  H   UNL     1       5.114   1.436  19.089  0.00  0.00    +0.000 HD
ENDBRANCH  18  19
ENDBRANCH  13  18
ENDBRANCH   9  10
ENDBRANCH   4   9
BRANCH   6  21
ATOM     21  C   UNL     1       0.350  11.020  18.756  0.00  0.00    +0.000 C 
BRANCH  21  22
ATOM     22  N   UNL     1      -1.028  10.869  18.309  0.00  0.00    +0.000 N 
ATOM     23  C   UNL     1      -1.502   9.922  17.442  0.00  0.00    +0.000 A 
ATOM     24  C   UNL     1      -2.856  10.140  17.339  0.00  0.00    +0.000 A 
ATOM     25  C   UNL     1      -3.112  11.213  18.213  0.00  0.00    +0.000 A 
ATOM     26  N   UNL     1      -2.007  11.643  18.830  0.00  0.00    +0.000 NA
ENDBRANCH  21  22
ENDBRANCH   6  21
TORSDOF 8
ENDMDL
MODEL 2
REMARK VINA RESULT:      -7.2      2.206      3.106
REMARK  Name = 
REMARK  9 active torsions:
REMARK  status: ('A' for Active; 'I' for Inactive)
REMARK    1  A    between atoms: C_1  and  O_2
REMARK    2  A    between atoms: O_2  and  C_3
REMARK    3  A    between atoms: C_6  and  C_7
REMARK    4  A    between atoms: C_7  and  N_8
REMARK    5  A    between atoms: C_11  and  C_12
REMARK    6  A    between atoms: C_12  and  O_13
REMARK    7  A    between atoms: C_14  and  O_15
REMARK    8  A    between atoms: C_18  and  C_19
REMARK    9  A    between atoms: C_19  and  N_20
REMARK                            x       y       z     vdW  Elec       q    Type
REMARK                         _______ _______ _______ _____ _____    ______ ____
ROOT
ATOM      1  C   UNL     1       0.959   9.029  20.487  0.00  0.00    +0.000 A 
ATOM      2  C   UNL     1       1.467   7.815  20.968  0.00  0.00    +0.000 A 
ATOM      3  C   UNL     1       2.158   6.943  20.134  0.00  0.00    +0.000 A 
ATOM      4  C   UNL     1       2.372   7.274  18.797  0.00  0.00    +0.000 A 
ATOM      5  C   UNL     1       1.905   8.507  18.321  0.00  0.00    +0.000 A 
ATOM      6  C   UNL     1       1.219   9.402  19.154  0.00  0.00    +0.000 A 
ENDROOT
BRANCH   1   8
ATOM      7  C   UNL     1      -0.394   9.343  22.396  0.00  0.00    +0.000 C 
ATOM      8  O   UNL     1       0.237   9.909  21.248  0.00  0.00    +0.000 OA
ENDBRANCH   1   8
BRANCH   4   9
ATOM      9  C   UNL     1       3.051   6.309  17.854  0.00  0.00    +0.000 C 
BRANCH   9  10
ATOM     10  N   UNL     1       4.526   6.327  17.914  0.00  0.00    +0.000 NA
ATOM     11  C   UNL     1       5.044   6.425  16.533  0.00  0.00    +0.000 C 
ATOM     12  C   UNL     1       6.424   5.801  16.316  0.00  0.00    +0.000 C 
ATOM     13  C   UNL     1       7.302   5.939  17.560  0.00  0.00    +0.000 C 
ATOM     14  C   UNL     1       6.642   5.122  18.682  0.00  0.00    +0.000 C 
ATOM     15  C   UNL     1       5.088   5.186  18.661  0.00  0.00    +0.000 C 
BRANCH  14  16
ATOM     16  O   UNL     1       7.184   5.475  19.954  0.00  0.00    +0.000 OA
ATOM     17  H   UNL     1       8.105   5.756  19.814  0.00  0.00    +0.000 HD
ENDBRANCH  14  16
BRANCH  13  18
ATOM     18  C   UNL     1       7.550   7.406  17.939  0.00  0.00    +0.000 C 
BRANCH  18  19
ATOM     19  O   UNL     1       8.618   7.479  18.879  0.00  0.00    +0.000 OA
ATOM     20  H   UNL     1       8.487   8.293  19.395  0.00  0.00    +0.000 HD
ENDBRANCH  18  19
ENDBRANCH  13  18
ENDBRANCH   9  10
ENDBRANCH   4   9
BRANCH   6  21
ATOM     21  C   UNL     1       0.750  10.714  18.569  0.00  0.00    +0.000 C 
BRANCH  21  22
ATOM     22  N   UNL     1      -0.681  10.714  18.297  0.00  0.00    +0.000 N 
ATOM     23  C   UNL     1      -1.603  11.597  18.791  0.00  0.00    +0.000 A 
ATOM     24  C   UNL     1      -2.811  11.236  18.244  0.00  0.00    +0.000 A 
ATOM     25  C   UNL     1      -2.511  10.150  17.400  0.00  0.00    +0.000 A 
ATOM     26  N   UNL     1      -1.210   9.846  17.404  0.00  0.00    +0.000 NA
ENDBRANCH  21  22
ENDBRANCH   6  21
TORSDOF 8
ENDMDL
MODEL 3
REMARK VINA RESULT:      -7.0      1.331      1.424
REMARK  Name = 
REMARK  9 active torsions:
REMARK  status: ('A' for Active; 'I' for Inactive)
REMARK    1  A    between atoms: C_1  and  O_2
REMARK    2  A    between atoms: O_2  and  C_3
REMARK    3  A    between atoms: C_6  and  C_7
REMARK    4  A    between atoms: C_7  and  N_8
REMARK    5  A    between atoms: C_11  and  C_12
REMARK    6  A    between atoms: C_12  and  O_13
REMARK    7  A    between atoms: C_14  and  O_15
REMARK    8  A    between atoms: C_18  and  C_19
REMARK    9  A    between atoms: C_19  and  N_20
REMARK                            x       y       z     vdW  Elec       q    Type
REMARK                         _______ _______ _______ _____ _____    ______ ____
ROOT
ATOM      1  C   UNL     1       0.284   9.991  20.882  0.00  0.00    +0.000 A 
ATOM      2  C   UNL     1       0.850   8.914  21.577  0.00  0.00    +0.000 A 
ATOM      3  C   UNL     1       1.607   7.952  20.920  0.00  0.00    +0.000 A 
ATOM      4  C   UNL     1       1.830   8.052  19.547  0.00  0.00    +0.000 A 
ATOM      5  C   UNL     1       1.304   9.151  18.854  0.00  0.00    +0.000 A 
ATOM      6  C   UNL     1       0.551  10.137  19.507  0.00  0.00    +0.000 A 
ENDROOT
BRANCH   1   8
ATOM      7  C   UNL     1      -0.848  10.700  22.828  0.00  0.00    +0.000 C 
ATOM      8  O   UNL     1      -0.503  10.948  21.466  0.00  0.00    +0.000 OA
ENDBRANCH   1   8
BRANCH   4   9
ATOM      9  C   UNL     1       2.582   6.978  18.799  0.00  0.00    +0.000 C 
BRANCH   9  10
ATOM     10  N   UNL     1       2.489   5.631  19.397  0.00  0.00    +0.000 NA
ATOM     11  C   UNL     1       3.860   5.131  19.632  0.00  0.00    +0.000 C 
ATOM     12  C   UNL     1       4.008   3.610  19.591  0.00  0.00    +0.000 C 
ATOM     13  C   UNL     1       2.752   2.911  20.115  0.00  0.00    +0.000 C 
ATOM     14  C   UNL     1       1.603   3.248  19.152  0.00  0.00    +0.000 C 
ATOM     15  C   UNL     1       1.665   4.702  18.600  0.00  0.00    +0.000 C 
BRANCH  14  16
ATOM     16  O   UNL     1       0.340   2.944  19.742  0.00  0.00    +0.000 OA
ATOM     17  H   UNL     1       0.145   2.009  19.555  0.00  0.00    +0.000 HD
ENDBRANCH  14  16
BRANCH  13  18
ATOM     18  C   UNL     1       2.450   3.273  21.576  0.00  0.00    +0.000 C 
BRANCH  18  19
ATOM     19  O   UNL     1       1.603   2.279  22.144  0.00  0.00    +0.000 OA
ATOM     20  H   UNL     1       1.573   2.446  23.102  0.00  0.00    +0.000 HD
ENDBRANCH  18  19
ENDBRANCH  13  18
ENDBRANCH   9  10
ENDBRANCH   4   9
BRANCH   6  21
ATOM     21  C   UNL     1       0.020  11.294  18.692  0.00  0.00    +0.000 C 
BRANCH  21  22
ATOM     22  N   UNL     1      -1.333  11.051  18.209  0.00  0.00    +0.000 N 
ATOM     23  C   UNL     1      -1.730  10.041  17.376  0.00  0.00    +0.000 A 
ATOM     24  C   UNL     1      -3.088  10.185  17.219  0.00  0.00    +0.000 A 
ATOM     25  C   UNL     1      -3.427  11.285  18.030  0.00  0.00    +0.000 A 
ATOM     26  N   UNL     1      -2.366  11.799  18.660  0.00  0.00    +0.000 NA
ENDBRANCH  21  22
ENDBRANCH   6  21
TORSDOF 8
ENDMDL
MODEL 4
REMARK VINA RESULT:      -7.0      1.755      2.487
REMARK  Name = 
REMARK  9 active torsions:
REMARK  status: ('A' for Active; 'I' for Inactive)
REMARK    1  A    between atoms: C_1  and  O_2
REMARK    2  A    between atoms: O_2  and  C_3
REMARK    3  A    between atoms: C_6  and  C_7
REMARK    4  A    between atoms: C_7  and  N_8
REMARK    5  A    between atoms: C_11  and  C_12
REMARK    6  A    between atoms: C_12  and  O_13
REMARK    7  A    between atoms: C_14  and  O_15
REMARK    8  A    between atoms: C_18  and  C_19
REMARK    9  A    between atoms: C_19  and  N_20
REMARK                            x       y       z     vdW  Elec       q    Type
REMARK                         _______ _______ _______ _____ _____    ______ ____
ROOT
ATOM      1  C   UNL     1       0.941   9.131  20.253  0.00  0.00    +0.000 A 
ATOM      2  C   UNL     1       1.609   7.929  20.523  0.00  0.00    +0.000 A 
ATOM      3  C   UNL     1       2.418   7.325  19.567  0.00  0.00    +0.000 A 
ATOM      4  C   UNL     1       2.590   7.920  18.318  0.00  0.00    +0.000 A 
ATOM      5  C   UNL     1       1.960   9.145  18.058  0.00  0.00    +0.000 A 
ATOM      6  C   UNL     1       1.153   9.773  19.018  0.00  0.00    +0.000 A 
ENDROOT
BRANCH   1   8
ATOM      7  C   UNL     1      -0.356   8.936  22.216  0.00  0.00    +0.000 C 
ATOM      8  O   UNL     1       0.100   9.752  21.139  0.00  0.00    +0.000 OA
ENDBRANCH   1   8
BRANCH   4   9
ATOM      9  C   UNL     1       3.399   7.244  17.238  0.00  0.00    +0.000 C 
BRANCH   9  10
ATOM     10  N   UNL     1       4.560   6.474  17.729  0.00  0.00    +0.000 NA
ATOM     11  C   UNL     1       5.787   7.071  17.161  0.00  0.00    +0.000 C 
ATOM     12  C   UNL     1       6.953   6.099  16.978  0.00  0.00    +0.000 C 
ATOM     13  C   UNL     1       6.961   5.024  18.066  0.00  0.00    +0.000 C 
ATOM     14  C   UNL     1       5.684   4.187  17.896  0.00  0.00    +0.000 C 
ATOM     15  C   UNL     1       4.447   5.027  17.465  0.00  0.00    +0.000 C 
BRANCH  14  16
ATOM     16  O   UNL     1       5.429   3.404  19.062  0.00  0.00    +0.000 OA
ATOM     17  H   UNL     1       5.444   4.004  19.828  0.00  0.00    +0.000 HD
ENDBRANCH  14  16
BRANCH  13  18
ATOM     18  C   UNL     1       7.117   5.619  19.472  0.00  0.00    +0.000 C 
BRANCH  18  19
ATOM     19  O   UNL     1       8.421   5.329  19.968  0.00  0.00    +0.000 OA
ATOM     20  H   UNL     1       8.717   4.513  19.528  0.00  0.00    +0.000 HD
ENDBRANCH  18  19
ENDBRANCH  13  18
ENDBRANCH   9  10
ENDBRANCH   4   9
BRANCH   6  21
ATOM     21  C   UNL     1       0.510  11.093  18.665  0.00  0.00    +0.000 C 
BRANCH  21  22
ATOM     22  N   UNL     1      -0.875  10.936  18.244  0.00  0.00    +0.000 N 
ATOM     23  C   UNL     1      -1.883  11.847  18.407  0.00  0.00    +0.000 A 
ATOM     24  C   UNL     1      -3.001  11.289  17.833  0.00  0.00    +0.000 A 
ATOM     25  C   UNL     1      -2.559  10.058  17.312  0.00  0.00    +0.000 A 
ATOM     26  N   UNL     1      -1.257   9.850  17.534  0.00  0.00    +0.000 NA
ENDBRANCH  21  22
ENDBRANCH   6  21
TORSDOF 8
ENDMDL
MODEL 5
REMARK VINA RESULT:      -6.9      2.354      3.484
REMARK  Name = 
REMARK  9 active torsions:
REMARK  status: ('A' for Active; 'I' for Inactive)
REMARK    1  A    between atoms: C_1  and  O_2
REMARK    2  A    between atoms: O_2  and  C_3
REMARK    3  A    between atoms: C_6  and  C_7
REMARK    4  A    between atoms: C_7  and  N_8
REMARK    5  A    between atoms: C_11  and  C_12
REMARK    6  A    between atoms: C_12  and  O_13
REMARK    7  A    between atoms: C_14  and  O_15
REMARK    8  A    between atoms: C_18  and  C_19
REMARK    9  A    between atoms: C_19  and  N_20
REMARK                            x       y       z     vdW  Elec       q    Type
REMARK                         _______ _______ _______ _____ _____    ______ ____
ROOT
ATOM      1  C   UNL     1       0.990   9.093  20.260  0.00  0.00    +0.000 A 
ATOM      2  C   UNL     1       1.616   7.866  20.521  0.00  0.00    +0.000 A 
ATOM      3  C   UNL     1       2.422   7.253  19.569  0.00  0.00    +0.000 A 
ATOM      4  C   UNL     1       2.634   7.862  18.333  0.00  0.00    +0.000 A 
ATOM      5  C   UNL     1       2.047   9.110  18.082  0.00  0.00    +0.000 A 
ATOM      6  C   UNL     1       1.244   9.747  19.039  0.00  0.00    +0.000 A 
ENDROOT
BRANCH   1   8
ATOM      7  C   UNL     1       0.324   9.359  22.509  0.00  0.00    +0.000 C 
ATOM      8  O   UNL     1       0.154   9.725  21.141  0.00  0.00    +0.000 OA
ENDBRANCH   1   8
BRANCH   4   9
ATOM      9  C   UNL     1       3.442   7.178  17.255  0.00  0.00    +0.000 C 
BRANCH   9  10
ATOM     10  N   UNL     1       4.618   6.433  17.747  0.00  0.00    +0.000 NA
ATOM     11  C   UNL     1       5.834   7.082  17.215  0.00  0.00    +0.000 C 
ATOM     12  C   UNL     1       7.033   6.151  17.028  0.00  0.00    +0.000 C 
ATOM     13  C   UNL     1       7.057   5.050  18.089  0.00  0.00    +0.000 C 
ATOM     14  C   UNL     1       5.810   4.178  17.877  0.00  0.00    +0.000 C 
ATOM     15  C   UNL     1       4.554   4.990  17.446  0.00  0.00    +0.000 C 
BRANCH  14  16
ATOM     16  O   UNL     1       5.561   3.359  19.019  0.00  0.00    +0.000 OA
ATOM     17  H   UNL     1       4.632   3.072  18.978  0.00  0.00    +0.000 HD
ENDBRANCH  14  16
BRANCH  13  18
ATOM     18  C   UNL     1       7.172   5.614  19.512  0.00  0.00    +0.000 C 
BRANCH  18  19
ATOM     19  O   UNL     1       8.497   5.413  19.996  0.00  0.00    +0.000 OA
ATOM     20  H   UNL     1       9.031   6.163  19.683  0.00  0.00    +0.000 HD
ENDBRANCH  18  19
ENDBRANCH  13  18
ENDBRANCH   9  10
ENDBRANCH   4   9
BRANCH   6  21
ATOM     21  C   UNL     1       0.648  11.093  18.697  0.00  0.00    +0.000 C 
BRANCH  21  22
ATOM     22  N   UNL     1       1.539  12.193  19.041  0.00  0.00    +0.000 N 
ATOM     23  C   UNL     1       1.732  12.724  20.287  0.00  0.00    +0.000 A 
ATOM     24  C   UNL     1       2.677  13.711  20.141  0.00  0.00    +0.000 A 
ATOM     25  C   UNL     1       3.027  13.672  18.778  0.00  0.00    +0.000 A 
ATOM     26  N   UNL     1       2.359  12.729  18.107  0.00  0.00    +0.000 NA
ENDBRANCH  21  22
ENDBRANCH   6  21
TORSDOF 8
ENDMDL
MODEL 6
REMARK VINA RESULT:      -6.7      1.635      2.539
REMARK  Name = 
REMARK  9 active torsions:
REMARK  status: ('A' for Active; 'I' for Inactive)
REMARK    1  A    between atoms: C_1  and  O_2
REMARK    2  A    between atoms: O_2  and  C_3
REMARK    3  A    between atoms: C_6  and  C_7
REMARK    4  A    between atoms: C_7  and  N_8
REMARK    5  A    between atoms: C_11  and  C_12
REMARK    6  A    between atoms: C_12  and  O_13
REMARK    7  A    between atoms: C_14  and  O_15
REMARK    8  A    between atoms: C_18  and  C_19
REMARK    9  A    between atoms: C_19  and  N_20
REMARK                            x       y       z     vdW  Elec       q    Type
REMARK                         _______ _______ _______ _____ _____    ______ ____
ROOT
ATOM      1  C   UNL     1       0.675   9.275  20.773  0.00  0.00    +0.000 A 
ATOM      2  C   UNL     1       1.272   8.035  21.040  0.00  0.00    +0.000 A 
ATOM      3  C   UNL     1       2.024   7.375  20.075  0.00  0.00    +0.000 A 
ATOM      4  C   UNL     1       2.211   7.950  18.819  0.00  0.00    +0.000 A 
ATOM      5  C   UNL     1       1.655   9.211  18.560  0.00  0.00    +0.000 A 
ATOM      6  C   UNL     1       0.906   9.894  19.530  0.00  0.00    +0.000 A 
ENDROOT
BRANCH   1   8
ATOM      7  C   UNL     1       0.045   9.558  23.031  0.00  0.00    +0.000 C 
ATOM      8  O   UNL     1      -0.109   9.952  21.668  0.00  0.00    +0.000 OA
ENDBRANCH   1   8
BRANCH   4   9
ATOM      9  C   UNL     1       2.958   7.218  17.730  0.00  0.00    +0.000 C 
BRANCH   9  10
ATOM     10  N   UNL     1       3.276   5.810  18.041  0.00  0.00    +0.000 NA
ATOM     11  C   UNL     1       4.458   5.415  17.247  0.00  0.00    +0.000 C 
ATOM     12  C   UNL     1       4.535   3.927  16.901  0.00  0.00    +0.000 C 
ATOM     13  C   UNL     1       3.936   3.063  18.012  0.00  0.00    +0.000 C 
ATOM     14  C   UNL     1       2.439   3.399  18.098  0.00  0.00    +0.000 C 
ATOM     15  C   UNL     1       2.127   4.904  17.856  0.00  0.00    +0.000 C 
BRANCH  14  16
ATOM     16  O   UNL     1       1.879   2.917  19.319  0.00  0.00    +0.000 OA
ATOM     17  H   UNL     1       2.612   2.594  19.872  0.00  0.00    +0.000 HD
ENDBRANCH  14  16
BRANCH  13  18
ATOM     18  C   UNL     1       4.676   3.231  19.346  0.00  0.00    +0.000 C 
BRANCH  18  19
ATOM     19  O   UNL     1       4.912   1.950  19.922  0.00  0.00    +0.000 OA
ATOM     20  H   UNL     1       4.074   1.459  19.874  0.00  0.00    +0.000 HD
ENDBRANCH  18  19
ENDBRANCH  13  18
ENDBRANCH   9  10
ENDBRANCH   4   9
BRANCH   6  21
ATOM     21  C   UNL     1       0.341  11.250  19.178  0.00  0.00    +0.000 C 
BRANCH  21  22
ATOM     22  N   UNL     1       1.323  12.314  19.336  0.00  0.00    +0.000 N 
ATOM     23  C   UNL     1       1.734  12.873  20.515  0.00  0.00    +0.000 A 
ATOM     24  C   UNL     1       2.688  13.806  20.185  0.00  0.00    +0.000 A 
ATOM     25  C   UNL     1       2.816  13.708  18.787  0.00  0.00    +0.000 A 
ATOM     26  N   UNL     1       2.008  12.779  18.266  0.00  0.00    +0.000 NA
ENDBRANCH  21  22
ENDBRANCH   6  21
TORSDOF 8
ENDMDL
MODEL 7
REMARK VINA RESULT:      -6.7      2.334      7.895
REMARK  Name = 
REMARK  9 active torsions:
REMARK  status: ('A' for Active; 'I' for Inactive)
REMARK    1  A    between atoms: C_1  and  O_2
REMARK    2  A    between atoms: O_2  and  C_3
REMARK    3  A    between atoms: C_6  and  C_7
REMARK    4  A    between atoms: C_7  and  N_8
REMARK    5  A    between atoms: C_11  and  C_12
REMARK    6  A    between atoms: C_12  and  O_13
REMARK    7  A    between atoms: C_14  and  O_15
REMARK    8  A    between atoms: C_18  and  C_19
REMARK    9  A    between atoms: C_19  and  N_20
REMARK                            x       y       z     vdW  Elec       q    Type
REMARK                         _______ _______ _______ _____ _____    ______ ____
ROOT
ATOM      1  C   UNL     1       4.281   5.671  18.978  0.00  0.00    +0.000 A 
ATOM      2  C   UNL     1       2.969   5.855  19.438  0.00  0.00    +0.000 A 
ATOM      3  C   UNL     1       2.195   6.922  18.997  0.00  0.00    +0.000 A 
ATOM      4  C   UNL     1       2.711   7.825  18.069  0.00  0.00    +0.000 A 
ATOM      5  C   UNL     1       4.006   7.622  17.572  0.00  0.00    +0.000 A 
ATOM      6  C   UNL     1       4.792   6.541  17.997  0.00  0.00    +0.000 A 
ENDROOT
BRANCH   1   8
ATOM      7  C   UNL     1       4.584   3.345  19.249  0.00  0.00    +0.000 C 
ATOM      8  O   UNL     1       5.105   4.665  19.406  0.00  0.00    +0.000 OA
ENDBRANCH   1   8
BRANCH   4   9
ATOM      9  C   UNL     1       1.918   9.034  17.634  0.00  0.00    +0.000 C 
BRANCH   9  10
ATOM     10  N   UNL     1       1.254   9.763  18.734  0.00  0.00    +0.000 NA
ATOM     11  C   UNL     1      -0.207   9.616  18.572  0.00  0.00    +0.000 C 
ATOM     12  C   UNL     1      -1.038  10.769  19.136  0.00  0.00    +0.000 C 
ATOM     13  C   UNL     1      -0.382  11.378  20.376  0.00  0.00    +0.000 C 
ATOM     14  C   UNL     1       0.953  11.997  19.933  0.00  0.00    +0.000 C 
ATOM     15  C   UNL     1       1.685  11.170  18.836  0.00  0.00    +0.000 C 
BRANCH  14  16
ATOM     16  O   UNL     1       1.788  12.266  21.058  0.00  0.00    +0.000 OA
ATOM     17  H   UNL     1       1.207  12.462  21.815  0.00  0.00    +0.000 HD
ENDBRANCH  14  16
BRANCH  13  18
ATOM     18  C   UNL     1      -0.234  10.361  21.516  0.00  0.00    +0.000 C 
BRANCH  18  19
ATOM     19  O   UNL     1      -0.125  11.052  22.756  0.00  0.00    +0.000 OA
ATOM     20  H   UNL     1      -0.874  11.672  22.803  0.00  0.00    +0.000 HD
ENDBRANCH  18  19
ENDBRANCH  13  18
ENDBRANCH   9  10
ENDBRANCH   4   9
BRANCH   6  21
ATOM     21  C   UNL     1       6.177   6.386  17.413  0.00  0.00    +0.000 C 
BRANCH  21  22
ATOM     22  N   UNL     1       6.178   5.564  16.210  0.00  0.00    +0.000 N 
ATOM     23  C   UNL     1       5.154   4.776  15.763  0.00  0.00    +0.000 A 
ATOM     24  C   UNL     1       5.586   4.217  14.584  0.00  0.00    +0.000 A 
ATOM     25  C   UNL     1       6.868   4.761  14.380  0.00  0.00    +0.000 A 
ATOM     26  N   UNL     1       7.224   5.606  15.353  0.00  0.00    +0.000 NA
ENDBRANCH  21  22
ENDBRANCH   6  21
TORSDOF 8
ENDMDL
MODEL 8
REMARK VINA RESULT:      -6.7      2.122      7.888
REMARK  Name = 
REMARK  9 active torsions:
REMARK  status: ('A' for Active; 'I' for Inactive)
REMARK    1  A    between atoms: C_1  and  O_2
REMARK    2  A    between atoms: O_2  and  C_3
REMARK    3  A    between atoms: C_6  and  C_7
REMARK    4  A    between atoms: C_7  and  N_8
REMARK    5  A    between atoms: C_11  and  C_12
REMARK    6  A    between atoms: C_12  and  O_13
REMARK    7  A    between atoms: C_14  and  O_15
REMARK    8  A    between atoms: C_18  and  C_19
REMARK    9  A    between atoms: C_19  and  N_20
REMARK                            x       y       z     vdW  Elec       q    Type
REMARK                         _______ _______ _______ _____ _____    ______ ____
ROOT
ATOM      1  C   UNL     1       2.788   4.960  19.835  0.00  0.00    +0.000 A 
ATOM      2  C   UNL     1       2.154   6.043  20.460  0.00  0.00    +0.000 A 
ATOM      3  C   UNL     1       1.975   7.252  19.798  0.00  0.00    +0.000 A 
ATOM      4  C   UNL     1       2.415   7.403  18.484  0.00  0.00    +0.000 A 
ATOM      5  C   UNL     1       3.010   6.310  17.838  0.00  0.00    +0.000 A 
ATOM      6  C   UNL     1       3.183   5.080  18.489  0.00  0.00    +0.000 A 
ENDROOT
BRANCH   1   8
ATOM      7  C   UNL     1       2.132   3.428  21.507  0.00  0.00    +0.000 C 
ATOM      8  O   UNL     1       3.029   3.760  20.448  0.00  0.00    +0.000 OA
ENDBRANCH   1   8
BRANCH   4   9
ATOM      9  C   UNL     1       2.301   8.729  17.771  0.00  0.00    +0.000 C 
BRANCH   9  10
ATOM     10  N   UNL     1       1.637   9.792  18.552  0.00  0.00    +0.000 NA
ATOM     11  C   UNL     1       0.180   9.695  18.323  0.00  0.00    +0.000 C 
ATOM     12  C   UNL     1      -0.583  11.013  18.455  0.00  0.00    +0.000 C 
ATOM     13  C   UNL     1       0.047  11.922  19.511  0.00  0.00    +0.000 C 
ATOM     14  C   UNL     1       1.452  12.297  19.016  0.00  0.00    +0.000 C 
ATOM     15  C   UNL     1       2.176  11.137  18.273  0.00  0.00    +0.000 C 
BRANCH  14  16
ATOM     16  O   UNL     1       2.239  12.837  20.077  0.00  0.00    +0.000 OA
ATOM     17  H   UNL     1       1.653  12.960  20.845  0.00  0.00    +0.000 HD
ENDBRANCH  14  16
BRANCH  13  18
ATOM     18  C   UNL     1       0.043  11.284  20.907  0.00  0.00    +0.000 C 
BRANCH  18  19
ATOM     19  O   UNL     1       0.190  12.300  21.893  0.00  0.00    +0.000 OA
ATOM     20  H   UNL     1       1.134  12.334  22.128  0.00  0.00    +0.000 HD
ENDBRANCH  18  19
ENDBRANCH  13  18
ENDBRANCH   9  10
ENDBRANCH   4   9
BRANCH   6  21
ATOM     21  C   UNL     1       3.830   3.948  17.726  0.00  0.00    +0.000 C 
BRANCH  21  22
ATOM     22  N   UNL     1       5.234   4.209  17.438  0.00  0.00    +0.000 N 
ATOM     23  C   UNL     1       5.793   4.380  16.201  0.00  0.00    +0.000 A 
ATOM     24  C   UNL     1       7.127   4.634  16.415  0.00  0.00    +0.000 A 
ATOM     25  C   UNL     1       7.270   4.638  17.815  0.00  0.00    +0.000 A 
ATOM     26  N   UNL     1       6.114   4.409  18.446  0.00  0.00    +0.000 NA
ENDBRANCH  21  22
ENDBRANCH   6  21
TORSDOF 8
ENDMDL
MODEL 9
REMARK VINA RESULT:      -6.7      2.343      7.994
REMARK  Name = 
REMARK  9 active torsions:
REMARK  status: ('A' for Active; 'I' for Inactive)
REMARK    1  A    between atoms: C_1  and  O_2
REMARK    2  A    between atoms: O_2  and  C_3
REMARK    3  A    between atoms: C_6  and  C_7
REMARK    4  A    between atoms: C_7  and  N_8
REMARK    5  A    between atoms: C_11  and  C_12
REMARK    6  A    between atoms: C_12  and  O_13
REMARK    7  A    between atoms: C_14  and  O_15
REMARK    8  A    between atoms: C_18  and  C_19
REMARK    9  A    between atoms: C_19  and  N_20
REMARK                            x       y       z     vdW  Elec       q    Type
REMARK                         _______ _______ _______ _____ _____    ______ ____
ROOT
ATOM      1  C   UNL     1       2.872   6.039  19.630  0.00  0.00    +0.000 A 
ATOM      2  C   UNL     1       1.952   6.793  20.371  0.00  0.00    +0.000 A 
ATOM      3  C   UNL     1       1.509   8.032  19.922  0.00  0.00    +0.000 A 
ATOM      4  C   UNL     1       1.966   8.541  18.708  0.00  0.00    +0.000 A 
ATOM      5  C   UNL     1       2.852   7.772  17.940  0.00  0.00    +0.000 A 
ATOM      6  C   UNL     1       3.295   6.514  18.374  0.00  0.00    +0.000 A 
ENDROOT
BRANCH   1   8
ATOM      7  C   UNL     1       2.440   3.975  20.691  0.00  0.00    +0.000 C 
ATOM      8  O   UNL     1       3.375   4.833  20.039  0.00  0.00    +0.000 OA
ENDBRANCH   1   8
BRANCH   4   9
ATOM      9  C   UNL     1       1.560   9.917  18.237  0.00  0.00    +0.000 C 
BRANCH   9  10
ATOM     10  N   UNL     1       0.874  10.738  19.255  0.00  0.00    +0.000 NA
ATOM     11  C   UNL     1      -0.577  10.707  18.975  0.00  0.00    +0.000 C 
ATOM     12  C   UNL     1      -1.349  11.946  19.432  0.00  0.00    +0.000 C 
ATOM     13  C   UNL     1      -0.745  12.543  20.704  0.00  0.00    +0.000 C 
ATOM     14  C   UNL     1       0.669  13.032  20.357  0.00  0.00    +0.000 C 
ATOM     15  C   UNL     1       1.414  12.108  19.352  0.00  0.00    +0.000 C 
BRANCH  14  16
ATOM     16  O   UNL     1       1.429  13.272  21.541  0.00  0.00    +0.000 OA
ATOM     17  H   UNL     1       1.146  12.623  22.209  0.00  0.00    +0.000 HD
ENDBRANCH  14  16
BRANCH  13  18
ATOM     18  C   UNL     1      -0.778  11.559  21.883  0.00  0.00    +0.000 C 
BRANCH  18  19
ATOM     19  O   UNL     1      -0.644  12.279  23.104  0.00  0.00    +0.000 OA
ATOM     20  H   UNL     1      -0.120  11.722  23.706  0.00  0.00    +0.000 HD
ENDBRANCH  18  19
ENDBRANCH  13  18
ENDBRANCH   9  10
ENDBRANCH   4   9
BRANCH   6  21
ATOM     21  C   UNL     1       4.247   5.743  17.490  0.00  0.00    +0.000 C 
BRANCH  21  22
ATOM     22  N   UNL     1       5.634   6.136  17.699  0.00  0.00    +0.000 N 
ATOM     23  C   UNL     1       6.492   5.624  18.634  0.00  0.00    +0.000 A 
ATOM     24  C   UNL     1       7.694   6.265  18.443  0.00  0.00    +0.000 A 
ATOM     25  C   UNL     1       7.474   7.116  17.344  0.00  0.00    +0.000 A 
ATOM     26  N   UNL     1       6.229   7.021  16.866  0.00  0.00    +0.000 NA
ENDBRANCH  21  22
ENDBRANCH   6  21
TORSDOF 8
ENDMDL
