MODEL 1
REMARK VINA RESULT:      -8.0      0.000      0.000
REMARK  Name = 
REMARK  12 active torsions:
REMARK  status: ('A' for Active; 'I' for Inactive)
REMARK    1  A    between atoms: C_1  and  C_2
REMARK    2  A    between atoms: N_6  and  C_7
REMARK    3  A    between atoms: N_15  and  C_16
REMARK    4  A    between atoms: C_16  and  C_17
REMARK    5  A    between atoms: C_17  and  C_18
REMARK    6  A    between atoms: C_18  and  C_19
REMARK    7  A    between atoms: C_19  and  C_20
REMARK    8  A    between atoms: C_20  and  O_21
REMARK    9  A    between atoms: C_24  and  C_25
REMARK   10  A    between atoms: N_28  and  C_29
REMARK   11  A    between atoms: C_29  and  C_30
REMARK   12  A    between atoms: C_29  and  C_31
REMARK                            x       y       z     vdW  Elec       q    Type
REMARK                         _______ _______ _______ _____ _____    ______ ____
ROOT
ATOM      1  C   UNL     1      -1.918  12.228  21.939  0.00  0.00    +0.000 C 
ATOM      2  C   UNL     1      -0.988  11.079  21.742  0.00  0.00    +0.000 A 
ATOM      3  C   UNL     1      -0.357  10.489  22.822  0.00  0.00    +0.000 A 
ATOM      4  N   UNL     1       0.469   9.427  22.743  0.00  0.00    +0.000 NA
ATOM      5  C   UNL     1       0.702   8.942  21.519  0.00  0.00    +0.000 A 
ATOM      6  N   UNL     1       1.542   7.837  21.424  0.00  0.00    +0.000 N 
ATOM      7  N   UNL     1       0.135   9.442  20.419  0.00  0.00    +0.000 NA
ATOM      8  C   UNL     1      -0.702  10.491  20.525  0.00  0.00    +0.000 A 
ATOM      9  H   UNL     1       1.732   7.434  22.326  0.00  0.00    +0.000 HD
ENDROOT
BRANCH   6  10
ATOM     10  C   UNL     1       2.124   7.257  20.292  0.00  0.00    +0.000 A 
ATOM     11  C   UNL     1       2.236   8.006  19.113  0.00  0.00    +0.000 A 
ATOM     12  C   UNL     1       2.905   7.493  17.997  0.00  0.00    +0.000 A 
ATOM     13  C   UNL     1       3.487   6.225  18.052  0.00  0.00    +0.000 A 
ATOM     14  C   UNL     1       3.380   5.467  19.220  0.00  0.00    +0.000 A 
ATOM     15  C   UNL     1       2.699   5.979  20.322  0.00  0.00    +0.000 A 
ATOM     16  C   UNL     1       4.038   4.115  19.234  0.00  0.00    +0.000 C 
ATOM     17  C   UNL     1       5.392   4.230  18.521  0.00  0.00    +0.000 C 
ATOM     18  N   UNL     1       5.345   4.785  17.152  0.00  0.00    +0.000 NA
ATOM     19  C   UNL     1       4.140   5.586  16.855  0.00  0.00    +0.000 C 
BRANCH  18  20
ATOM     20  C   UNL     1       5.568   3.742  16.142  0.00  0.00    +0.000 C 
BRANCH  20  21
ATOM     21  C   UNL     1       5.498   4.244  14.693  0.00  0.00    +0.000 C 
BRANCH  21  22
ATOM     22  C   UNL     1       6.824   4.821  14.193  0.00  0.00    +0.000 C 
BRANCH  22  23
ATOM     23  C   UNL     1       7.105   4.365  12.766  0.00  0.00    +0.000 C 
BRANCH  23  24
ATOM     24  C   UNL     1       6.088   3.335  12.296  0.00  0.00    +0.000 C 
BRANCH  24  25
ATOM     25  O   UNL     1       6.765   2.165  11.853  0.00  0.00    +0.000 OA
ATOM     26  H   UNL     1       7.713   2.377  11.808  0.00  0.00    +0.000 HD
ENDBRANCH  24  25
ENDBRANCH  23  24
ENDBRANCH  22  23
ENDBRANCH  21  22
ENDBRANCH  20  21
ENDBRANCH  18  20
ENDBRANCH   6  10
BRANCH   8  27
ATOM     27  C   UNL     1      -1.292  10.897  19.257  0.00  0.00    +0.000 A 
ATOM     28  C   UNL     1      -1.105  12.023  18.427  0.00  0.00    +0.000 A 
ATOM     29  N   UNL     1      -1.881  12.006  17.340  0.00  0.00    +0.000 NA
ATOM     30  N   UNL     1      -2.553  10.843  17.449  0.00  0.00    +0.000 N 
ATOM     31  C   UNL     1      -2.218  10.137  18.567  0.00  0.00    +0.000 A 
BRANCH  30  32
ATOM     32  C   UNL     1      -3.518  10.471  16.418  0.00  0.00    +0.000 C 
ATOM     33  C   UNL     1      -4.605  11.531  16.261  0.00  0.00    +0.000 C 
ATOM     34  C   UNL     1      -2.834  10.165  15.086  0.00  0.00    +0.000 C 
ENDBRANCH  30  32
ENDBRANCH   8  27
TORSDOF 9
ENDMDL
MODEL 2
REMARK VINA RESULT:      -7.2      4.385      6.438
REMARK  Name = 
REMARK  12 active torsions:
REMARK  status: ('A' for Active; 'I' for Inactive)
REMARK    1  A    between atoms: C_1  and  C_2
REMARK    2  A    between atoms: N_6  and  C_7
REMARK    3  A    between atoms: N_15  and  C_16
REMARK    4  A    between atoms: C_16  and  C_17
REMARK    5  A    between atoms: C_17  and  C_18
REMARK    6  A    between atoms: C_18  and  C_19
REMARK    7  A    between atoms: C_19  and  C_20
REMARK    8  A    between atoms: C_20  and  O_21
REMARK    9  A    between atoms: C_24  and  C_25
REMARK   10  A    between atoms: N_28  and  C_29
REMARK   11  A    between atoms: C_29  and  C_30
REMARK   12  A    between atoms: C_29  and  C_31
REMARK                            x       y       z     vdW  Elec       q    Type
REMARK                         _______ _______ _______ _____ _____    ______ ____
ROOT
ATOM      1  C   UNL     1       1.589  16.876  19.189  0.00  0.00    +0.000 C 
ATOM      2  C   UNL     1       1.261  15.428  19.057  0.00  0.00    +0.000 A 
ATOM      3  C   UNL     1       0.021  15.026  18.593  0.00  0.00    +0.000 A 
ATOM      4  N   UNL     1      -0.350  13.743  18.407  0.00  0.00    +0.000 NA
ATOM      5  C   UNL     1       0.551  12.809  18.727  0.00  0.00    +0.000 A 
ATOM      6  N   UNL     1       0.186  11.481  18.527  0.00  0.00    +0.000 N 
ATOM      7  N   UNL     1       1.774  13.101  19.176  0.00  0.00    +0.000 NA
ATOM      8  C   UNL     1       2.129  14.390  19.334  0.00  0.00    +0.000 A 
ATOM      9  H   UNL     1      -0.665  11.404  17.996  0.00  0.00    +0.000 HD
ENDROOT
BRANCH   6  10
ATOM     10  C   UNL     1       0.821  10.310  18.955  0.00  0.00    +0.000 A 
ATOM     11  C   UNL     1       0.473   9.750  20.192  0.00  0.00    +0.000 A 
ATOM     12  C   UNL     1       1.011   8.527  20.603  0.00  0.00    +0.000 A 
ATOM     13  C   UNL     1       1.895   7.837  19.770  0.00  0.00    +0.000 A 
ATOM     14  C   UNL     1       2.252   8.384  18.536  0.00  0.00    +0.000 A 
ATOM     15  C   UNL     1       1.723   9.611  18.141  0.00  0.00    +0.000 A 
ATOM     16  C   UNL     1       3.193   7.595  17.671  0.00  0.00    +0.000 C 
ATOM     17  C   UNL     1       2.805   6.113  17.763  0.00  0.00    +0.000 C 
ATOM     18  N   UNL     1       2.744   5.554  19.130  0.00  0.00    +0.000 NA
ATOM     19  C   UNL     1       2.574   6.562  20.197  0.00  0.00    +0.000 C 
BRANCH  18  20
ATOM     20  C   UNL     1       3.882   4.664  19.397  0.00  0.00    +0.000 C 
BRANCH  20  21
ATOM     21  C   UNL     1       5.071   4.861  18.446  0.00  0.00    +0.000 C 
BRANCH  21  22
ATOM     22  C   UNL     1       6.372   5.204  19.175  0.00  0.00    +0.000 C 
BRANCH  22  23
ATOM     23  C   UNL     1       7.472   5.549  18.177  0.00  0.00    +0.000 C 
BRANCH  23  24
ATOM     24  C   UNL     1       7.811   7.032  18.207  0.00  0.00    +0.000 C 
BRANCH  24  25
ATOM     25  O   UNL     1       7.531   7.611  16.938  0.00  0.00    +0.000 OA
ATOM     26  H   UNL     1       7.392   8.562  17.078  0.00  0.00    +0.000 HD
ENDBRANCH  24  25
ENDBRANCH  23  24
ENDBRANCH  22  23
ENDBRANCH  21  22
ENDBRANCH  20  21
ENDBRANCH  18  20
ENDBRANCH   6  10
BRANCH   8  27
ATOM     27  C   UNL     1       3.505  14.566  19.776  0.00  0.00    +0.000 A 
ATOM     28  C   UNL     1       4.670  15.031  19.129  0.00  0.00    +0.000 A 
ATOM     29  N   UNL     1       5.748  15.012  19.917  0.00  0.00    +0.000 NA
ATOM     30  N   UNL     1       5.274  14.561  21.095  0.00  0.00    +0.000 N 
ATOM     31  C   UNL     1       3.934  14.302  21.064  0.00  0.00    +0.000 A 
BRANCH  30  32
ATOM     32  C   UNL     1       6.183  14.404  22.225  0.00  0.00    +0.000 C 
ATOM     33  C   UNL     1       5.752  13.255  23.134  0.00  0.00    +0.000 C 
ATOM     34  C   UNL     1       7.633  14.246  21.769  0.00  0.00    +0.000 C 
ENDBRANCH  30  32
ENDBRANCH   8  27
TORSDOF 9
ENDMDL
MODEL 3
REMARK VINA RESULT:      -7.2      3.738      9.429
REMARK  Name = 
REMARK  12 active torsions:
REMARK  status: ('A' for Active; 'I' for Inactive)
REMARK    1  A    between atoms: C_1  and  C_2
REMARK    2  A    between atoms: N_6  and  C_7
REMARK    3  A    between atoms: N_15  and  C_16
REMARK    4  A    between atoms: C_16  and  C_17
REMARK    5  A    between atoms: C_17  and  C_18
REMARK    6  A    between atoms: C_18  and  C_19
REMARK    7  A    between atoms: C_19  and  C_20
REMARK    8  A    between atoms: C_20  and  O_21
REMARK    9  A    between atoms: C_24  and  C_25
REMARK   10  A    between atoms: N_28  and  C_29
REMARK   11  A    between atoms: C_29  and  C_30
REMARK   12  A    between atoms: C_29  and  C_31
REMARK                            x       y       z     vdW  Elec       q    Type
REMARK                         _______ _______ _______ _____ _____    ______ ____
ROOT
ATOM      1  C   UNL     1       3.866   1.418  19.467  0.00  0.00    +0.000 C 
ATOM      2  C   UNL     1       3.286   2.725  19.888  0.00  0.00    +0.000 A 
ATOM      3  C   UNL     1       2.551   2.827  21.055  0.00  0.00    +0.000 A 
ATOM      4  N   UNL     1       2.021   3.971  21.532  0.00  0.00    +0.000 NA
ATOM      5  C   UNL     1       2.209   5.069  20.792  0.00  0.00    +0.000 A 
ATOM      6  N   UNL     1       1.679   6.259  21.280  0.00  0.00    +0.000 N 
ATOM      7  N   UNL     1       2.909   5.069  19.656  0.00  0.00    +0.000 NA
ATOM      8  C   UNL     1       3.445   3.918  19.210  0.00  0.00    +0.000 A 
ATOM      9  H   UNL     1       1.363   6.166  22.230  0.00  0.00    +0.000 HD
ENDROOT
BRANCH   6  10
ATOM     10  C   UNL     1       1.535   7.496  20.642  0.00  0.00    +0.000 A 
ATOM     11  C   UNL     1       2.048   7.669  19.349  0.00  0.00    +0.000 A 
ATOM     12  C   UNL     1       1.832   8.857  18.644  0.00  0.00    +0.000 A 
ATOM     13  C   UNL     1       1.082   9.885  19.219  0.00  0.00    +0.000 A 
ATOM     14  C   UNL     1       0.567   9.727  20.508  0.00  0.00    +0.000 A 
ATOM     15  C   UNL     1       0.800   8.547  21.209  0.00  0.00    +0.000 A 
ATOM     16  C   UNL     1      -0.247  10.856  21.075  0.00  0.00    +0.000 C 
ATOM     17  C   UNL     1      -1.142  11.413  19.960  0.00  0.00    +0.000 C 
ATOM     18  N   UNL     1      -0.440  11.830  18.728  0.00  0.00    +0.000 NA
ATOM     19  C   UNL     1       0.892  11.218  18.545  0.00  0.00    +0.000 C 
BRANCH  18  20
ATOM     20  C   UNL     1      -0.389  13.293  18.609  0.00  0.00    +0.000 C 
BRANCH  20  21
ATOM     21  C   UNL     1       1.033  13.872  18.579  0.00  0.00    +0.000 C 
BRANCH  21  22
ATOM     22  C   UNL     1       1.211  15.073  19.511  0.00  0.00    +0.000 C 
BRANCH  22  23
ATOM     23  C   UNL     1       2.633  15.617  19.420  0.00  0.00    +0.000 C 
BRANCH  23  24
ATOM     24  C   UNL     1       3.025  15.925  17.982  0.00  0.00    +0.000 C 
BRANCH  24  25
ATOM     25  O   UNL     1       3.709  17.171  17.931  0.00  0.00    +0.000 OA
ATOM     26  H   UNL     1       4.105  17.320  18.806  0.00  0.00    +0.000 HD
ENDBRANCH  24  25
ENDBRANCH  23  24
ENDBRANCH  22  23
ENDBRANCH  21  22
ENDBRANCH  20  21
ENDBRANCH  18  20
ENDBRANCH   6  10
BRANCH   8  27
ATOM     27  C   UNL     1       4.229   4.073  17.992  0.00  0.00    +0.000 A 
ATOM     28  C   UNL     1       3.994   3.716  16.647  0.00  0.00    +0.000 A 
ATOM     29  N   UNL     1       5.008   4.035  15.838  0.00  0.00    +0.000 NA
ATOM     30  N   UNL     1       5.894   4.633  16.658  0.00  0.00    +0.000 N 
ATOM     31  C   UNL     1       5.462   4.698  17.951  0.00  0.00    +0.000 A 
BRANCH  30  32
ATOM     32  C   UNL     1       7.156   5.128  16.117  0.00  0.00    +0.000 C 
ATOM     33  C   UNL     1       7.171   5.068  14.591  0.00  0.00    +0.000 C 
ATOM     34  C   UNL     1       7.480   6.531  16.628  0.00  0.00    +0.000 C 
ENDBRANCH  30  32
ENDBRANCH   8  27
TORSDOF 9
ENDMDL
MODEL 4
REMARK VINA RESULT:      -7.2      3.569      9.407
REMARK  Name = 
REMARK  12 active torsions:
REMARK  status: ('A' for Active; 'I' for Inactive)
REMARK    1  A    between atoms: C_1  and  C_2
REMARK    2  A    between atoms: N_6  and  C_7
REMARK    3  A    between atoms: N_15  and  C_16
REMARK    4  A    between atoms: C_16  and  C_17
REMARK    5  A    between atoms: C_17  and  C_18
REMARK    6  A    between atoms: C_18  and  C_19
REMARK    7  A    between atoms: C_19  and  C_20
REMARK    8  A    between atoms: C_20  and  O_21
REMARK    9  A    between atoms: C_24  and  C_25
REMARK   10  A    between atoms: N_28  and  C_29
REMARK   11  A    between atoms: C_29  and  C_30
REMARK   12  A    between atoms: C_29  and  C_31
REMARK                            x       y       z     vdW  Elec       q    Type
REMARK                         _______ _______ _______ _____ _____    ______ ____
ROOT
ATOM      1  C   UNL     1       4.431   1.680  19.462  0.00  0.00    +0.000 C 
ATOM      2  C   UNL     1       3.709   2.935  19.821  0.00  0.00    +0.000 A 
ATOM      3  C   UNL     1       2.763   2.940  20.830  0.00  0.00    +0.000 A 
ATOM      4  N   UNL     1       2.090   4.031  21.246  0.00  0.00    +0.000 NA
ATOM      5  C   UNL     1       2.350   5.174  20.603  0.00  0.00    +0.000 A 
ATOM      6  N   UNL     1       1.672   6.311  21.031  0.00  0.00    +0.000 N 
ATOM      7  N   UNL     1       3.250   5.267  19.621  0.00  0.00    +0.000 NA
ATOM      8  C   UNL     1       3.924   4.167  19.237  0.00  0.00    +0.000 A 
ATOM      9  H   UNL     1       1.189   6.153  21.899  0.00  0.00    +0.000 HD
ENDROOT
BRANCH   6  10
ATOM     10  C   UNL     1       1.581   7.571  20.430  0.00  0.00    +0.000 A 
ATOM     11  C   UNL     1       2.079   7.755  19.133  0.00  0.00    +0.000 A 
ATOM     12  C   UNL     1       1.912   8.972  18.465  0.00  0.00    +0.000 A 
ATOM     13  C   UNL     1       1.225  10.019  19.082  0.00  0.00    +0.000 A 
ATOM     14  C   UNL     1       0.724   9.850  20.375  0.00  0.00    +0.000 A 
ATOM     15  C   UNL     1       0.909   8.641  21.039  0.00  0.00    +0.000 A 
ATOM     16  C   UNL     1      -0.022  11.002  20.988  0.00  0.00    +0.000 C 
ATOM     17  C   UNL     1      -0.906  11.635  19.906  0.00  0.00    +0.000 C 
ATOM     18  N   UNL     1      -0.205  12.051  18.673  0.00  0.00    +0.000 NA
ATOM     19  C   UNL     1       1.091  11.379  18.449  0.00  0.00    +0.000 C 
BRANCH  18  20
ATOM     20  C   UNL     1      -0.081  13.513  18.594  0.00  0.00    +0.000 C 
BRANCH  20  21
ATOM     21  C   UNL     1       1.339  14.039  18.848  0.00  0.00    +0.000 C 
BRANCH  21  22
ATOM     22  C   UNL     1       1.393  15.117  19.933  0.00  0.00    +0.000 C 
BRANCH  22  23
ATOM     23  C   UNL     1       2.355  16.232  19.535  0.00  0.00    +0.000 C 
BRANCH  23  24
ATOM     24  C   UNL     1       3.499  15.706  18.680  0.00  0.00    +0.000 C 
BRANCH  24  25
ATOM     25  O   UNL     1       4.609  15.391  19.513  0.00  0.00    +0.000 OA
ATOM     26  H   UNL     1       4.389  14.574  19.992  0.00  0.00    +0.000 HD
ENDBRANCH  24  25
ENDBRANCH  23  24
ENDBRANCH  22  23
ENDBRANCH  21  22
ENDBRANCH  20  21
ENDBRANCH  18  20
ENDBRANCH   6  10
BRANCH   8  27
ATOM     27  C   UNL     1       4.912   4.423  18.197  0.00  0.00    +0.000 A 
ATOM     28  C   UNL     1       6.307   4.629  18.227  0.00  0.00    +0.000 A 
ATOM     29  N   UNL     1       6.829   4.851  17.017  0.00  0.00    +0.000 NA
ATOM     30  N   UNL     1       5.768   4.756  16.192  0.00  0.00    +0.000 N 
ATOM     31  C   UNL     1       4.605   4.479  16.849  0.00  0.00    +0.000 A 
BRANCH  30  32
ATOM     32  C   UNL     1       5.954   4.943  14.756  0.00  0.00    +0.000 C 
ATOM     33  C   UNL     1       7.430   5.110  14.401  0.00  0.00    +0.000 C 
ATOM     34  C   UNL     1       5.305   3.820  13.949  0.00  0.00    +0.000 C 
ENDBRANCH  30  32
ENDBRANCH   8  27
TORSDOF 9
ENDMDL
MODEL 5
REMARK VINA RESULT:      -7.1      4.482      6.324
REMARK  Name = 
REMARK  12 active torsions:
REMARK  status: ('A' for Active; 'I' for Inactive)
REMARK    1  A    between atoms: C_1  and  C_2
REMARK    2  A    between atoms: N_6  and  C_7
REMARK    3  A    between atoms: N_15  and  C_16
REMARK    4  A    between atoms: C_16  and  C_17
REMARK    5  A    between atoms: C_17  and  C_18
REMARK    6  A    between atoms: C_18  and  C_19
REMARK    7  A    between atoms: C_19  and  C_20
REMARK    8  A    between atoms: C_20  and  O_21
REMARK    9  A    between atoms: C_24  and  C_25
REMARK   10  A    between atoms: N_28  and  C_29
REMARK   11  A    between atoms: C_29  and  C_30
REMARK   12  A    between atoms: C_29  and  C_31
REMARK                            x       y       z     vdW  Elec       q    Type
REMARK                         _______ _______ _______ _____ _____    ______ ____
ROOT
ATOM      1  C   UNL     1       1.621  16.839  19.515  0.00  0.00    +0.000 C 
ATOM      2  C   UNL     1       1.315  15.396  19.298  0.00  0.00    +0.000 A 
ATOM      3  C   UNL     1       0.125  15.010  18.708  0.00  0.00    +0.000 A 
ATOM      4  N   UNL     1      -0.221  13.735  18.440  0.00  0.00    +0.000 NA
ATOM      5  C   UNL     1       0.653  12.790  18.804  0.00  0.00    +0.000 A 
ATOM      6  N   UNL     1       0.315  11.471  18.520  0.00  0.00    +0.000 N 
ATOM      7  N   UNL     1       1.828  13.068  19.373  0.00  0.00    +0.000 NA
ATOM      8  C   UNL     1       2.160  14.350  19.613  0.00  0.00    +0.000 A 
ATOM      9  H   UNL     1      -0.484  11.412  17.912  0.00  0.00    +0.000 HD
ENDROOT
BRANCH   6  10
ATOM     10  C   UNL     1       0.915  10.285  18.959  0.00  0.00    +0.000 A 
ATOM     11  C   UNL     1       0.590   9.775  20.223  0.00  0.00    +0.000 A 
ATOM     12  C   UNL     1       1.091   8.541  20.650  0.00  0.00    +0.000 A 
ATOM     13  C   UNL     1       1.912   7.791  19.806  0.00  0.00    +0.000 A 
ATOM     14  C   UNL     1       2.246   8.288  18.545  0.00  0.00    +0.000 A 
ATOM     15  C   UNL     1       1.755   9.525  18.134  0.00  0.00    +0.000 A 
ATOM     16  C   UNL     1       3.119   7.435  17.669  0.00  0.00    +0.000 C 
ATOM     17  C   UNL     1       2.673   5.975  17.818  0.00  0.00    +0.000 C 
ATOM     18  N   UNL     1       2.639   5.457  19.202  0.00  0.00    +0.000 NA
ATOM     19  C   UNL     1       2.552   6.500  20.245  0.00  0.00    +0.000 C 
BRANCH  18  20
ATOM     20  C   UNL     1       3.747   4.526  19.453  0.00  0.00    +0.000 C 
BRANCH  20  21
ATOM     21  C   UNL     1       5.139   5.123  19.205  0.00  0.00    +0.000 C 
BRANCH  21  22
ATOM     22  C   UNL     1       5.973   4.308  18.214  0.00  0.00    +0.000 C 
BRANCH  22  23
ATOM     23  C   UNL     1       6.821   5.228  17.341  0.00  0.00    +0.000 C 
BRANCH  23  24
ATOM     24  C   UNL     1       6.770   4.815  15.878  0.00  0.00    +0.000 C 
BRANCH  24  25
ATOM     25  O   UNL     1       7.719   5.571  15.136  0.00  0.00    +0.000 OA
ATOM     26  H   UNL     1       8.435   5.816  15.746  0.00  0.00    +0.000 HD
ENDBRANCH  24  25
ENDBRANCH  23  24
ENDBRANCH  22  23
ENDBRANCH  21  22
ENDBRANCH  20  21
ENDBRANCH  18  20
ENDBRANCH   6  10
BRANCH   8  27
ATOM     27  C   UNL     1       3.490  14.512  20.184  0.00  0.00    +0.000 A 
ATOM     28  C   UNL     1       4.022  14.259  21.466  0.00  0.00    +0.000 A 
ATOM     29  N   UNL     1       5.316  14.573  21.566  0.00  0.00    +0.000 NA
ATOM     30  N   UNL     1       5.635  15.004  20.330  0.00  0.00    +0.000 N 
ATOM     31  C   UNL     1       4.581  14.964  19.464  0.00  0.00    +0.000 A 
BRANCH  30  32
ATOM     32  C   UNL     1       6.998  15.444  20.049  0.00  0.00    +0.000 C 
ATOM     33  C   UNL     1       7.450  16.523  21.030  0.00  0.00    +0.000 C 
ATOM     34  C   UNL     1       7.977  14.270  20.016  0.00  0.00    +0.000 C 
ENDBRANCH  30  32
ENDBRANCH   8  27
TORSDOF 9
ENDMDL
MODEL 6
REMARK VINA RESULT:      -7.1      4.468      6.423
REMARK  Name = 
REMARK  12 active torsions:
REMARK  status: ('A' for Active; 'I' for Inactive)
REMARK    1  A    between atoms: C_1  and  C_2
REMARK    2  A    between atoms: N_6  and  C_7
REMARK    3  A    between atoms: N_15  and  C_16
REMARK    4  A    between atoms: C_16  and  C_17
REMARK    5  A    between atoms: C_17  and  C_18
REMARK    6  A    between atoms: C_18  and  C_19
REMARK    7  A    between atoms: C_19  and  C_20
REMARK    8  A    between atoms: C_20  and  O_21
REMARK    9  A    between atoms: C_24  and  C_25
REMARK   10  A    between atoms: N_28  and  C_29
REMARK   11  A    between atoms: C_29  and  C_30
REMARK   12  A    between atoms: C_29  and  C_31
REMARK                            x       y       z     vdW  Elec       q    Type
REMARK                         _______ _______ _______ _____ _____    ______ ____
ROOT
ATOM      1  C   UNL     1       1.049  16.357  19.454  0.00  0.00    +0.000 C 
ATOM      2  C   UNL     1       0.901  14.893  19.208  0.00  0.00    +0.000 A 
ATOM      3  C   UNL     1      -0.241  14.392  18.609  0.00  0.00    +0.000 A 
ATOM      4  N   UNL     1      -0.446  13.092  18.315  0.00  0.00    +0.000 NA
ATOM      5  C   UNL     1       0.525  12.242  18.662  0.00  0.00    +0.000 A 
ATOM      6  N   UNL     1       0.332  10.899  18.352  0.00  0.00    +0.000 N 
ATOM      7  N   UNL     1       1.664  12.634  19.237  0.00  0.00    +0.000 NA
ATOM      8  C   UNL     1       1.854  13.939  19.503  0.00  0.00    +0.000 A 
ATOM      9  H   UNL     1      -0.456  10.766  17.742  0.00  0.00    +0.000 HD
ENDROOT
BRANCH   6  10
ATOM     10  C   UNL     1       1.057   9.777  18.768  0.00  0.00    +0.000 A 
ATOM     11  C   UNL     1       0.721   9.147  19.973  0.00  0.00    +0.000 A 
ATOM     12  C   UNL     1       1.356   7.965  20.367  0.00  0.00    +0.000 A 
ATOM     13  C   UNL     1       2.327   7.386  19.547  0.00  0.00    +0.000 A 
ATOM     14  C   UNL     1       2.673   8.005  18.344  0.00  0.00    +0.000 A 
ATOM     15  C   UNL     1       2.047   9.190  17.967  0.00  0.00    +0.000 A 
ATOM     16  C   UNL     1       3.712   7.333  17.490  0.00  0.00    +0.000 C 
ATOM     17  C   UNL     1       3.460   5.820  17.523  0.00  0.00    +0.000 C 
ATOM     18  N   UNL     1       3.404   5.214  18.870  0.00  0.00    +0.000 NA
ATOM     19  C   UNL     1       3.107   6.165  19.960  0.00  0.00    +0.000 C 
BRANCH  18  20
ATOM     20  C   UNL     1       4.610   4.423  19.151  0.00  0.00    +0.000 C 
BRANCH  20  21
ATOM     21  C   UNL     1       4.548   2.977  18.638  0.00  0.00    +0.000 C 
BRANCH  21  22
ATOM     22  C   UNL     1       3.190   2.614  18.033  0.00  0.00    +0.000 C 
BRANCH  22  23
ATOM     23  C   UNL     1       2.239   2.109  19.113  0.00  0.00    +0.000 C 
BRANCH  23  24
ATOM     24  C   UNL     1       0.811   2.572  18.863  0.00  0.00    +0.000 C 
BRANCH  24  25
ATOM     25  O   UNL     1       0.812   3.623  17.905  0.00  0.00    +0.000 OA
ATOM     26  H   UNL     1       0.211   3.361  17.187  0.00  0.00    +0.000 HD
ENDBRANCH  24  25
ENDBRANCH  23  24
ENDBRANCH  22  23
ENDBRANCH  21  22
ENDBRANCH  20  21
ENDBRANCH  18  20
ENDBRANCH   6  10
BRANCH   8  27
ATOM     27  C   UNL     1       3.159  14.233  20.079  0.00  0.00    +0.000 A 
ATOM     28  C   UNL     1       3.677  14.130  21.388  0.00  0.00    +0.000 A 
ATOM     29  N   UNL     1       4.948  14.531  21.480  0.00  0.00    +0.000 NA
ATOM     30  N   UNL     1       5.268  14.866  20.215  0.00  0.00    +0.000 N 
ATOM     31  C   UNL     1       4.237  14.684  19.339  0.00  0.00    +0.000 A 
BRANCH  30  32
ATOM     32  C   UNL     1       6.609  15.361  19.918  0.00  0.00    +0.000 C 
ATOM     33  C   UNL     1       6.741  16.847  20.243  0.00  0.00    +0.000 C 
ATOM     34  C   UNL     1       7.686  14.534  20.619  0.00  0.00    +0.000 C 
ENDBRANCH  30  32
ENDBRANCH   8  27
TORSDOF 9
ENDMDL
MODEL 7
REMARK VINA RESULT:      -7.1      2.282      3.262
REMARK  Name = 
REMARK  12 active torsions:
REMARK  status: ('A' for Active; 'I' for Inactive)
REMARK    1  A    between atoms: C_1  and  C_2
REMARK    2  A    between atoms: N_6  and  C_7
REMARK    3  A    between atoms: N_15  and  C_16
REMARK    4  A    between atoms: C_16  and  C_17
REMARK    5  A    between atoms: C_17  and  C_18
REMARK    6  A    between atoms: C_18  and  C_19
REMARK    7  A    between atoms: C_19  and  C_20
REMARK    8  A    between atoms: C_20  and  O_21
REMARK    9  A    between atoms: C_24  and  C_25
REMARK   10  A    between atoms: N_28  and  C_29
REMARK   11  A    between atoms: C_29  and  C_30
REMARK   12  A    between atoms: C_29  and  C_31
REMARK                            x       y       z     vdW  Elec       q    Type
REMARK                         _______ _______ _______ _____ _____    ______ ____
ROOT
ATOM      1  C   UNL     1      -0.761  11.950  22.790  0.00  0.00    +0.000 C 
ATOM      2  C   UNL     1      -0.197  10.718  22.167  0.00  0.00    +0.000 A 
ATOM      3  C   UNL     1      -0.401   9.479  22.747  0.00  0.00    +0.000 A 
ATOM      4  N   UNL     1       0.038   8.311  22.237  0.00  0.00    +0.000 NA
ATOM      5  C   UNL     1       0.743   8.382  21.103  0.00  0.00    +0.000 A 
ATOM      6  N   UNL     1       1.190   7.183  20.558  0.00  0.00    +0.000 N 
ATOM      7  N   UNL     1       0.984   9.531  20.469  0.00  0.00    +0.000 NA
ATOM      8  C   UNL     1       0.519  10.683  20.987  0.00  0.00    +0.000 A 
ATOM      9  H   UNL     1       0.770   6.388  21.009  0.00  0.00    +0.000 HD
ENDROOT
BRANCH   6  10
ATOM     10  C   UNL     1       2.105   6.963  19.523  0.00  0.00    +0.000 A 
ATOM     11  C   UNL     1       2.422   8.011  18.648  0.00  0.00    +0.000 A 
ATOM     12  C   UNL     1       3.408   7.855  17.668  0.00  0.00    +0.000 A 
ATOM     13  C   UNL     1       4.104   6.649  17.563  0.00  0.00    +0.000 A 
ATOM     14  C   UNL     1       3.797   5.596  18.427  0.00  0.00    +0.000 A 
ATOM     15  C   UNL     1       2.804   5.754  19.390  0.00  0.00    +0.000 A 
ATOM     16  C   UNL     1       4.587   4.326  18.283  0.00  0.00    +0.000 C 
ATOM     17  C   UNL     1       6.054   4.695  18.024  0.00  0.00    +0.000 C 
ATOM     18  N   UNL     1       6.289   5.601  16.880  0.00  0.00    +0.000 NA
ATOM     19  C   UNL     1       5.111   6.394  16.473  0.00  0.00    +0.000 C 
BRANCH  18  20
ATOM     20  C   UNL     1       6.884   4.885  15.743  0.00  0.00    +0.000 C 
BRANCH  20  21
ATOM     21  C   UNL     1       5.916   4.642  14.577  0.00  0.00    +0.000 C 
BRANCH  21  22
ATOM     22  C   UNL     1       6.617   4.153  13.308  0.00  0.00    +0.000 C 
BRANCH  22  23
ATOM     23  C   UNL     1       5.757   3.125  12.581  0.00  0.00    +0.000 C 
BRANCH  23  24
ATOM     24  C   UNL     1       4.689   3.792  11.725  0.00  0.00    +0.000 C 
BRANCH  24  25
ATOM     25  O   UNL     1       3.753   2.816  11.285  0.00  0.00    +0.000 OA
ATOM     26  H   UNL     1       3.835   2.048  11.876  0.00  0.00    +0.000 HD
ENDBRANCH  24  25
ENDBRANCH  23  24
ENDBRANCH  22  23
ENDBRANCH  21  22
ENDBRANCH  20  21
ENDBRANCH  18  20
ENDBRANCH   6  10
BRANCH   8  27
ATOM     27  C   UNL     1       0.806  11.851  20.166  0.00  0.00    +0.000 A 
ATOM     28  C   UNL     1       0.230  12.359  18.982  0.00  0.00    +0.000 A 
ATOM     29  N   UNL     1       0.826  13.471  18.546  0.00  0.00    +0.000 NA
ATOM     30  N   UNL     1       1.777  13.706  19.471  0.00  0.00    +0.000 N 
ATOM     31  C   UNL     1       1.788  12.776  20.470  0.00  0.00    +0.000 A 
BRANCH  30  32
ATOM     32  C   UNL     1       2.651  14.866  19.327  0.00  0.00    +0.000 C 
ATOM     33  C   UNL     1       2.695  15.357  17.882  0.00  0.00    +0.000 C 
ATOM     34  C   UNL     1       2.266  15.989  20.290  0.00  0.00    +0.000 C 
ENDBRANCH  30  32
ENDBRANCH   8  27
TORSDOF 9
ENDMDL
MODEL 8
REMARK VINA RESULT:      -7.0      4.127      9.761
REMARK  Name = 
REMARK  12 active torsions:
REMARK  status: ('A' for Active; 'I' for Inactive)
REMARK    1  A    between atoms: C_1  and  C_2
REMARK    2  A    between atoms: N_6  and  C_7
REMARK    3  A    between atoms: N_15  and  C_16
REMARK    4  A    between atoms: C_16  and  C_17
REMARK    5  A    between atoms: C_17  and  C_18
REMARK    6  A    between atoms: C_18  and  C_19
REMARK    7  A    between atoms: C_19  and  C_20
REMARK    8  A    between atoms: C_20  and  O_21
REMARK    9  A    between atoms: C_24  and  C_25
REMARK   10  A    between atoms: N_28  and  C_29
REMARK   11  A    between atoms: C_29  and  C_30
REMARK   12  A    between atoms: C_29  and  C_31
REMARK                            x       y       z     vdW  Elec       q    Type
REMARK                         _______ _______ _______ _____ _____    ______ ____
ROOT
ATOM      1  C   UNL     1       4.136   1.330  18.990  0.00  0.00    +0.000 C 
ATOM      2  C   UNL     1       3.496   2.620  19.376  0.00  0.00    +0.000 A 
ATOM      3  C   UNL     1       2.479   2.649  20.313  0.00  0.00    +0.000 A 
ATOM      4  N   UNL     1       1.869   3.769  20.749  0.00  0.00    +0.000 NA
ATOM      5  C   UNL     1       2.272   4.920  20.202  0.00  0.00    +0.000 A 
ATOM      6  N   UNL     1       1.660   6.085  20.653  0.00  0.00    +0.000 N 
ATOM      7  N   UNL     1       3.249   4.991  19.295  0.00  0.00    +0.000 NA
ATOM      8  C   UNL     1       3.857   3.861  18.890  0.00  0.00    +0.000 A 
ATOM      9  H   UNL     1       1.100   5.920  21.472  0.00  0.00    +0.000 HD
ENDROOT
BRANCH   6  10
ATOM     10  C   UNL     1       1.720   7.382  20.130  0.00  0.00    +0.000 A 
ATOM     11  C   UNL     1       2.140   7.573  18.807  0.00  0.00    +0.000 A 
ATOM     12  C   UNL     1       2.114   8.843  18.222  0.00  0.00    +0.000 A 
ATOM     13  C   UNL     1       1.648   9.939  18.951  0.00  0.00    +0.000 A 
ATOM     14  C   UNL     1       1.229   9.763  20.271  0.00  0.00    +0.000 A 
ATOM     15  C   UNL     1       1.273   8.498  20.851  0.00  0.00    +0.000 A 
ATOM     16  C   UNL     1       0.721  10.971  21.007  0.00  0.00    +0.000 C 
ATOM     17  C   UNL     1      -0.135  11.801  20.040  0.00  0.00    +0.000 C 
ATOM     18  N   UNL     1       0.526  12.186  18.775  0.00  0.00    +0.000 NA
ATOM     19  C   UNL     1       1.680  11.342  18.404  0.00  0.00    +0.000 C 
BRANCH  18  20
ATOM     20  C   UNL     1       0.870  13.614  18.763  0.00  0.00    +0.000 C 
BRANCH  20  21
ATOM     21  C   UNL     1       2.225  13.941  19.408  0.00  0.00    +0.000 C 
BRANCH  21  22
ATOM     22  C   UNL     1       2.610  15.416  19.280  0.00  0.00    +0.000 C 
BRANCH  22  23
ATOM     23  C   UNL     1       1.942  16.242  20.374  0.00  0.00    +0.000 C 
BRANCH  23  24
ATOM     24  C   UNL     1       2.349  17.707  20.298  0.00  0.00    +0.000 C 
BRANCH  24  25
ATOM     25  O   UNL     1       2.059  18.215  19.001  0.00  0.00    +0.000 OA
ATOM     26  H   UNL     1       1.187  17.872  18.744  0.00  0.00    +0.000 HD
ENDBRANCH  24  25
ENDBRANCH  23  24
ENDBRANCH  22  23
ENDBRANCH  21  22
ENDBRANCH  20  21
ENDBRANCH  18  20
ENDBRANCH   6  10
BRANCH   8  27
ATOM     27  C   UNL     1       4.940   4.089  17.943  0.00  0.00    +0.000 A 
ATOM     28  C   UNL     1       6.255   4.580  18.086  0.00  0.00    +0.000 A 
ATOM     29  N   UNL     1       6.918   4.644  16.928  0.00  0.00    +0.000 NA
ATOM     30  N   UNL     1       6.037   4.161  16.030  0.00  0.00    +0.000 N 
ATOM     31  C   UNL     1       4.850   3.795  16.594  0.00  0.00    +0.000 A 
BRANCH  30  32
ATOM     32  C   UNL     1       6.416   4.075  14.623  0.00  0.00    +0.000 C 
ATOM     33  C   UNL     1       5.189   4.047  13.715  0.00  0.00    +0.000 C 
ATOM     34  C   UNL     1       7.383   5.192  14.228  0.00  0.00    +0.000 C 
ENDBRANCH  30  32
ENDBRANCH   8  27
TORSDOF 9
ENDMDL
MODEL 9
REMARK VINA RESULT:      -7.0      3.385      9.185
REMARK  Name = 
REMARK  12 active torsions:
REMARK  status: ('A' for Active; 'I' for Inactive)
REMARK    1  A    between atoms: C_1  and  C_2
REMARK    2  A    between atoms: N_6  and  C_7
REMARK    3  A    between atoms: N_15  and  C_16
REMARK    4  A    between atoms: C_16  and  C_17
REMARK    5  A    between atoms: C_17  and  C_18
REMARK    6  A    between atoms: C_18  and  C_19
REMARK    7  A    between atoms: C_19  and  C_20
REMARK    8  A    between atoms: C_20  and  O_21
REMARK    9  A    between atoms: C_24  and  C_25
REMARK   10  A    between atoms: N_28  and  C_29
REMARK   11  A    between atoms: C_29  and  C_30
REMARK   12  A    between atoms: C_29  and  C_31
REMARK                            x       y       z     vdW  Elec       q    Type
REMARK                         _______ _______ _______ _____ _____    ______ ____
ROOT
ATOM      1  C   UNL     1       4.193   2.667  18.819  0.00  0.00    +0.000 C 
ATOM      2  C   UNL     1       3.488   3.890  19.297  0.00  0.00    +0.000 A 
ATOM      3  C   UNL     1       2.612   3.826  20.366  0.00  0.00    +0.000 A 
ATOM      4  N   UNL     1       1.960   4.884  20.888  0.00  0.00    +0.000 NA
ATOM      5  C   UNL     1       2.169   6.065  20.299  0.00  0.00    +0.000 A 
ATOM      6  N   UNL     1       1.513   7.167  20.837  0.00  0.00    +0.000 N 
ATOM      7  N   UNL     1       3.001   6.225  19.267  0.00  0.00    +0.000 NA
ATOM      8  C   UNL     1       3.656   5.157  18.775  0.00  0.00    +0.000 A 
ATOM      9  H   UNL     1       1.091   6.954  21.724  0.00  0.00    +0.000 HD
ENDROOT
BRANCH   6  10
ATOM     10  C   UNL     1       1.374   8.460  20.320  0.00  0.00    +0.000 A 
ATOM     11  C   UNL     1       1.623   8.689  18.960  0.00  0.00    +0.000 A 
ATOM     12  C   UNL     1       1.394   9.945  18.390  0.00  0.00    +0.000 A 
ATOM     13  C   UNL     1       0.893  10.988  19.172  0.00  0.00    +0.000 A 
ATOM     14  C   UNL     1       0.643  10.774  20.529  0.00  0.00    +0.000 A 
ATOM     15  C   UNL     1       0.888   9.524  21.093  0.00  0.00    +0.000 A 
ATOM     16  C   UNL     1       0.089  11.923  21.324  0.00  0.00    +0.000 C 
ATOM     17  C   UNL     1      -0.953  12.648  20.462  0.00  0.00    +0.000 C 
ATOM     18  N   UNL     1      -0.480  13.097  19.135  0.00  0.00    +0.000 NA
ATOM     19  C   UNL     1       0.712  12.383  18.635  0.00  0.00    +0.000 C 
BRANCH  18  20
ATOM     20  C   UNL     1      -0.299  14.554  19.095  0.00  0.00    +0.000 C 
BRANCH  20  21
ATOM     21  C   UNL     1       0.970  15.049  19.804  0.00  0.00    +0.000 C 
BRANCH  21  22
ATOM     22  C   UNL     1       1.995  15.657  18.843  0.00  0.00    +0.000 C 
BRANCH  22  23
ATOM     23  C   UNL     1       3.336  14.941  18.964  0.00  0.00    +0.000 C 
BRANCH  23  24
ATOM     24  C   UNL     1       4.276  15.316  17.828  0.00  0.00    +0.000 C 
BRANCH  24  25
ATOM     25  O   UNL     1       5.212  14.266  17.618  0.00  0.00    +0.000 OA
ATOM     26  H   UNL     1       5.898  14.347  18.302  0.00  0.00    +0.000 HD
ENDBRANCH  24  25
ENDBRANCH  23  24
ENDBRANCH  22  23
ENDBRANCH  21  22
ENDBRANCH  20  21
ENDBRANCH  18  20
ENDBRANCH   6  10
BRANCH   8  27
ATOM     27  C   UNL     1       4.570   5.484  17.689  0.00  0.00    +0.000 A 
ATOM     28  C   UNL     1       5.582   6.457  17.544  0.00  0.00    +0.000 A 
ATOM     29  N   UNL     1       6.179   6.418  16.350  0.00  0.00    +0.000 NA
ATOM     30  N   UNL     1       5.572   5.389  15.726  0.00  0.00    +0.000 N 
ATOM     31  C   UNL     1       4.620   4.787  16.496  0.00  0.00    +0.000 A 
BRANCH  30  32
ATOM     32  C   UNL     1       5.970   5.035  14.367  0.00  0.00    +0.000 C 
ATOM     33  C   UNL     1       7.483   5.136  14.185  0.00  0.00    +0.000 C 
ATOM     34  C   UNL     1       5.446   3.658  13.963  0.00  0.00    +0.000 C 
ENDBRANCH  30  32
ENDBRANCH   8  27
TORSDOF 9
ENDMDL
