MODEL 1
REMARK VINA RESULT:      -6.7      0.000      0.000
REMARK  Name = 
REMARK  4 active torsions:
REMARK  status: ('A' for Active; 'I' for Inactive)
REMARK    1  A    between atoms: C_1  and  C_2
REMARK    2  A    between atoms: N_4  and  C_5
REMARK    3  A    between atoms: C_6  and  O_7
REMARK    4  A    between atoms: C_16  and  C_17
REMARK                            x       y       z     vdW  Elec       q    Type
REMARK                         _______ _______ _______ _____ _____    ______ ____
ROOT
ATOM      1  C   UNL     1       3.166   4.217  19.892  0.00  0.00    +0.000 A 
ATOM      2  C   UNL     1       2.280   4.342  20.970  0.00  0.00    +0.000 A 
ATOM      3  N   UNL     1       1.648   5.471  21.307  0.00  0.00    +0.000 NA
ATOM      4  C   UNL     1       1.799   6.529  20.522  0.00  0.00    +0.000 A 
ATOM      5  C   UNL     1       1.122   7.681  20.915  0.00  0.00    +0.000 A 
ATOM      6  C   UNL     1       1.169   8.854  20.166  0.00  0.00    +0.000 A 
ATOM      7  C   UNL     1       1.865   8.857  18.969  0.00  0.00    +0.000 A 
ATOM      8 BR   UNL     1       1.942  10.427  17.924  0.00  0.00    +0.000 Br
ATOM      9  C   UNL     1       2.537   7.706  18.552  0.00  0.00    +0.000 A 
ATOM     10  C   UNL     1       2.591   6.531  19.348  0.00  0.00    +0.000 A 
ATOM     11  C   UNL     1       3.362   5.341  19.047  0.00  0.00    +0.000 A 
ENDROOT
BRANCH  11  12
ATOM     12  C   UNL     1       4.317   5.304  17.882  0.00  0.00    +0.000 A 
ATOM     13  C   UNL     1       5.550   5.984  17.913  0.00  0.00    +0.000 A 
ATOM     14  C   UNL     1       6.432   5.973  16.825  0.00  0.00    +0.000 A 
ATOM     15  C   UNL     1       6.159   5.186  15.716  0.00  0.00    +0.000 A 
ATOM     16  C   UNL     1       4.979   4.457  15.669  0.00  0.00    +0.000 A 
ATOM     17  C   UNL     1       4.051   4.562  16.713  0.00  0.00    +0.000 A 
ENDBRANCH  11  12
BRANCH   1  21
ATOM     18  C   UNL     1       4.442   0.875  18.708  0.00  0.00    +0.000 C 
ATOM     19  C   UNL     1       3.420   1.940  18.986  0.00  0.00    +0.000 C 
ATOM     20  O   UNL     1       2.255   1.835  18.614  0.00  0.00    +0.000 OA
ATOM     21  N   UNL     1       3.916   3.021  19.690  0.00  0.00    +0.000 N 
ATOM     22  H   UNL     1       4.924   3.108  19.744  0.00  0.00    +0.000 HD
ENDBRANCH   1  21
BRANCH   2  23
ATOM     23  O   UNL     1       2.057   3.325  21.854  0.00  0.00    +0.000 OA
ATOM     24  H   UNL     1       2.368   2.518  21.394  0.00  0.00    +0.000 HD
ENDBRANCH   2  23
TORSDOF 3
ENDMDL
MODEL 2
REMARK VINA RESULT:      -6.7      0.052      1.022
REMARK  Name = 
REMARK  4 active torsions:
REMARK  status: ('A' for Active; 'I' for Inactive)
REMARK    1  A    between atoms: C_1  and  C_2
REMARK    2  A    between atoms: N_4  and  C_5
REMARK    3  A    between atoms: C_6  and  O_7
REMARK    4  A    between atoms: C_16  and  C_17
REMARK                            x       y       z     vdW  Elec       q    Type
REMARK                         _______ _______ _______ _____ _____    ______ ____
ROOT
ATOM      1  C   UNL     1       3.171   4.181  19.890  0.00  0.00    +0.000 A 
ATOM      2  C   UNL     1       2.288   4.309  20.971  0.00  0.00    +0.000 A 
ATOM      3  N   UNL     1       1.661   5.440  21.309  0.00  0.00    +0.000 NA
ATOM      4  C   UNL     1       1.812   6.497  20.521  0.00  0.00    +0.000 A 
ATOM      5  C   UNL     1       1.140   7.652  20.914  0.00  0.00    +0.000 A 
ATOM      6  C   UNL     1       1.188   8.823  20.164  0.00  0.00    +0.000 A 
ATOM      7  C   UNL     1       1.879   8.822  18.964  0.00  0.00    +0.000 A 
ATOM      8 BR   UNL     1       1.957  10.390  17.917  0.00  0.00    +0.000 Br
ATOM      9  C   UNL     1       2.547   7.668  18.547  0.00  0.00    +0.000 A 
ATOM     10  C   UNL     1       2.600   6.495  19.344  0.00  0.00    +0.000 A 
ATOM     11  C   UNL     1       3.367   5.302  19.043  0.00  0.00    +0.000 A 
ENDROOT
BRANCH  11  12
ATOM     12  C   UNL     1       4.318   5.261  17.875  0.00  0.00    +0.000 A 
ATOM     13  C   UNL     1       4.011   4.556  16.695  0.00  0.00    +0.000 A 
ATOM     14  C   UNL     1       4.901   4.493  15.615  0.00  0.00    +0.000 A 
ATOM     15  C   UNL     1       6.076   5.231  15.637  0.00  0.00    +0.000 A 
ATOM     16  C   UNL     1       6.389   5.982  16.762  0.00  0.00    +0.000 A 
ATOM     17  C   UNL     1       5.549   5.949  17.881  0.00  0.00    +0.000 A 
ENDBRANCH  11  12
BRANCH   1  21
ATOM     18  C   UNL     1       4.442   0.840  18.698  0.00  0.00    +0.000 C 
ATOM     19  C   UNL     1       3.422   1.908  18.973  0.00  0.00    +0.000 C 
ATOM     20  O   UNL     1       2.260   1.811  18.590  0.00  0.00    +0.000 OA
ATOM     21  N   UNL     1       3.917   2.981  19.688  0.00  0.00    +0.000 N 
ATOM     22  H   UNL     1       4.925   3.063  19.752  0.00  0.00    +0.000 HD
ENDBRANCH   1  21
BRANCH   2  23
ATOM     23  O   UNL     1       2.065   3.294  21.857  0.00  0.00    +0.000 OA
ATOM     24  H   UNL     1       2.950   2.915  22.034  0.00  0.00    +0.000 HD
ENDBRANCH   2  23
TORSDOF 3
ENDMDL
MODEL 3
REMARK VINA RESULT:      -6.6      2.689      4.508
REMARK  Name = 
REMARK  4 active torsions:
REMARK  status: ('A' for Active; 'I' for Inactive)
REMARK    1  A    between atoms: C_1  and  C_2
REMARK    2  A    between atoms: N_4  and  C_5
REMARK    3  A    between atoms: C_6  and  O_7
REMARK    4  A    between atoms: C_16  and  C_17
REMARK                            x       y       z     vdW  Elec       q    Type
REMARK                         _______ _______ _______ _____ _____    ______ ____
ROOT
ATOM      1  C   UNL     1       2.974   6.375  18.082  0.00  0.00    +0.000 A 
ATOM      2  C   UNL     1       3.184   7.600  17.435  0.00  0.00    +0.000 A 
ATOM      3  N   UNL     1       2.659   8.765  17.827  0.00  0.00    +0.000 NA
ATOM      4  C   UNL     1       1.959   8.787  18.954  0.00  0.00    +0.000 A 
ATOM      5  C   UNL     1       1.433  10.024  19.320  0.00  0.00    +0.000 A 
ATOM      6  C   UNL     1       0.705  10.195  20.494  0.00  0.00    +0.000 A 
ATOM      7  C   UNL     1       0.548   9.116  21.348  0.00  0.00    +0.000 A 
ATOM      8 BR   UNL     1      -0.426   9.315  22.953  0.00  0.00    +0.000 Br
ATOM      9  C   UNL     1       1.082   7.872  21.004  0.00  0.00    +0.000 A 
ATOM     10  C   UNL     1       1.737   7.648  19.765  0.00  0.00    +0.000 A 
ATOM     11  C   UNL     1       2.212   6.367  19.280  0.00  0.00    +0.000 A 
ENDROOT
BRANCH  11  12
ATOM     12  C   UNL     1       1.914   5.091  20.025  0.00  0.00    +0.000 A 
ATOM     13  C   UNL     1       0.981   4.153  19.544  0.00  0.00    +0.000 A 
ATOM     14  C   UNL     1       0.681   2.977  20.243  0.00  0.00    +0.000 A 
ATOM     15  C   UNL     1       1.393   2.648  21.387  0.00  0.00    +0.000 A 
ATOM     16  C   UNL     1       2.361   3.521  21.865  0.00  0.00    +0.000 A 
ATOM     17  C   UNL     1       2.574   4.747  21.222  0.00  0.00    +0.000 A 
ENDBRANCH  11  12
BRANCH   1  21
ATOM     18  C   UNL     1       4.806   3.162  17.360  0.00  0.00    +0.000 C 
ATOM     19  C   UNL     1       4.607   4.537  17.931  0.00  0.00    +0.000 C 
ATOM     20  O   UNL     1       5.423   5.047  18.694  0.00  0.00    +0.000 OA
ATOM     21  N   UNL     1       3.443   5.153  17.515  0.00  0.00    +0.000 N 
ATOM     22  H   UNL     1       2.745   4.562  17.078  0.00  0.00    +0.000 HD
ENDBRANCH   1  21
BRANCH   2  23
ATOM     23  O   UNL     1       3.874   7.697  16.261  0.00  0.00    +0.000 OA
ATOM     24  H   UNL     1       3.322   7.226  15.604  0.00  0.00    +0.000 HD
ENDBRANCH   2  23
TORSDOF 3
ENDMDL
MODEL 4
REMARK VINA RESULT:      -6.5      2.706      4.417
REMARK  Name = 
REMARK  4 active torsions:
REMARK  status: ('A' for Active; 'I' for Inactive)
REMARK    1  A    between atoms: C_1  and  C_2
REMARK    2  A    between atoms: N_4  and  C_5
REMARK    3  A    between atoms: C_6  and  O_7
REMARK    4  A    between atoms: C_16  and  C_17
REMARK                            x       y       z     vdW  Elec       q    Type
REMARK                         _______ _______ _______ _____ _____    ______ ____
ROOT
ATOM      1  C   UNL     1       3.004   6.394  18.059  0.00  0.00    +0.000 A 
ATOM      2  C   UNL     1       3.204   7.627  17.425  0.00  0.00    +0.000 A 
ATOM      3  N   UNL     1       2.667   8.783  17.826  0.00  0.00    +0.000 NA
ATOM      4  C   UNL     1       1.965   8.788  18.952  0.00  0.00    +0.000 A 
ATOM      5  C   UNL     1       1.426  10.016  19.329  0.00  0.00    +0.000 A 
ATOM      6  C   UNL     1       0.694  10.169  20.503  0.00  0.00    +0.000 A 
ATOM      7  C   UNL     1       0.545   9.080  21.346  0.00  0.00    +0.000 A 
ATOM      8 BR   UNL     1      -0.434   9.254  22.950  0.00  0.00    +0.000 Br
ATOM      9  C   UNL     1       1.091   7.845  20.991  0.00  0.00    +0.000 A 
ATOM     10  C   UNL     1       1.752   7.639  19.751  0.00  0.00    +0.000 A 
ATOM     11  C   UNL     1       2.239   6.367  19.255  0.00  0.00    +0.000 A 
ENDROOT
BRANCH  11  12
ATOM     12  C   UNL     1       1.952   5.082  19.987  0.00  0.00    +0.000 A 
ATOM     13  C   UNL     1       2.608   4.751  21.189  0.00  0.00    +0.000 A 
ATOM     14  C   UNL     1       2.363   3.548  21.862  0.00  0.00    +0.000 A 
ATOM     15  C   UNL     1       1.368   2.690  21.414  0.00  0.00    +0.000 A 
ATOM     16  C   UNL     1       0.661   3.006  20.262  0.00  0.00    +0.000 A 
ATOM     17  C   UNL     1       0.990   4.156  19.534  0.00  0.00    +0.000 A 
ENDBRANCH  11  12
BRANCH   1  21
ATOM     18  C   UNL     1       4.893   3.226  17.288  0.00  0.00    +0.000 C 
ATOM     19  C   UNL     1       4.679   4.598  17.861  0.00  0.00    +0.000 C 
ATOM     20  O   UNL     1       5.505   5.132  18.595  0.00  0.00    +0.000 OA
ATOM     21  N   UNL     1       3.486   5.182  17.481  0.00  0.00    +0.000 N 
ATOM     22  H   UNL     1       2.789   4.572  17.069  0.00  0.00    +0.000 HD
ENDBRANCH   1  21
BRANCH   2  23
ATOM     23  O   UNL     1       3.896   7.742  16.253  0.00  0.00    +0.000 OA
ATOM     24  H   UNL     1       4.837   7.785  16.518  0.00  0.00    +0.000 HD
ENDBRANCH   2  23
TORSDOF 3
ENDMDL
MODEL 5
REMARK VINA RESULT:      -6.4      2.067      4.906
REMARK  Name = 
REMARK  4 active torsions:
REMARK  status: ('A' for Active; 'I' for Inactive)
REMARK    1  A    between atoms: C_1  and  C_2
REMARK    2  A    between atoms: N_4  and  C_5
REMARK    3  A    between atoms: C_6  and  O_7
REMARK    4  A    between atoms: C_16  and  C_17
REMARK                            x       y       z     vdW  Elec       q    Type
REMARK                         _______ _______ _______ _____ _____    ______ ____
ROOT
ATOM      1  C   UNL     1       3.179   4.261  18.086  0.00  0.00    +0.000 A 
ATOM      2  C   UNL     1       4.028   3.276  17.564  0.00  0.00    +0.000 A 
ATOM      3  N   UNL     1       5.261   3.503  17.102  0.00  0.00    +0.000 NA
ATOM      4  C   UNL     1       5.757   4.728  17.221  0.00  0.00    +0.000 A 
ATOM      5  C   UNL     1       7.045   4.915  16.725  0.00  0.00    +0.000 A 
ATOM      6  C   UNL     1       7.696   6.143  16.813  0.00  0.00    +0.000 A 
ATOM      7  C   UNL     1       7.064   7.191  17.461  0.00  0.00    +0.000 A 
ATOM      8 BR   UNL     1       7.922   8.866  17.606  0.00  0.00    +0.000 Br
ATOM      9  C   UNL     1       5.779   7.017  17.978  0.00  0.00    +0.000 A 
ATOM     10  C   UNL     1       5.054   5.807  17.809  0.00  0.00    +0.000 A 
ATOM     11  C   UNL     1       3.678   5.585  18.206  0.00  0.00    +0.000 A 
ENDROOT
BRANCH  11  12
ATOM     12  C   UNL     1       2.825   6.712  18.731  0.00  0.00    +0.000 A 
ATOM     13  C   UNL     1       2.421   6.768  20.079  0.00  0.00    +0.000 A 
ATOM     14  C   UNL     1       1.609   7.799  20.569  0.00  0.00    +0.000 A 
ATOM     15  C   UNL     1       1.273   8.868  19.750  0.00  0.00    +0.000 A 
ATOM     16  C   UNL     1       1.698   8.877  18.429  0.00  0.00    +0.000 A 
ATOM     17  C   UNL     1       2.413   7.787  17.918  0.00  0.00    +0.000 A 
ENDBRANCH  11  12
BRANCH   1  21
ATOM     18  C   UNL     1      -0.001   3.193  19.801  0.00  0.00    +0.000 C 
ATOM     19  C   UNL     1       1.473   3.204  19.515  0.00  0.00    +0.000 C 
ATOM     20  O   UNL     1       2.274   2.581  20.206  0.00  0.00    +0.000 OA
ATOM     21  N   UNL     1       1.823   3.966  18.416  0.00  0.00    +0.000 N 
ATOM     22  H   UNL     1       1.124   4.609  18.065  0.00  0.00    +0.000 HD
ENDBRANCH   1  21
BRANCH   2  23
ATOM     23  O   UNL     1       3.622   1.985  17.381  0.00  0.00    +0.000 OA
ATOM     24  H   UNL     1       3.710   1.565  18.261  0.00  0.00    +0.000 HD
ENDBRANCH   2  23
TORSDOF 3
ENDMDL
MODEL 6
REMARK VINA RESULT:      -6.4      2.066      4.934
REMARK  Name = 
REMARK  4 active torsions:
REMARK  status: ('A' for Active; 'I' for Inactive)
REMARK    1  A    between atoms: C_1  and  C_2
REMARK    2  A    between atoms: N_4  and  C_5
REMARK    3  A    between atoms: C_6  and  O_7
REMARK    4  A    between atoms: C_16  and  C_17
REMARK                            x       y       z     vdW  Elec       q    Type
REMARK                         _______ _______ _______ _____ _____    ______ ____
ROOT
ATOM      1  C   UNL     1       3.173   4.299  18.100  0.00  0.00    +0.000 A 
ATOM      2  C   UNL     1       4.005   3.312  17.555  0.00  0.00    +0.000 A 
ATOM      3  N   UNL     1       5.235   3.532  17.081  0.00  0.00    +0.000 NA
ATOM      4  C   UNL     1       5.745   4.750  17.209  0.00  0.00    +0.000 A 
ATOM      5  C   UNL     1       7.029   4.930  16.700  0.00  0.00    +0.000 A 
ATOM      6  C   UNL     1       7.694   6.149  16.795  0.00  0.00    +0.000 A 
ATOM      7  C   UNL     1       7.082   7.195  17.464  0.00  0.00    +0.000 A 
ATOM      8 BR   UNL     1       7.959   8.860  17.620  0.00  0.00    +0.000 Br
ATOM      9  C   UNL     1       5.800   7.028  17.994  0.00  0.00    +0.000 A 
ATOM     10  C   UNL     1       5.060   5.829  17.819  0.00  0.00    +0.000 A 
ATOM     11  C   UNL     1       3.687   5.616  18.230  0.00  0.00    +0.000 A 
ENDROOT
BRANCH  11  12
ATOM     12  C   UNL     1       2.853   6.745  18.780  0.00  0.00    +0.000 A 
ATOM     13  C   UNL     1       2.422   7.811  17.966  0.00  0.00    +0.000 A 
ATOM     14  C   UNL     1       1.667   8.875  18.476  0.00  0.00    +0.000 A 
ATOM     15  C   UNL     1       1.221   8.846  19.789  0.00  0.00    +0.000 A 
ATOM     16  C   UNL     1       1.579   7.784  20.609  0.00  0.00    +0.000 A 
ATOM     17  C   UNL     1       2.428   6.782  20.123  0.00  0.00    +0.000 A 
ENDBRANCH  11  12
BRANCH   1  21
ATOM     18  C   UNL     1       0.004   3.220  19.829  0.00  0.00    +0.000 C 
ATOM     19  C   UNL     1       1.474   3.218  19.518  0.00  0.00    +0.000 C 
ATOM     20  O   UNL     1       2.276   2.557  20.172  0.00  0.00    +0.000 OA
ATOM     21  N   UNL     1       1.818   4.014  18.442  0.00  0.00    +0.000 N 
ATOM     22  H   UNL     1       1.124   4.681  18.127  0.00  0.00    +0.000 HD
ENDBRANCH   1  21
BRANCH   2  23
ATOM     23  O   UNL     1       3.583   2.027  17.360  0.00  0.00    +0.000 OA
ATOM     24  H   UNL     1       3.432   1.672  18.259  0.00  0.00    +0.000 HD
ENDBRANCH   2  23
TORSDOF 3
ENDMDL
MODEL 7
REMARK VINA RESULT:      -6.2      7.667      9.907
REMARK  Name = 
REMARK  4 active torsions:
REMARK  status: ('A' for Active; 'I' for Inactive)
REMARK    1  A    between atoms: C_1  and  C_2
REMARK    2  A    between atoms: N_4  and  C_5
REMARK    3  A    between atoms: C_6  and  O_7
REMARK    4  A    between atoms: C_16  and  C_17
REMARK                            x       y       z     vdW  Elec       q    Type
REMARK                         _______ _______ _______ _____ _____    ______ ____
ROOT
ATOM      1  C   UNL     1      -4.060  11.924  18.097  0.00  0.00    +0.000 A 
ATOM      2  C   UNL     1      -5.457  12.015  18.158  0.00  0.00    +0.000 A 
ATOM      3  N   UNL     1      -6.155  12.241  19.275  0.00  0.00    +0.000 NA
ATOM      4  C   UNL     1      -5.482  12.482  20.393  0.00  0.00    +0.000 A 
ATOM      5  C   UNL     1      -6.253  12.711  21.530  0.00  0.00    +0.000 A 
ATOM      6  C   UNL     1      -5.677  13.006  22.763  0.00  0.00    +0.000 A 
ATOM      7  C   UNL     1      -4.300  13.128  22.846  0.00  0.00    +0.000 A 
ATOM      8 BR   UNL     1      -3.486  13.535  24.500  0.00  0.00    +0.000 Br
ATOM      9  C   UNL     1      -3.512  12.916  21.712  0.00  0.00    +0.000 A 
ATOM     10  C   UNL     1      -4.069  12.512  20.470  0.00  0.00    +0.000 A 
ATOM     11  C   UNL     1      -3.317  12.157  19.283  0.00  0.00    +0.000 A 
ENDROOT
BRANCH  11  12
ATOM     12  C   UNL     1      -1.814  12.052  19.314  0.00  0.00    +0.000 A 
ATOM     13  C   UNL     1      -1.162  10.851  19.655  0.00  0.00    +0.000 A 
ATOM     14  C   UNL     1       0.234  10.752  19.709  0.00  0.00    +0.000 A 
ATOM     15  C   UNL     1       1.023  11.822  19.310  0.00  0.00    +0.000 A 
ATOM     16  C   UNL     1       0.417  13.006  18.913  0.00  0.00    +0.000 A 
ATOM     17  C   UNL     1      -0.976  13.133  18.971  0.00  0.00    +0.000 A 
ENDBRANCH  11  12
BRANCH   1  21
ATOM     18  C   UNL     1      -2.667  10.002  15.170  0.00  0.00    +0.000 C 
ATOM     19  C   UNL     1      -3.181  10.204  16.567  0.00  0.00    +0.000 C 
ATOM     20  O   UNL     1      -3.375   9.263  17.330  0.00  0.00    +0.000 OA
ATOM     21  N   UNL     1      -3.400  11.528  16.895  0.00  0.00    +0.000 N 
ATOM     22  H   UNL     1      -3.426  12.191  16.129  0.00  0.00    +0.000 HD
ENDBRANCH   1  21
BRANCH   2  23
ATOM     23  O   UNL     1      -6.253  11.773  17.075  0.00  0.00    +0.000 OA
ATOM     24  H   UNL     1      -5.970  10.896  16.745  0.00  0.00    +0.000 HD
ENDBRANCH   2  23
TORSDOF 3
ENDMDL
MODEL 8
REMARK VINA RESULT:      -6.2      3.419      5.993
REMARK  Name = 
REMARK  4 active torsions:
REMARK  status: ('A' for Active; 'I' for Inactive)
REMARK    1  A    between atoms: C_1  and  C_2
REMARK    2  A    between atoms: N_4  and  C_5
REMARK    3  A    between atoms: C_6  and  O_7
REMARK    4  A    between atoms: C_16  and  C_17
REMARK                            x       y       z     vdW  Elec       q    Type
REMARK                         _______ _______ _______ _____ _____    ______ ____
ROOT
ATOM      1  C   UNL     1       5.479   6.087  17.204  0.00  0.00    +0.000 A 
ATOM      2  C   UNL     1       6.229   4.980  16.785  0.00  0.00    +0.000 A 
ATOM      3  N   UNL     1       5.840   3.707  16.909  0.00  0.00    +0.000 NA
ATOM      4  C   UNL     1       4.623   3.470  17.383  0.00  0.00    +0.000 A 
ATOM      5  C   UNL     1       4.264   2.129  17.494  0.00  0.00    +0.000 A 
ATOM      6  C   UNL     1       3.006   1.740  17.948  0.00  0.00    +0.000 A 
ATOM      7  C   UNL     1       2.070   2.716  18.245  0.00  0.00    +0.000 A 
ATOM      8 BR   UNL     1       0.353   2.224  18.855  0.00  0.00    +0.000 Br
ATOM      9  C   UNL     1       2.409   4.066  18.125  0.00  0.00    +0.000 A 
ATOM     10  C   UNL     1       3.716   4.488  17.765  0.00  0.00    +0.000 A 
ATOM     11  C   UNL     1       4.182   5.860  17.734  0.00  0.00    +0.000 A 
ENDROOT
BRANCH  11  12
ATOM     12  C   UNL     1       3.318   6.989  18.234  0.00  0.00    +0.000 A 
ATOM     13  C   UNL     1       2.958   8.069  17.405  0.00  0.00    +0.000 A 
ATOM     14  C   UNL     1       2.176   9.133  17.870  0.00  0.00    +0.000 A 
ATOM     15  C   UNL     1       1.632   9.092  19.146  0.00  0.00    +0.000 A 
ATOM     16  C   UNL     1       1.919   8.017  19.976  0.00  0.00    +0.000 A 
ATOM     17  C   UNL     1       2.794   7.014  19.543  0.00  0.00    +0.000 A 
ENDBRANCH  11  12
BRANCH   1  21
ATOM     18  C   UNL     1       7.734   9.097  17.442  0.00  0.00    +0.000 C 
ATOM     19  C   UNL     1       7.237   7.717  17.770  0.00  0.00    +0.000 C 
ATOM     20  O   UNL     1       7.863   6.959  18.506  0.00  0.00    +0.000 OA
ATOM     21  N   UNL     1       6.030   7.403  17.176  0.00  0.00    +0.000 N 
ATOM     22  H   UNL     1       5.722   8.003  16.420  0.00  0.00    +0.000 HD
ENDBRANCH   1  21
BRANCH   2  23
ATOM     23  O   UNL     1       7.499   5.101  16.295  0.00  0.00    +0.000 OA
ATOM     24  H   UNL     1       7.958   5.689  16.928  0.00  0.00    +0.000 HD
ENDBRANCH   2  23
TORSDOF 3
ENDMDL
MODEL 9
REMARK VINA RESULT:      -6.2      1.366      1.537
REMARK  Name = 
REMARK  4 active torsions:
REMARK  status: ('A' for Active; 'I' for Inactive)
REMARK    1  A    between atoms: C_1  and  C_2
REMARK    2  A    between atoms: N_4  and  C_5
REMARK    3  A    between atoms: C_6  and  O_7
REMARK    4  A    between atoms: C_16  and  C_17
REMARK                            x       y       z     vdW  Elec       q    Type
REMARK                         _______ _______ _______ _____ _____    ______ ____
ROOT
ATOM      1  C   UNL     1       3.510   3.126  19.702  0.00  0.00    +0.000 A 
ATOM      2  C   UNL     1       2.558   3.198  20.728  0.00  0.00    +0.000 A 
ATOM      3  N   UNL     1       1.911   4.311  21.088  0.00  0.00    +0.000 NA
ATOM      4  C   UNL     1       2.114   5.410  20.373  0.00  0.00    +0.000 A 
ATOM      5  C   UNL     1       1.418   6.543  20.786  0.00  0.00    +0.000 A 
ATOM      6  C   UNL     1       1.516   7.755  20.107  0.00  0.00    +0.000 A 
ATOM      7  C   UNL     1       2.285   7.818  18.957  0.00  0.00    +0.000 A 
ATOM      8 BR   UNL     1       2.432   9.443  18.008  0.00  0.00    +0.000 Br
ATOM      9  C   UNL     1       2.978   6.687  18.520  0.00  0.00    +0.000 A 
ATOM     10  C   UNL     1       2.977   5.470  19.252  0.00  0.00    +0.000 A 
ATOM     11  C   UNL     1       3.761   4.293  18.935  0.00  0.00    +0.000 A 
ENDROOT
BRANCH  11  12
ATOM     12  C   UNL     1       4.787   4.313  17.831  0.00  0.00    +0.000 A 
ATOM     13  C   UNL     1       6.139   4.619  18.082  0.00  0.00    +0.000 A 
ATOM     14  C   UNL     1       7.093   4.663  17.058  0.00  0.00    +0.000 A 
ATOM     15  C   UNL     1       6.747   4.288  15.768  0.00  0.00    +0.000 A 
ATOM     16  C   UNL     1       5.436   3.927  15.490  0.00  0.00    +0.000 A 
ATOM     17  C   UNL     1       4.464   3.995  16.496  0.00  0.00    +0.000 A 
ENDBRANCH  11  12
BRANCH   1  21
ATOM     18  C   UNL     1       5.541  -0.023  20.097  0.00  0.00    +0.000 C 
ATOM     19  C   UNL     1       4.996   1.323  20.482  0.00  0.00    +0.000 C 
ATOM     20  O   UNL     1       5.199   1.813  21.589  0.00  0.00    +0.000 OA
ATOM     21  N   UNL     1       4.267   1.937  19.482  0.00  0.00    +0.000 N 
ATOM     22  H   UNL     1       3.974   1.355  18.706  0.00  0.00    +0.000 HD
ENDBRANCH   1  21
BRANCH   2  23
ATOM     23  O   UNL     1       2.277   2.135  21.540  0.00  0.00    +0.000 OA
ATOM     24  H   UNL     1       1.310   2.003  21.457  0.00  0.00    +0.000 HD
ENDBRANCH   2  23
TORSDOF 3
ENDMDL
