MODEL 1
REMARK VINA RESULT:      -8.3      0.000      0.000
REMARK  Name = 
REMARK  6 active torsions:
REMARK  status: ('A' for Active; 'I' for Inactive)
REMARK    1  A    between atoms: C_1  and  C_2
REMARK    2  A    between atoms: C_2  and  C_3
REMARK    3  A    between atoms: N_8  and  N_9
REMARK    4  A    between atoms: C_10  and  C_12
REMARK    5  A    between atoms: C_17  and  C_18
REMARK    6  A    between atoms: C_18  and  O_20
REMARK                            x       y       z     vdW  Elec       q    Type
REMARK                         _______ _______ _______ _____ _____    ______ ____
ROOT
ATOM      1  N   UNL     1       5.607   4.202  18.368  0.00  0.00    +0.000 N 
ATOM      2  C   UNL     1       4.434   4.866  18.624  0.00  0.00    +0.000 C 
ATOM      3  O   UNL     1       4.237   6.017  18.234  0.00  0.00    +0.000 OA
ATOM      4  H   UNL     1       5.691   3.190  18.504  0.00  0.00    +0.000 HD
ENDROOT
BRANCH   1  10
ATOM      5  C   UNL     1       6.503   4.734  16.130  0.00  0.00    +0.000 A 
ATOM      6  N   UNL     1       7.270   5.641  15.578  0.00  0.00    +0.000 NA
ATOM      7  N   UNL     1       7.837   6.296  16.640  0.00  0.00    +0.000 N 
ATOM      8  C   UNL     1       7.343   5.795  17.838  0.00  0.00    +0.000 A 
ATOM      9  O   UNL     1       7.526   6.270  18.950  0.00  0.00    +0.000 OA
ATOM     10  N   UNL     1       6.541   4.731  17.481  0.00  0.00    +0.000 N 
ATOM     11  H   UNL     1       8.370   7.147  16.529  0.00  0.00    +0.000 HD
BRANCH   5  13
ATOM     12  C   UNL     1       5.932   3.938  13.796  0.00  0.00    +0.000 C 
ATOM     13  C   UNL     1       5.684   3.797  15.284  0.00  0.00    +0.000 C 
ENDBRANCH   5  13
ENDBRANCH   1  10
BRANCH   2  14
ATOM     14  C   UNL     1       3.343   4.189  19.416  0.00  0.00    +0.000 A 
ATOM     15  C   UNL     1       2.237   5.033  19.681  0.00  0.00    +0.000 A 
ATOM     16  C   UNL     1       1.151   4.614  20.450  0.00  0.00    +0.000 A 
ATOM     17  C   UNL     1       1.130   3.329  20.968  0.00  0.00    +0.000 A 
ATOM     18  C   UNL     1       2.195   2.467  20.711  0.00  0.00    +0.000 A 
ATOM     19  C   UNL     1       3.318   2.889  19.960  0.00  0.00    +0.000 A 
BRANCH  19  20
ATOM     20  C   UNL     1       4.385   1.882  19.755  0.00  0.00    +0.000 C 
ATOM     21  O   UNL     1       5.282   1.700  20.560  0.00  0.00    +0.000 OA
BRANCH  20  22
ATOM     22  O   UNL     1       4.306   1.192  18.598  0.00  0.00    +0.000 OA
ATOM     23  H   UNL     1       3.833   1.620  17.859  0.00  0.00    +0.000 HD
ENDBRANCH  20  22
ENDBRANCH  19  20
ENDBRANCH   2  14
TORSDOF 5
ENDMDL
MODEL 2
REMARK VINA RESULT:      -8.1      0.947      1.282
REMARK  Name = 
REMARK  6 active torsions:
REMARK  status: ('A' for Active; 'I' for Inactive)
REMARK    1  A    between atoms: C_1  and  C_2
REMARK    2  A    between atoms: C_2  and  C_3
REMARK    3  A    between atoms: N_8  and  N_9
REMARK    4  A    between atoms: C_10  and  C_12
REMARK    5  A    between atoms: C_17  and  C_18
REMARK    6  A    between atoms: C_18  and  O_20
REMARK                            x       y       z     vdW  Elec       q    Type
REMARK                         _______ _______ _______ _____ _____    ______ ____
ROOT
ATOM      1  N   UNL     1       5.561   4.215  18.260  0.00  0.00    +0.000 N 
ATOM      2  C   UNL     1       4.381   4.853  18.548  0.00  0.00    +0.000 C 
ATOM      3  O   UNL     1       4.166   6.015  18.204  0.00  0.00    +0.000 OA
ATOM      4  H   UNL     1       5.659   3.199  18.357  0.00  0.00    +0.000 HD
ENDROOT
BRANCH   1  10
ATOM      5  C   UNL     1       6.407   4.893  16.042  0.00  0.00    +0.000 A 
ATOM      6  N   UNL     1       7.178   5.823  15.537  0.00  0.00    +0.000 NA
ATOM      7  N   UNL     1       7.788   6.386  16.626  0.00  0.00    +0.000 N 
ATOM      8  C   UNL     1       7.316   5.808  17.799  0.00  0.00    +0.000 A 
ATOM      9  O   UNL     1       7.540   6.195  18.936  0.00  0.00    +0.000 OA
ATOM     10  N   UNL     1       6.482   4.789  17.388  0.00  0.00    +0.000 N 
ATOM     11  H   UNL     1       8.337   7.232  16.563  0.00  0.00    +0.000 HD
BRANCH   5  13
ATOM     12  C   UNL     1       6.082   3.879  13.746  0.00  0.00    +0.000 C 
ATOM     13  C   UNL     1       5.545   4.037  15.154  0.00  0.00    +0.000 C 
ENDBRANCH   5  13
ENDBRANCH   1  10
BRANCH   2  14
ATOM     14  C   UNL     1       3.305   4.132  19.322  0.00  0.00    +0.000 A 
ATOM     15  C   UNL     1       2.889   4.826  20.483  0.00  0.00    +0.000 A 
ATOM     16  C   UNL     1       1.946   4.299  21.366  0.00  0.00    +0.000 A 
ATOM     17  C   UNL     1       1.376   3.064  21.105  0.00  0.00    +0.000 A 
ATOM     18  C   UNL     1       1.749   2.362  19.961  0.00  0.00    +0.000 A 
ATOM     19  C   UNL     1       2.729   2.870  19.074  0.00  0.00    +0.000 A 
BRANCH  19  20
ATOM     20  C   UNL     1       3.040   2.032  17.893  0.00  0.00    +0.000 C 
ATOM     21  O   UNL     1       2.346   2.022  16.891  0.00  0.00    +0.000 OA
BRANCH  20  22
ATOM     22  O   UNL     1       4.139   1.258  18.013  0.00  0.00    +0.000 OA
ATOM     23  H   UNL     1       4.793   1.519  18.690  0.00  0.00    +0.000 HD
ENDBRANCH  20  22
ENDBRANCH  19  20
ENDBRANCH   2  14
TORSDOF 5
ENDMDL
MODEL 3
REMARK VINA RESULT:      -8.0      1.313      1.471
REMARK  Name = 
REMARK  6 active torsions:
REMARK  status: ('A' for Active; 'I' for Inactive)
REMARK    1  A    between atoms: C_1  and  C_2
REMARK    2  A    between atoms: C_2  and  C_3
REMARK    3  A    between atoms: N_8  and  N_9
REMARK    4  A    between atoms: C_10  and  C_12
REMARK    5  A    between atoms: C_17  and  C_18
REMARK    6  A    between atoms: C_18  and  O_20
REMARK                            x       y       z     vdW  Elec       q    Type
REMARK                         _______ _______ _______ _____ _____    ______ ____
ROOT
ATOM      1  N   UNL     1       4.885   4.844  17.177  0.00  0.00    +0.000 N 
ATOM      2  C   UNL     1       4.795   4.353  18.455  0.00  0.00    +0.000 C 
ATOM      3  O   UNL     1       5.788   3.998  19.090  0.00  0.00    +0.000 OA
ATOM      4  H   UNL     1       4.100   5.330  16.733  0.00  0.00    +0.000 HD
ENDROOT
BRANCH   1  10
ATOM      5  C   UNL     1       6.608   4.808  15.408  0.00  0.00    +0.000 A 
ATOM      6  N   UNL     1       7.594   5.564  14.994  0.00  0.00    +0.000 NA
ATOM      7  N   UNL     1       7.759   6.485  15.996  0.00  0.00    +0.000 N 
ATOM      8  C   UNL     1       6.807   6.295  16.990  0.00  0.00    +0.000 A 
ATOM      9  O   UNL     1       6.586   7.043  17.931  0.00  0.00    +0.000 OA
ATOM     10  N   UNL     1       6.125   5.153  16.623  0.00  0.00    +0.000 N 
ATOM     11  H   UNL     1       8.357   7.293  15.896  0.00  0.00    +0.000 HD
BRANCH   5  13
ATOM     12  C   UNL     1       6.343   3.843  13.084  0.00  0.00    +0.000 C 
ATOM     13  C   UNL     1       6.107   3.664  14.569  0.00  0.00    +0.000 C 
ENDBRANCH   5  13
ENDBRANCH   1  10
BRANCH   2  14
ATOM     14  C   UNL     1       3.446   4.223  19.118  0.00  0.00    +0.000 A 
ATOM     15  C   UNL     1       3.088   5.356  19.887  0.00  0.00    +0.000 A 
ATOM     16  C   UNL     1       1.906   5.408  20.627  0.00  0.00    +0.000 A 
ATOM     17  C   UNL     1       1.035   4.331  20.607  0.00  0.00    +0.000 A 
ATOM     18  C   UNL     1       1.349   3.207  19.846  0.00  0.00    +0.000 A 
ATOM     19  C   UNL     1       2.560   3.127  19.117  0.00  0.00    +0.000 A 
BRANCH  19  20
ATOM     20  C   UNL     1       2.779   1.881  18.347  0.00  0.00    +0.000 C 
ATOM     21  O   UNL     1       3.690   1.107  18.590  0.00  0.00    +0.000 OA
BRANCH  20  22
ATOM     22  O   UNL     1       1.909   1.672  17.336  0.00  0.00    +0.000 OA
ATOM     23  H   UNL     1       2.147   2.041  16.464  0.00  0.00    +0.000 HD
ENDBRANCH  20  22
ENDBRANCH  19  20
ENDBRANCH   2  14
TORSDOF 5
ENDMDL
MODEL 4
REMARK VINA RESULT:      -8.0      1.241      2.687
REMARK  Name = 
REMARK  6 active torsions:
REMARK  status: ('A' for Active; 'I' for Inactive)
REMARK    1  A    between atoms: C_1  and  C_2
REMARK    2  A    between atoms: C_2  and  C_3
REMARK    3  A    between atoms: N_8  and  N_9
REMARK    4  A    between atoms: C_10  and  C_12
REMARK    5  A    between atoms: C_17  and  C_18
REMARK    6  A    between atoms: C_18  and  O_20
REMARK                            x       y       z     vdW  Elec       q    Type
REMARK                         _______ _______ _______ _____ _____    ______ ____
ROOT
ATOM      1  N   UNL     1       4.767   4.706  17.371  0.00  0.00    +0.000 N 
ATOM      2  C   UNL     1       4.699   4.176  18.636  0.00  0.00    +0.000 C 
ATOM      3  O   UNL     1       5.705   3.815  19.247  0.00  0.00    +0.000 OA
ATOM      4  H   UNL     1       3.970   5.195  16.952  0.00  0.00    +0.000 HD
ENDROOT
BRANCH   1  10
ATOM      5  C   UNL     1       6.462   4.756  15.577  0.00  0.00    +0.000 A 
ATOM      6  N   UNL     1       7.435   5.536  15.178  0.00  0.00    +0.000 NA
ATOM      7  N   UNL     1       7.609   6.416  16.214  0.00  0.00    +0.000 N 
ATOM      8  C   UNL     1       6.675   6.178  17.214  0.00  0.00    +0.000 A 
ATOM      9  O   UNL     1       6.463   6.886  18.188  0.00  0.00    +0.000 OA
ATOM     10  N   UNL     1       5.995   5.047  16.812  0.00  0.00    +0.000 N 
ATOM     11  H   UNL     1       8.200   7.232  16.138  0.00  0.00    +0.000 HD
BRANCH   5  13
ATOM     12  C   UNL     1       6.319   3.800  13.237  0.00  0.00    +0.000 C 
ATOM     13  C   UNL     1       5.955   3.643  14.699  0.00  0.00    +0.000 C 
ENDBRANCH   5  13
ENDBRANCH   1  10
BRANCH   2  14
ATOM     14  C   UNL     1       3.361   4.009  19.311  0.00  0.00    +0.000 A 
ATOM     15  C   UNL     1       3.015   2.656  19.544  0.00  0.00    +0.000 A 
ATOM     16  C   UNL     1       1.792   2.287  20.104  0.00  0.00    +0.000 A 
ATOM     17  C   UNL     1       0.879   3.264  20.464  0.00  0.00    +0.000 A 
ATOM     18  C   UNL     1       1.194   4.607  20.265  0.00  0.00    +0.000 A 
ATOM     19  C   UNL     1       2.418   4.994  19.668  0.00  0.00    +0.000 A 
BRANCH  19  20
ATOM     20  C   UNL     1       2.638   6.451  19.510  0.00  0.00    +0.000 C 
ATOM     21  O   UNL     1       3.043   6.947  18.473  0.00  0.00    +0.000 OA
BRANCH  20  22
ATOM     22  O   UNL     1       2.378   7.191  20.608  0.00  0.00    +0.000 OA
ATOM     23  H   UNL     1       1.497   7.085  21.016  0.00  0.00    +0.000 HD
ENDBRANCH  20  22
ENDBRANCH  19  20
ENDBRANCH   2  14
TORSDOF 5
ENDMDL
MODEL 5
REMARK VINA RESULT:      -7.9      1.287      2.429
REMARK  Name = 
REMARK  6 active torsions:
REMARK  status: ('A' for Active; 'I' for Inactive)
REMARK    1  A    between atoms: C_1  and  C_2
REMARK    2  A    between atoms: C_2  and  C_3
REMARK    3  A    between atoms: N_8  and  N_9
REMARK    4  A    between atoms: C_10  and  C_12
REMARK    5  A    between atoms: C_17  and  C_18
REMARK    6  A    between atoms: C_18  and  O_20
REMARK                            x       y       z     vdW  Elec       q    Type
REMARK                         _______ _______ _______ _____ _____    ______ ____
ROOT
ATOM      1  N   UNL     1       5.013   4.544  17.614  0.00  0.00    +0.000 N 
ATOM      2  C   UNL     1       3.918   5.183  18.139  0.00  0.00    +0.000 C 
ATOM      3  O   UNL     1       3.663   6.359  17.882  0.00  0.00    +0.000 OA
ATOM      4  H   UNL     1       5.110   3.525  17.655  0.00  0.00    +0.000 HD
ENDROOT
BRANCH   1  10
ATOM      5  C   UNL     1       6.921   5.834  16.724  0.00  0.00    +0.000 A 
ATOM      6  N   UNL     1       7.609   5.913  15.612  0.00  0.00    +0.000 NA
ATOM      7  N   UNL     1       6.866   5.206  14.703  0.00  0.00    +0.000 N 
ATOM      8  C   UNL     1       5.748   4.654  15.317  0.00  0.00    +0.000 A 
ATOM      9  O   UNL     1       4.979   3.843  14.821  0.00  0.00    +0.000 OA
ATOM     10  N   UNL     1       5.766   5.142  16.607  0.00  0.00    +0.000 N 
ATOM     11  H   UNL     1       7.215   4.970  13.785  0.00  0.00    +0.000 HD
BRANCH   5  13
ATOM     12  C   UNL     1       7.862   7.922  17.802  0.00  0.00    +0.000 C 
ATOM     13  C   UNL     1       7.417   6.485  17.987  0.00  0.00    +0.000 C 
ENDBRANCH   5  13
ENDBRANCH   1  10
BRANCH   2  14
ATOM     14  C   UNL     1       2.991   4.444  19.073  0.00  0.00    +0.000 A 
ATOM     15  C   UNL     1       2.010   5.276  19.662  0.00  0.00    +0.000 A 
ATOM     16  C   UNL     1       1.095   4.796  20.600  0.00  0.00    +0.000 A 
ATOM     17  C   UNL     1       1.124   3.461  20.968  0.00  0.00    +0.000 A 
ATOM     18  C   UNL     1       2.066   2.610  20.393  0.00  0.00    +0.000 A 
ATOM     19  C   UNL     1       3.022   3.091  19.464  0.00  0.00    +0.000 A 
BRANCH  19  20
ATOM     20  C   UNL     1       3.970   2.089  18.923  0.00  0.00    +0.000 C 
ATOM     21  O   UNL     1       3.732   1.428  17.927  0.00  0.00    +0.000 OA
BRANCH  20  22
ATOM     22  O   UNL     1       5.111   1.943  19.628  0.00  0.00    +0.000 OA
ATOM     23  H   UNL     1       5.883   2.464  19.334  0.00  0.00    +0.000 HD
ENDBRANCH  20  22
ENDBRANCH  19  20
ENDBRANCH   2  14
TORSDOF 5
ENDMDL
MODEL 6
REMARK VINA RESULT:      -7.9      1.648      1.912
REMARK  Name = 
REMARK  6 active torsions:
REMARK  status: ('A' for Active; 'I' for Inactive)
REMARK    1  A    between atoms: C_1  and  C_2
REMARK    2  A    between atoms: C_2  and  C_3
REMARK    3  A    between atoms: N_8  and  N_9
REMARK    4  A    between atoms: C_10  and  C_12
REMARK    5  A    between atoms: C_17  and  C_18
REMARK    6  A    between atoms: C_18  and  O_20
REMARK                            x       y       z     vdW  Elec       q    Type
REMARK                         _______ _______ _______ _____ _____    ______ ____
ROOT
ATOM      1  N   UNL     1       5.401   3.525  16.511  0.00  0.00    +0.000 N 
ATOM      2  C   UNL     1       4.409   4.320  17.028  0.00  0.00    +0.000 C 
ATOM      3  O   UNL     1       4.377   5.535  16.830  0.00  0.00    +0.000 OA
ATOM      4  H   UNL     1       5.315   2.504  16.495  0.00  0.00    +0.000 HD
ENDROOT
BRANCH   1  10
ATOM      5  C   UNL     1       6.087   4.263  14.257  0.00  0.00    +0.000 A 
ATOM      6  N   UNL     1       6.934   5.109  13.725  0.00  0.00    +0.000 NA
ATOM      7  N   UNL     1       7.746   5.474  14.767  0.00  0.00    +0.000 N 
ATOM      8  C   UNL     1       7.324   4.871  15.945  0.00  0.00    +0.000 A 
ATOM      9  O   UNL     1       7.735   5.117  17.070  0.00  0.00    +0.000 OA
ATOM     10  N   UNL     1       6.296   4.030  15.572  0.00  0.00    +0.000 N 
ATOM     11  H   UNL     1       8.412   6.230  14.695  0.00  0.00    +0.000 HD
BRANCH   5  13
ATOM     12  C   UNL     1       5.465   3.181  12.055  0.00  0.00    +0.000 C 
ATOM     13  C   UNL     1       5.004   3.630  13.426  0.00  0.00    +0.000 C 
ENDBRANCH   5  13
ENDBRANCH   1  10
BRANCH   2  14
ATOM     14  C   UNL     1       3.322   3.711  17.877  0.00  0.00    +0.000 A 
ATOM     15  C   UNL     1       2.021   3.924  17.360  0.00  0.00    +0.000 A 
ATOM     16  C   UNL     1       0.876   3.491  18.029  0.00  0.00    +0.000 A 
ATOM     17  C   UNL     1       0.997   2.816  19.233  0.00  0.00    +0.000 A 
ATOM     18  C   UNL     1       2.263   2.574  19.761  0.00  0.00    +0.000 A 
ATOM     19  C   UNL     1       3.433   3.036  19.110  0.00  0.00    +0.000 A 
BRANCH  19  20
ATOM     20  C   UNL     1       4.719   2.717  19.770  0.00  0.00    +0.000 C 
ATOM     21  O   UNL     1       4.851   1.777  20.536  0.00  0.00    +0.000 OA
BRANCH  20  22
ATOM     22  O   UNL     1       5.735   3.556  19.480  0.00  0.00    +0.000 OA
ATOM     23  H   UNL     1       6.641   3.221  19.624  0.00  0.00    +0.000 HD
ENDBRANCH  20  22
ENDBRANCH  19  20
ENDBRANCH   2  14
TORSDOF 5
ENDMDL
MODEL 7
REMARK VINA RESULT:      -7.9      1.386      1.460
REMARK  Name = 
REMARK  6 active torsions:
REMARK  status: ('A' for Active; 'I' for Inactive)
REMARK    1  A    between atoms: C_1  and  C_2
REMARK    2  A    between atoms: C_2  and  C_3
REMARK    3  A    between atoms: N_8  and  N_9
REMARK    4  A    between atoms: C_10  and  C_12
REMARK    5  A    between atoms: C_17  and  C_18
REMARK    6  A    between atoms: C_18  and  O_20
REMARK                            x       y       z     vdW  Elec       q    Type
REMARK                         _______ _______ _______ _____ _____    ______ ____
ROOT
ATOM      1  N   UNL     1       5.313   3.530  16.937  0.00  0.00    +0.000 N 
ATOM      2  C   UNL     1       4.232   4.246  17.390  0.00  0.00    +0.000 C 
ATOM      3  O   UNL     1       4.185   5.474  17.315  0.00  0.00    +0.000 OA
ATOM      4  H   UNL     1       5.266   2.515  16.806  0.00  0.00    +0.000 HD
ENDROOT
BRANCH   1  10
ATOM      5  C   UNL     1       6.287   4.477  14.876  0.00  0.00    +0.000 A 
ATOM      6  N   UNL     1       7.154   5.401  14.544  0.00  0.00    +0.000 NA
ATOM      7  N   UNL     1       7.776   5.721  15.723  0.00  0.00    +0.000 N 
ATOM      8  C   UNL     1       7.216   5.007  16.775  0.00  0.00    +0.000 A 
ATOM      9  O   UNL     1       7.437   5.182  17.965  0.00  0.00    +0.000 OA
ATOM     10  N   UNL     1       6.309   4.150  16.188  0.00  0.00    +0.000 N 
ATOM     11  H   UNL     1       8.399   6.511  15.809  0.00  0.00    +0.000 HD
BRANCH   5  13
ATOM     12  C   UNL     1       6.087   3.478  12.559  0.00  0.00    +0.000 C 
ATOM     13  C   UNL     1       5.382   3.862  13.844  0.00  0.00    +0.000 C 
ENDBRANCH   5  13
ENDBRANCH   1  10
BRANCH   2  14
ATOM     14  C   UNL     1       3.062   3.528  18.015  0.00  0.00    +0.000 A 
ATOM     15  C   UNL     1       1.810   4.094  17.674  0.00  0.00    +0.000 A 
ATOM     16  C   UNL     1       0.610   3.613  18.197  0.00  0.00    +0.000 A 
ATOM     17  C   UNL     1       0.623   2.536  19.068  0.00  0.00    +0.000 A 
ATOM     18  C   UNL     1       1.837   1.944  19.411  0.00  0.00    +0.000 A 
ATOM     19  C   UNL     1       3.065   2.443  18.914  0.00  0.00    +0.000 A 
BRANCH  19  20
ATOM     20  C   UNL     1       4.286   1.728  19.350  0.00  0.00    +0.000 C 
ATOM     21  O   UNL     1       5.057   2.185  20.178  0.00  0.00    +0.000 OA
BRANCH  20  22
ATOM     22  O   UNL     1       4.500   0.539  18.748  0.00  0.00    +0.000 OA
ATOM     23  H   UNL     1       3.854   0.263  18.071  0.00  0.00    +0.000 HD
ENDBRANCH  20  22
ENDBRANCH  19  20
ENDBRANCH   2  14
TORSDOF 5
ENDMDL
MODEL 8
REMARK VINA RESULT:      -7.9      1.630      2.103
REMARK  Name = 
REMARK  6 active torsions:
REMARK  status: ('A' for Active; 'I' for Inactive)
REMARK    1  A    between atoms: C_1  and  C_2
REMARK    2  A    between atoms: C_2  and  C_3
REMARK    3  A    between atoms: N_8  and  N_9
REMARK    4  A    between atoms: C_10  and  C_12
REMARK    5  A    between atoms: C_17  and  C_18
REMARK    6  A    between atoms: C_18  and  O_20
REMARK                            x       y       z     vdW  Elec       q    Type
REMARK                         _______ _______ _______ _____ _____    ______ ____
ROOT
ATOM      1  N   UNL     1       5.348   4.097  18.777  0.00  0.00    +0.000 N 
ATOM      2  C   UNL     1       4.244   4.807  19.178  0.00  0.00    +0.000 C 
ATOM      3  O   UNL     1       4.200   6.036  19.117  0.00  0.00    +0.000 OA
ATOM      4  H   UNL     1       5.309   3.084  18.630  0.00  0.00    +0.000 HD
ENDROOT
BRANCH   1  10
ATOM      5  C   UNL     1       6.395   5.175  16.818  0.00  0.00    +0.000 A 
ATOM      6  N   UNL     1       7.315   6.076  16.579  0.00  0.00    +0.000 NA
ATOM      7  N   UNL     1       7.941   6.250  17.785  0.00  0.00    +0.000 N 
ATOM      8  C   UNL     1       7.332   5.474  18.764  0.00  0.00    +0.000 A 
ATOM      9  O   UNL     1       7.550   5.525  19.965  0.00  0.00    +0.000 OA
ATOM     10  N   UNL     1       6.385   4.728  18.094  0.00  0.00    +0.000 N 
ATOM     11  H   UNL     1       8.607   6.993  17.948  0.00  0.00    +0.000 HD
BRANCH   5  13
ATOM     12  C   UNL     1       6.154   3.915  14.637  0.00  0.00    +0.000 C 
ATOM     13  C   UNL     1       5.468   4.710  15.729  0.00  0.00    +0.000 C 
ENDBRANCH   5  13
ENDBRANCH   1  10
BRANCH   2  14
ATOM     14  C   UNL     1       3.040   4.081  19.726  0.00  0.00    +0.000 A 
ATOM     15  C   UNL     1       3.100   3.874  21.125  0.00  0.00    +0.000 A 
ATOM     16  C   UNL     1       2.112   3.169  21.814  0.00  0.00    +0.000 A 
ATOM     17  C   UNL     1       1.024   2.660  21.125  0.00  0.00    +0.000 A 
ATOM     18  C   UNL     1       0.926   2.861  19.750  0.00  0.00    +0.000 A 
ATOM     19  C   UNL     1       1.936   3.546  19.032  0.00  0.00    +0.000 A 
BRANCH  19  20
ATOM     20  C   UNL     1       1.717   3.696  17.575  0.00  0.00    +0.000 C 
ATOM     21  O   UNL     1       0.890   4.461  17.109  0.00  0.00    +0.000 OA
BRANCH  20  22
ATOM     22  O   UNL     1       2.486   2.906  16.797  0.00  0.00    +0.000 OA
ATOM     23  H   UNL     1       2.039   2.173  16.332  0.00  0.00    +0.000 HD
ENDBRANCH  20  22
ENDBRANCH  19  20
ENDBRANCH   2  14
TORSDOF 5
ENDMDL
MODEL 9
REMARK VINA RESULT:      -7.9      1.454      1.838
REMARK  Name = 
REMARK  6 active torsions:
REMARK  status: ('A' for Active; 'I' for Inactive)
REMARK    1  A    between atoms: C_1  and  C_2
REMARK    2  A    between atoms: C_2  and  C_3
REMARK    3  A    between atoms: N_8  and  N_9
REMARK    4  A    between atoms: C_10  and  C_12
REMARK    5  A    between atoms: C_17  and  C_18
REMARK    6  A    between atoms: C_18  and  O_20
REMARK                            x       y       z     vdW  Elec       q    Type
REMARK                         _______ _______ _______ _____ _____    ______ ____
ROOT
ATOM      1  N   UNL     1       5.458   4.445  18.800  0.00  0.00    +0.000 N 
ATOM      2  C   UNL     1       4.301   4.982  19.305  0.00  0.00    +0.000 C 
ATOM      3  O   UNL     1       4.154   6.196  19.452  0.00  0.00    +0.000 OA
ATOM      4  H   UNL     1       5.503   3.471  18.484  0.00  0.00    +0.000 HD
ENDROOT
BRANCH   1  10
ATOM      5  C   UNL     1       6.341   6.047  17.141  0.00  0.00    +0.000 A 
ATOM      6  N   UNL     1       7.235   7.002  17.091  0.00  0.00    +0.000 NA
ATOM      7  N   UNL     1       7.955   6.854  18.247  0.00  0.00    +0.000 N 
ATOM      8  C   UNL     1       7.429   5.823  19.017  0.00  0.00    +0.000 A 
ATOM      9  O   UNL     1       7.742   5.547  20.166  0.00  0.00    +0.000 OA
ATOM     10  N   UNL     1       6.434   5.265  18.241  0.00  0.00    +0.000 N 
ATOM     11  H   UNL     1       8.628   7.540  18.558  0.00  0.00    +0.000 HD
BRANCH   5  13
ATOM     12  C   UNL     1       5.491   4.588  15.256  0.00  0.00    +0.000 C 
ATOM     13  C   UNL     1       5.331   5.875  16.039  0.00  0.00    +0.000 C 
ENDBRANCH   5  13
ENDBRANCH   1  10
BRANCH   2  14
ATOM     14  C   UNL     1       3.166   4.076  19.713  0.00  0.00    +0.000 A 
ATOM     15  C   UNL     1       2.682   4.336  21.018  0.00  0.00    +0.000 A 
ATOM     16  C   UNL     1       1.675   3.569  21.604  0.00  0.00    +0.000 A 
ATOM     17  C   UNL     1       1.108   2.524  20.895  0.00  0.00    +0.000 A 
ATOM     18  C   UNL     1       1.548   2.252  19.601  0.00  0.00    +0.000 A 
ATOM     19  C   UNL     1       2.592   3.001  19.006  0.00  0.00    +0.000 A 
BRANCH  19  20
ATOM     20  C   UNL     1       2.970   2.616  17.627  0.00  0.00    +0.000 C 
ATOM     21  O   UNL     1       2.330   2.961  16.648  0.00  0.00    +0.000 OA
BRANCH  20  22
ATOM     22  O   UNL     1       4.066   1.834  17.531  0.00  0.00    +0.000 OA
ATOM     23  H   UNL     1       3.980   1.014  17.008  0.00  0.00    +0.000 HD
ENDBRANCH  20  22
ENDBRANCH  19  20
ENDBRANCH   2  14
TORSDOF 5
ENDMDL
