MODEL 1
REMARK VINA RESULT:      -9.0      0.000      0.000
REMARK  Name = 
REMARK  9 active torsions:
REMARK  status: ('A' for Active; 'I' for Inactive)
REMARK    1  A    between atoms: C_1  and  N_2
REMARK    2  A    between atoms: N_2  and  C_3
REMARK    3  A    between atoms: N_2  and  C_4
REMARK    4  A    between atoms: C_4  and  C_5
REMARK    5  A    between atoms: C_5  and  O_6
REMARK    6  A    between atoms: O_6  and  C_7
REMARK    7  A    between atoms: C_11  and  C_12
REMARK    8  A    between atoms: C_15  and  C_16
REMARK    9  A    between atoms: C_19  and  C_20
REMARK                            x       y       z     vdW  Elec       q    Type
REMARK                         _______ _______ _______ _____ _____    ______ ____
ROOT
ATOM      1  C   UNL     1      -0.249  11.424  20.286  0.00  0.00    +0.000 A 
ATOM      2  C   UNL     1       0.714  10.450  20.618  0.00  0.00    +0.000 A 
ATOM      3  C   UNL     1       1.019   9.526  19.583  0.00  0.00    +0.000 A 
ATOM      4  C   UNL     1       1.955   8.494  19.274  0.00  0.00    +0.000 A 
ATOM      5  N   UNL     1       2.410   8.714  18.026  0.00  0.00    +0.000 NA
ATOM      6  N   UNL     1       1.320   9.223  17.445  0.00  0.00    +0.000 N 
ATOM      7  C   UNL     1       0.434   9.736  18.346  0.00  0.00    +0.000 A 
ATOM      8  C   UNL     1      -0.717  10.456  18.201  0.00  0.00    +0.000 A 
ATOM      9  N   UNL     1      -1.051  11.296  19.186  0.00  0.00    +0.000 NA
ATOM     10  H   UNL     1       1.309   9.298  16.438  0.00  0.00    +0.000 HD
ENDROOT
BRANCH   4  11
ATOM     11  C   UNL     1       2.130   7.068  19.646  0.00  0.00    +0.000 A 
ATOM     12  C   UNL     1       2.327   6.119  18.677  0.00  0.00    +0.000 A 
ATOM     13  C   UNL     1       2.730   4.963  19.363  0.00  0.00    +0.000 A 
ATOM     14  C   UNL     1       3.590   3.907  19.041  0.00  0.00    +0.000 A 
ATOM     15  N   UNL     1       3.572   2.786  19.801  0.00  0.00    +0.000 NA
ATOM     16  C   UNL     1       2.787   2.788  20.912  0.00  0.00    +0.000 A 
ATOM     17  C   UNL     1       2.117   3.901  21.438  0.00  0.00    +0.000 A 
ATOM     18  C   UNL     1       2.189   5.041  20.639  0.00  0.00    +0.000 A 
ATOM     19  N   UNL     1       1.905   6.390  20.828  0.00  0.00    +0.000 N 
ATOM     20  H   UNL     1       1.580   6.800  21.692  0.00  0.00    +0.000 HD
BRANCH  14  21
ATOM     21  C   UNL     1       4.665   4.195  18.071  0.00  0.00    +0.000 A 
ATOM     22  C   UNL     1       4.434   3.987  16.676  0.00  0.00    +0.000 A 
ATOM     23  C   UNL     1       5.443   4.103  15.727  0.00  0.00    +0.000 A 
ATOM     24  C   UNL     1       6.694   4.523  16.145  0.00  0.00    +0.000 A 
ATOM     25  F   UNL     1       7.675   4.640  15.244  0.00  0.00    +0.000 F 
ATOM     26  C   UNL     1       6.932   4.827  17.484  0.00  0.00    +0.000 A 
ATOM     27  C   UNL     1       5.926   4.665  18.445  0.00  0.00    +0.000 A 
ENDBRANCH  14  21
ENDBRANCH   4  11
BRANCH   1  32
ATOM     28  C   UNL     1      -0.445  15.225  20.656  0.00  0.00    +0.000 A 
ATOM     29  C   UNL     1      -0.424  15.312  22.036  0.00  0.00    +0.000 A 
ATOM     30  N   UNL     1      -0.394  14.237  22.869  0.00  0.00    +0.000 NA
ATOM     31  C   UNL     1      -0.377  13.011  22.281  0.00  0.00    +0.000 A 
ATOM     32  C   UNL     1      -0.369  12.774  20.909  0.00  0.00    +0.000 A 
ATOM     33  C   UNL     1      -0.393  13.948  20.100  0.00  0.00    +0.000 A 
BRANCH  28  34
ATOM     34  O   UNL     1      -0.474  16.406  19.971  0.00  0.00    +0.000 OA
BRANCH  34  35
ATOM     35  C   UNL     1       0.400  16.516  18.836  0.00  0.00    +0.000 C 
BRANCH  35  36
ATOM     36  C   UNL     1       1.487  17.560  19.171  0.00  0.00    +0.000 C 
BRANCH  36  38
ATOM     37  C   UNL     1       3.324  16.064  19.631  0.00  0.00    +0.000 C 
ATOM     38  N   UNL     1       2.865  17.179  18.794  0.00  0.00    +0.000 NA
ATOM     39  C   UNL     1       2.970  16.808  17.382  0.00  0.00    +0.000 C 
ENDBRANCH  36  38
ENDBRANCH  35  36
ENDBRANCH  34  35
ENDBRANCH  28  34
ENDBRANCH   1  32
TORSDOF 7
ENDMDL
MODEL 2
REMARK VINA RESULT:      -9.0      1.939      3.550
REMARK  Name = 
REMARK  9 active torsions:
REMARK  status: ('A' for Active; 'I' for Inactive)
REMARK    1  A    between atoms: C_1  and  N_2
REMARK    2  A    between atoms: N_2  and  C_3
REMARK    3  A    between atoms: N_2  and  C_4
REMARK    4  A    between atoms: C_4  and  C_5
REMARK    5  A    between atoms: C_5  and  O_6
REMARK    6  A    between atoms: O_6  and  C_7
REMARK    7  A    between atoms: C_11  and  C_12
REMARK    8  A    between atoms: C_15  and  C_16
REMARK    9  A    between atoms: C_19  and  C_20
REMARK                            x       y       z     vdW  Elec       q    Type
REMARK                         _______ _______ _______ _____ _____    ______ ____
ROOT
ATOM      1  C   UNL     1      -0.338  11.270  20.149  0.00  0.00    +0.000 A 
ATOM      2  C   UNL     1       0.606  10.305  20.552  0.00  0.00    +0.000 A 
ATOM      3  C   UNL     1       1.019   9.404  19.534  0.00  0.00    +0.000 A 
ATOM      4  C   UNL     1       1.996   8.391  19.295  0.00  0.00    +0.000 A 
ATOM      5  N   UNL     1       2.558   8.639  18.097  0.00  0.00    +0.000 NA
ATOM      6  N   UNL     1       1.518   9.142  17.428  0.00  0.00    +0.000 N 
ATOM      7  C   UNL     1       0.545   9.626  18.253  0.00  0.00    +0.000 A 
ATOM      8  C   UNL     1      -0.600  10.331  18.015  0.00  0.00    +0.000 A 
ATOM      9  N   UNL     1      -1.036  11.150  18.979  0.00  0.00    +0.000 NA
ATOM     10  H   UNL     1       1.596   9.234  16.425  0.00  0.00    +0.000 HD
ENDROOT
BRANCH   4  11
ATOM     11  C   UNL     1       2.160   6.962  19.660  0.00  0.00    +0.000 A 
ATOM     12  C   UNL     1       2.311   6.012  18.683  0.00  0.00    +0.000 A 
ATOM     13  C   UNL     1       2.717   4.848  19.354  0.00  0.00    +0.000 A 
ATOM     14  C   UNL     1       3.550   3.779  19.003  0.00  0.00    +0.000 A 
ATOM     15  N   UNL     1       3.538   2.657  19.761  0.00  0.00    +0.000 NA
ATOM     16  C   UNL     1       2.788   2.669  20.897  0.00  0.00    +0.000 A 
ATOM     17  C   UNL     1       2.154   3.791  21.446  0.00  0.00    +0.000 A 
ATOM     18  C   UNL     1       2.218   4.931  20.646  0.00  0.00    +0.000 A 
ATOM     19  N   UNL     1       1.961   6.285  20.846  0.00  0.00    +0.000 N 
ATOM     20  H   UNL     1       1.671   6.698  21.722  0.00  0.00    +0.000 HD
BRANCH  14  21
ATOM     21  C   UNL     1       4.598   4.052  18.000  0.00  0.00    +0.000 A 
ATOM     22  C   UNL     1       5.861   4.573  18.420  0.00  0.00    +0.000 A 
ATOM     23  C   UNL     1       6.836   4.983  17.518  0.00  0.00    +0.000 A 
ATOM     24  C   UNL     1       6.603   4.795  16.167  0.00  0.00    +0.000 A 
ATOM     25  F   UNL     1       7.532   5.183  15.287  0.00  0.00    +0.000 F 
ATOM     26  C   UNL     1       5.423   4.202  15.724  0.00  0.00    +0.000 A 
ATOM     27  C   UNL     1       4.422   3.832  16.632  0.00  0.00    +0.000 A 
ENDBRANCH  14  21
ENDBRANCH   4  11
BRANCH   1  32
ATOM     28  C   UNL     1      -0.828  13.967  22.816  0.00  0.00    +0.000 A 
ATOM     29  C   UNL     1      -1.067  15.050  21.990  0.00  0.00    +0.000 A 
ATOM     30  N   UNL     1      -1.043  14.995  20.632  0.00  0.00    +0.000 NA
ATOM     31  C   UNL     1      -0.770  13.785  20.075  0.00  0.00    +0.000 A 
ATOM     32  C   UNL     1      -0.536  12.607  20.780  0.00  0.00    +0.000 A 
ATOM     33  C   UNL     1      -0.586  12.740  22.199  0.00  0.00    +0.000 A 
BRANCH  28  34
ATOM     34  O   UNL     1      -0.893  14.198  24.160  0.00  0.00    +0.000 OA
BRANCH  34  35
ATOM     35  C   UNL     1      -1.994  14.993  24.628  0.00  0.00    +0.000 C 
BRANCH  35  36
ATOM     36  C   UNL     1      -3.263  14.116  24.595  0.00  0.00    +0.000 C 
BRANCH  36  38
ATOM     37  C   UNL     1      -5.421  13.606  23.645  0.00  0.00    +0.000 C 
ATOM     38  N   UNL     1      -4.341  14.597  23.705  0.00  0.00    +0.000 NA
ATOM     39  C   UNL     1      -4.882  15.886  24.137  0.00  0.00    +0.000 C 
ENDBRANCH  36  38
ENDBRANCH  35  36
ENDBRANCH  34  35
ENDBRANCH  28  34
ENDBRANCH   1  32
TORSDOF 7
ENDMDL
MODEL 3
REMARK VINA RESULT:      -9.0      2.251      3.797
REMARK  Name = 
REMARK  9 active torsions:
REMARK  status: ('A' for Active; 'I' for Inactive)
REMARK    1  A    between atoms: C_1  and  N_2
REMARK    2  A    between atoms: N_2  and  C_3
REMARK    3  A    between atoms: N_2  and  C_4
REMARK    4  A    between atoms: C_4  and  C_5
REMARK    5  A    between atoms: C_5  and  O_6
REMARK    6  A    between atoms: O_6  and  C_7
REMARK    7  A    between atoms: C_11  and  C_12
REMARK    8  A    between atoms: C_15  and  C_16
REMARK    9  A    between atoms: C_19  and  C_20
REMARK                            x       y       z     vdW  Elec       q    Type
REMARK                         _______ _______ _______ _____ _____    ______ ____
ROOT
ATOM      1  C   UNL     1      -0.651  11.077  20.189  0.00  0.00    +0.000 A 
ATOM      2  C   UNL     1       0.324  10.153  20.616  0.00  0.00    +0.000 A 
ATOM      3  C   UNL     1       0.868   9.335  19.590  0.00  0.00    +0.000 A 
ATOM      4  C   UNL     1       1.925   8.400  19.378  0.00  0.00    +0.000 A 
ATOM      5  N   UNL     1       2.556   8.745  18.239  0.00  0.00    +0.000 NA
ATOM      6  N   UNL     1       1.536   9.217  17.518  0.00  0.00    +0.000 N 
ATOM      7  C   UNL     1       0.475   9.594  18.289  0.00  0.00    +0.000 A 
ATOM      8  C   UNL     1      -0.693  10.238  17.998  0.00  0.00    +0.000 A 
ATOM      9  N   UNL     1      -1.251  10.976  18.964  0.00  0.00    +0.000 NA
ATOM     10  H   UNL     1       1.681   9.367  16.530  0.00  0.00    +0.000 HD
ENDROOT
BRANCH   4  11
ATOM     11  C   UNL     1       2.156   6.966  19.684  0.00  0.00    +0.000 A 
ATOM     12  C   UNL     1       2.352   6.064  18.671  0.00  0.00    +0.000 A 
ATOM     13  C   UNL     1       2.813   4.895  19.294  0.00  0.00    +0.000 A 
ATOM     14  C   UNL     1       3.695   3.882  18.902  0.00  0.00    +0.000 A 
ATOM     15  N   UNL     1       3.736   2.730  19.615  0.00  0.00    +0.000 NA
ATOM     16  C   UNL     1       2.987   2.661  20.748  0.00  0.00    +0.000 A 
ATOM     17  C   UNL     1       2.299   3.728  21.340  0.00  0.00    +0.000 A 
ATOM     18  C   UNL     1       2.310   4.902  20.588  0.00  0.00    +0.000 A 
ATOM     19  N   UNL     1       1.990   6.233  20.842  0.00  0.00    +0.000 N 
ATOM     20  H   UNL     1       1.680   6.596  21.733  0.00  0.00    +0.000 HD
BRANCH  14  21
ATOM     21  C   UNL     1       4.730   4.245  17.914  0.00  0.00    +0.000 A 
ATOM     22  C   UNL     1       4.471   4.062  16.519  0.00  0.00    +0.000 A 
ATOM     23  C   UNL     1       5.449   4.250  15.549  0.00  0.00    +0.000 A 
ATOM     24  C   UNL     1       6.690   4.716  15.947  0.00  0.00    +0.000 A 
ATOM     25  F   UNL     1       7.640   4.903  15.024  0.00  0.00    +0.000 F 
ATOM     26  C   UNL     1       6.950   4.997  17.286  0.00  0.00    +0.000 A 
ATOM     27  C   UNL     1       5.978   4.763  18.269  0.00  0.00    +0.000 A 
ENDBRANCH  14  21
ENDBRANCH   4  11
BRANCH   1  32
ATOM     28  C   UNL     1      -2.019  13.556  22.759  0.00  0.00    +0.000 A 
ATOM     29  C   UNL     1      -1.765  14.735  22.083  0.00  0.00    +0.000 A 
ATOM     30  N   UNL     1      -1.145  14.805  20.875  0.00  0.00    +0.000 NA
ATOM     31  C   UNL     1      -0.769  13.624  20.315  0.00  0.00    +0.000 A 
ATOM     32  C   UNL     1      -0.982  12.364  20.867  0.00  0.00    +0.000 A 
ATOM     33  C   UNL     1      -1.644  12.370  22.130  0.00  0.00    +0.000 A 
BRANCH  28  34
ATOM     34  O   UNL     1      -2.652  13.667  23.965  0.00  0.00    +0.000 OA
BRANCH  34  35
ATOM     35  C   UNL     1      -3.845  12.887  24.143  0.00  0.00    +0.000 C 
BRANCH  35  36
ATOM     36  C   UNL     1      -5.047  13.743  23.692  0.00  0.00    +0.000 C 
BRANCH  36  38
ATOM     37  C   UNL     1      -7.133  13.952  22.498  0.00  0.00    +0.000 C 
ATOM     38  N   UNL     1      -5.991  13.072  22.774  0.00  0.00    +0.000 NA
ATOM     39  C   UNL     1      -5.357  12.683  21.514  0.00  0.00    +0.000 C 
ENDBRANCH  36  38
ENDBRANCH  35  36
ENDBRANCH  34  35
ENDBRANCH  28  34
ENDBRANCH   1  32
TORSDOF 7
ENDMDL
MODEL 4
REMARK VINA RESULT:      -9.0      1.031      1.247
REMARK  Name = 
REMARK  9 active torsions:
REMARK  status: ('A' for Active; 'I' for Inactive)
REMARK    1  A    between atoms: C_1  and  N_2
REMARK    2  A    between atoms: N_2  and  C_3
REMARK    3  A    between atoms: N_2  and  C_4
REMARK    4  A    between atoms: C_4  and  C_5
REMARK    5  A    between atoms: C_5  and  O_6
REMARK    6  A    between atoms: O_6  and  C_7
REMARK    7  A    between atoms: C_11  and  C_12
REMARK    8  A    between atoms: C_15  and  C_16
REMARK    9  A    between atoms: C_19  and  C_20
REMARK                            x       y       z     vdW  Elec       q    Type
REMARK                         _______ _______ _______ _____ _____    ______ ____
ROOT
ATOM      1  C   UNL     1      -0.429  11.152  20.361  0.00  0.00    +0.000 A 
ATOM      2  C   UNL     1       0.550  10.201  20.712  0.00  0.00    +0.000 A 
ATOM      3  C   UNL     1       0.976   9.356  19.653  0.00  0.00    +0.000 A 
ATOM      4  C   UNL     1       1.980   8.384  19.360  0.00  0.00    +0.000 A 
ATOM      5  N   UNL     1       2.519   8.698  18.167  0.00  0.00    +0.000 NA
ATOM      6  N   UNL     1       1.455   9.196  17.532  0.00  0.00    +0.000 N 
ATOM      7  C   UNL     1       0.479   9.615  18.388  0.00  0.00    +0.000 A 
ATOM      8  C   UNL     1      -0.690  10.294  18.192  0.00  0.00    +0.000 A 
ATOM      9  N   UNL     1      -1.137  11.059  19.195  0.00  0.00    +0.000 NA
ATOM     10  H   UNL     1       1.518   9.332  16.533  0.00  0.00    +0.000 HD
ENDROOT
BRANCH   4  11
ATOM     11  C   UNL     1       2.192   6.947  19.663  0.00  0.00    +0.000 A 
ATOM     12  C   UNL     1       2.383   6.047  18.647  0.00  0.00    +0.000 A 
ATOM     13  C   UNL     1       2.825   4.869  19.269  0.00  0.00    +0.000 A 
ATOM     14  C   UNL     1       3.698   3.847  18.879  0.00  0.00    +0.000 A 
ATOM     15  N   UNL     1       3.721   2.692  19.587  0.00  0.00    +0.000 NA
ATOM     16  C   UNL     1       2.963   2.628  20.716  0.00  0.00    +0.000 A 
ATOM     17  C   UNL     1       2.285   3.702  21.308  0.00  0.00    +0.000 A 
ATOM     18  C   UNL     1       2.315   4.878  20.559  0.00  0.00    +0.000 A 
ATOM     19  N   UNL     1       2.009   6.212  20.817  0.00  0.00    +0.000 N 
ATOM     20  H   UNL     1       1.699   6.575  21.707  0.00  0.00    +0.000 HD
BRANCH  14  21
ATOM     21  C   UNL     1       4.743   4.201  17.898  0.00  0.00    +0.000 A 
ATOM     22  C   UNL     1       4.483   4.047  16.500  0.00  0.00    +0.000 A 
ATOM     23  C   UNL     1       5.466   4.227  15.535  0.00  0.00    +0.000 A 
ATOM     24  C   UNL     1       6.718   4.656  15.942  0.00  0.00    +0.000 A 
ATOM     25  F   UNL     1       7.673   4.835  15.024  0.00  0.00    +0.000 F 
ATOM     26  C   UNL     1       6.981   4.908  17.286  0.00  0.00    +0.000 A 
ATOM     27  C   UNL     1       6.002   4.682  18.263  0.00  0.00    +0.000 A 
ENDBRANCH  14  21
ENDBRANCH   4  11
BRANCH   1  32
ATOM     28  C   UNL     1       0.260  14.456  22.159  0.00  0.00    +0.000 A 
ATOM     29  C   UNL     1      -1.039  14.806  22.478  0.00  0.00    +0.000 A 
ATOM     30  N   UNL     1      -2.135  14.082  22.124  0.00  0.00    +0.000 NA
ATOM     31  C   UNL     1      -1.910  12.943  21.417  0.00  0.00    +0.000 A 
ATOM     32  C   UNL     1      -0.658  12.455  21.049  0.00  0.00    +0.000 A 
ATOM     33  C   UNL     1       0.442  13.262  21.463  0.00  0.00    +0.000 A 
BRANCH  28  34
ATOM     34  O   UNL     1       1.243  15.297  22.595  0.00  0.00    +0.000 OA
BRANCH  34  35
ATOM     35  C   UNL     1       2.502  15.233  21.905  0.00  0.00    +0.000 C 
BRANCH  35  36
ATOM     36  C   UNL     1       2.531  16.369  20.860  0.00  0.00    +0.000 C 
BRANCH  36  38
ATOM     37  C   UNL     1       3.249  14.626  19.355  0.00  0.00    +0.000 C 
ATOM     38  N   UNL     1       2.579  15.929  19.450  0.00  0.00    +0.000 NA
ATOM     39  C   UNL     1       1.247  15.840  18.851  0.00  0.00    +0.000 C 
ENDBRANCH  36  38
ENDBRANCH  35  36
ENDBRANCH  34  35
ENDBRANCH  28  34
ENDBRANCH   1  32
TORSDOF 7
ENDMDL
MODEL 5
REMARK VINA RESULT:      -8.9      2.088      3.793
REMARK  Name = 
REMARK  9 active torsions:
REMARK  status: ('A' for Active; 'I' for Inactive)
REMARK    1  A    between atoms: C_1  and  N_2
REMARK    2  A    between atoms: N_2  and  C_3
REMARK    3  A    between atoms: N_2  and  C_4
REMARK    4  A    between atoms: C_4  and  C_5
REMARK    5  A    between atoms: C_5  and  O_6
REMARK    6  A    between atoms: O_6  and  C_7
REMARK    7  A    between atoms: C_11  and  C_12
REMARK    8  A    between atoms: C_15  and  C_16
REMARK    9  A    between atoms: C_19  and  C_20
REMARK                            x       y       z     vdW  Elec       q    Type
REMARK                         _______ _______ _______ _____ _____    ______ ____
ROOT
ATOM      1  C   UNL     1      -0.261  11.339  20.234  0.00  0.00    +0.000 A 
ATOM      2  C   UNL     1       0.708  10.373  20.572  0.00  0.00    +0.000 A 
ATOM      3  C   UNL     1       1.024   9.450  19.539  0.00  0.00    +0.000 A 
ATOM      4  C   UNL     1       1.969   8.424  19.236  0.00  0.00    +0.000 A 
ATOM      5  N   UNL     1       2.428   8.645  17.989  0.00  0.00    +0.000 NA
ATOM      6  N   UNL     1       1.338   9.146  17.403  0.00  0.00    +0.000 N 
ATOM      7  C   UNL     1       0.443   9.653  18.300  0.00  0.00    +0.000 A 
ATOM      8  C   UNL     1      -0.712  10.365  18.147  0.00  0.00    +0.000 A 
ATOM      9  N   UNL     1      -1.057  11.204  19.130  0.00  0.00    +0.000 NA
ATOM     10  H   UNL     1       1.330   9.219  16.396  0.00  0.00    +0.000 HD
ENDROOT
BRANCH   4  11
ATOM     11  C   UNL     1       2.152   7.000  19.611  0.00  0.00    +0.000 A 
ATOM     12  C   UNL     1       2.314   6.044  18.642  0.00  0.00    +0.000 A 
ATOM     13  C   UNL     1       2.737   4.891  19.321  0.00  0.00    +0.000 A 
ATOM     14  C   UNL     1       3.583   3.831  18.977  0.00  0.00    +0.000 A 
ATOM     15  N   UNL     1       3.587   2.714  19.744  0.00  0.00    +0.000 NA
ATOM     16  C   UNL     1       2.840   2.726  20.881  0.00  0.00    +0.000 A 
ATOM     17  C   UNL     1       2.191   3.843  21.422  0.00  0.00    +0.000 A 
ATOM     18  C   UNL     1       2.239   4.978  20.613  0.00  0.00    +0.000 A 
ATOM     19  N   UNL     1       1.965   6.330  20.803  0.00  0.00    +0.000 N 
ATOM     20  H   UNL     1       1.671   6.746  21.676  0.00  0.00    +0.000 HD
BRANCH  14  21
ATOM     21  C   UNL     1       4.626   4.110  17.970  0.00  0.00    +0.000 A 
ATOM     22  C   UNL     1       5.894   4.623  18.388  0.00  0.00    +0.000 A 
ATOM     23  C   UNL     1       6.864   5.038  17.483  0.00  0.00    +0.000 A 
ATOM     24  C   UNL     1       6.623   4.863  16.132  0.00  0.00    +0.000 A 
ATOM     25  F   UNL     1       7.547   5.256  15.250  0.00  0.00    +0.000 F 
ATOM     26  C   UNL     1       5.438   4.278  15.690  0.00  0.00    +0.000 A 
ATOM     27  C   UNL     1       4.441   3.902  16.601  0.00  0.00    +0.000 A 
ENDBRANCH  14  21
ENDBRANCH   4  11
BRANCH   1  32
ATOM     28  C   UNL     1      -1.812  14.403  21.917  0.00  0.00    +0.000 A 
ATOM     29  C   UNL     1      -0.724  15.253  21.868  0.00  0.00    +0.000 A 
ATOM     30  N   UNL     1       0.495  14.909  21.372  0.00  0.00    +0.000 NA
ATOM     31  C   UNL     1       0.621  13.642  20.893  0.00  0.00    +0.000 A 
ATOM     32  C   UNL     1      -0.393  12.689  20.854  0.00  0.00    +0.000 A 
ATOM     33  C   UNL     1      -1.643  13.125  21.384  0.00  0.00    +0.000 A 
BRANCH  28  34
ATOM     34  O   UNL     1      -2.962  14.912  22.448  0.00  0.00    +0.000 OA
BRANCH  34  35
ATOM     35  C   UNL     1      -4.194  14.307  22.024  0.00  0.00    +0.000 C 
BRANCH  35  36
ATOM     36  C   UNL     1      -5.096  14.142  23.266  0.00  0.00    +0.000 C 
BRANCH  36  38
ATOM     37  C   UNL     1      -4.527  12.335  24.759  0.00  0.00    +0.000 C 
ATOM     38  N   UNL     1      -5.394  12.746  23.649  0.00  0.00    +0.000 NA
ATOM     39  C   UNL     1      -6.795  12.561  24.028  0.00  0.00    +0.000 C 
ENDBRANCH  36  38
ENDBRANCH  35  36
ENDBRANCH  34  35
ENDBRANCH  28  34
ENDBRANCH   1  32
TORSDOF 7
ENDMDL
MODEL 6
REMARK VINA RESULT:      -8.9      2.043      3.211
REMARK  Name = 
REMARK  9 active torsions:
REMARK  status: ('A' for Active; 'I' for Inactive)
REMARK    1  A    between atoms: C_1  and  N_2
REMARK    2  A    between atoms: N_2  and  C_3
REMARK    3  A    between atoms: N_2  and  C_4
REMARK    4  A    between atoms: C_4  and  C_5
REMARK    5  A    between atoms: C_5  and  O_6
REMARK    6  A    between atoms: O_6  and  C_7
REMARK    7  A    between atoms: C_11  and  C_12
REMARK    8  A    between atoms: C_15  and  C_16
REMARK    9  A    between atoms: C_19  and  C_20
REMARK                            x       y       z     vdW  Elec       q    Type
REMARK                         _______ _______ _______ _____ _____    ______ ____
ROOT
ATOM      1  C   UNL     1      -0.532  11.285  20.143  0.00  0.00    +0.000 A 
ATOM      2  C   UNL     1       0.436  10.349  20.560  0.00  0.00    +0.000 A 
ATOM      3  C   UNL     1       0.890   9.462  19.547  0.00  0.00    +0.000 A 
ATOM      4  C   UNL     1       1.900   8.480  19.321  0.00  0.00    +0.000 A 
ATOM      5  N   UNL     1       2.472   8.745  18.132  0.00  0.00    +0.000 NA
ATOM      6  N   UNL     1       1.426   9.217  17.448  0.00  0.00    +0.000 N 
ATOM      7  C   UNL     1       0.427   9.670  18.260  0.00  0.00    +0.000 A 
ATOM      8  C   UNL     1      -0.735  10.340  18.005  0.00  0.00    +0.000 A 
ATOM      9  N   UNL     1      -1.209  11.144  18.963  0.00  0.00    +0.000 NA
ATOM     10  H   UNL     1       1.516   9.312  16.446  0.00  0.00    +0.000 HD
ENDROOT
BRANCH   4  11
ATOM     11  C   UNL     1       2.103   7.055  19.688  0.00  0.00    +0.000 A 
ATOM     12  C   UNL     1       2.302   6.112  18.714  0.00  0.00    +0.000 A 
ATOM     13  C   UNL     1       2.732   4.961  19.391  0.00  0.00    +0.000 A 
ATOM     14  C   UNL     1       3.605   3.920  19.055  0.00  0.00    +0.000 A 
ATOM     15  N   UNL     1       3.614   2.796  19.812  0.00  0.00    +0.000 NA
ATOM     16  C   UNL     1       2.844   2.783  20.933  0.00  0.00    +0.000 A 
ATOM     17  C   UNL     1       2.163   3.883  21.470  0.00  0.00    +0.000 A 
ATOM     18  C   UNL     1       2.207   5.027  20.673  0.00  0.00    +0.000 A 
ATOM     19  N   UNL     1       1.904   6.371  20.870  0.00  0.00    +0.000 N 
ATOM     20  H   UNL     1       1.584   6.774  21.740  0.00  0.00    +0.000 HD
BRANCH  14  21
ATOM     21  C   UNL     1       4.663   4.227  18.072  0.00  0.00    +0.000 A 
ATOM     22  C   UNL     1       4.405   4.051  16.676  0.00  0.00    +0.000 A 
ATOM     23  C   UNL     1       5.397   4.187  15.713  0.00  0.00    +0.000 A 
ATOM     24  C   UNL     1       6.657   4.594  16.117  0.00  0.00    +0.000 A 
ATOM     25  F   UNL     1       7.621   4.730  15.200  0.00  0.00    +0.000 F 
ATOM     26  C   UNL     1       6.920   4.867  17.457  0.00  0.00    +0.000 A 
ATOM     27  C   UNL     1       5.932   4.685  18.433  0.00  0.00    +0.000 A 
ENDBRANCH  14  21
ENDBRANCH   4  11
BRANCH   1  32
ATOM     28  C   UNL     1      -1.013  13.986  22.808  0.00  0.00    +0.000 A 
ATOM     29  C   UNL     1      -1.396  15.033  21.991  0.00  0.00    +0.000 A 
ATOM     30  N   UNL     1      -1.473  14.957  20.635  0.00  0.00    +0.000 NA
ATOM     31  C   UNL     1      -1.155  13.760  20.074  0.00  0.00    +0.000 A 
ATOM     32  C   UNL     1      -0.780  12.615  20.772  0.00  0.00    +0.000 A 
ATOM     33  C   UNL     1      -0.729  12.769  22.189  0.00  0.00    +0.000 A 
BRANCH  28  34
ATOM     34  O   UNL     1      -0.990  14.235  24.150  0.00  0.00    +0.000 OA
BRANCH  34  35
ATOM     35  C   UNL     1      -0.906  15.612  24.552  0.00  0.00    +0.000 C 
BRANCH  35  36
ATOM     36  C   UNL     1      -2.005  15.871  25.604  0.00  0.00    +0.000 C 
BRANCH  36  38
ATOM     37  C   UNL     1      -2.350  17.835  24.247  0.00  0.00    +0.000 C 
ATOM     38  N   UNL     1      -2.927  16.983  25.292  0.00  0.00    +0.000 NA
ATOM     39  C   UNL     1      -4.244  16.508  24.865  0.00  0.00    +0.000 C 
ENDBRANCH  36  38
ENDBRANCH  35  36
ENDBRANCH  34  35
ENDBRANCH  28  34
ENDBRANCH   1  32
TORSDOF 7
ENDMDL
MODEL 7
REMARK VINA RESULT:      -8.8      0.866      1.013
REMARK  Name = 
REMARK  9 active torsions:
REMARK  status: ('A' for Active; 'I' for Inactive)
REMARK    1  A    between atoms: C_1  and  N_2
REMARK    2  A    between atoms: N_2  and  C_3
REMARK    3  A    between atoms: N_2  and  C_4
REMARK    4  A    between atoms: C_4  and  C_5
REMARK    5  A    between atoms: C_5  and  O_6
REMARK    6  A    between atoms: O_6  and  C_7
REMARK    7  A    between atoms: C_11  and  C_12
REMARK    8  A    between atoms: C_15  and  C_16
REMARK    9  A    between atoms: C_19  and  C_20
REMARK                            x       y       z     vdW  Elec       q    Type
REMARK                         _______ _______ _______ _____ _____    ______ ____
ROOT
ATOM      1  C   UNL     1      -0.226  11.216  20.827  0.00  0.00    +0.000 A 
ATOM      2  C   UNL     1       0.779  10.244  21.004  0.00  0.00    +0.000 A 
ATOM      3  C   UNL     1       1.034   9.428  19.869  0.00  0.00    +0.000 A 
ATOM      4  C   UNL     1       1.970   8.455  19.405  0.00  0.00    +0.000 A 
ATOM      5  N   UNL     1       2.334   8.801  18.155  0.00  0.00    +0.000 NA
ATOM      6  N   UNL     1       1.196   9.329  17.697  0.00  0.00    +0.000 N 
ATOM      7  C   UNL     1       0.361   9.732  18.698  0.00  0.00    +0.000 A 
ATOM      8  C   UNL     1      -0.813  10.429  18.696  0.00  0.00    +0.000 A 
ATOM      9  N   UNL     1      -1.098  11.166  19.775  0.00  0.00    +0.000 NA
ATOM     10  H   UNL     1       1.115   9.496  16.704  0.00  0.00    +0.000 HD
ENDROOT
BRANCH   4  11
ATOM     11  C   UNL     1       2.202   7.007  19.631  0.00  0.00    +0.000 A 
ATOM     12  C   UNL     1       2.392   6.163  18.569  0.00  0.00    +0.000 A 
ATOM     13  C   UNL     1       2.855   4.960  19.125  0.00  0.00    +0.000 A 
ATOM     14  C   UNL     1       3.735   3.970  18.673  0.00  0.00    +0.000 A 
ATOM     15  N   UNL     1       3.779   2.781  19.321  0.00  0.00    +0.000 NA
ATOM     16  C   UNL     1       3.035   2.650  20.453  0.00  0.00    +0.000 A 
ATOM     17  C   UNL     1       2.352   3.683  21.106  0.00  0.00    +0.000 A 
ATOM     18  C   UNL     1       2.359   4.897  20.419  0.00  0.00    +0.000 A 
ATOM     19  N   UNL     1       2.041   6.212  20.748  0.00  0.00    +0.000 N 
ATOM     20  H   UNL     1       1.735   6.526  21.658  0.00  0.00    +0.000 HD
BRANCH  14  21
ATOM     21  C   UNL     1       4.765   4.387  17.701  0.00  0.00    +0.000 A 
ATOM     22  C   UNL     1       4.509   4.258  16.300  0.00  0.00    +0.000 A 
ATOM     23  C   UNL     1       5.484   4.498  15.339  0.00  0.00    +0.000 A 
ATOM     24  C   UNL     1       6.719   4.963  15.756  0.00  0.00    +0.000 A 
ATOM     25  F   UNL     1       7.666   5.199  14.843  0.00  0.00    +0.000 F 
ATOM     26  C   UNL     1       6.975   5.192  17.106  0.00  0.00    +0.000 A 
ATOM     27  C   UNL     1       6.006   4.906  18.077  0.00  0.00    +0.000 A 
ENDBRANCH  14  21
ENDBRANCH   4  11
BRANCH   1  32
ATOM     28  C   UNL     1       0.488  14.787  21.996  0.00  0.00    +0.000 A 
ATOM     29  C   UNL     1      -0.388  14.846  23.063  0.00  0.00    +0.000 A 
ATOM     30  N   UNL     1      -1.231  13.839  23.418  0.00  0.00    +0.000 NA
ATOM     31  C   UNL     1      -1.182  12.710  22.663  0.00  0.00    +0.000 A 
ATOM     32  C   UNL     1      -0.333  12.500  21.579  0.00  0.00    +0.000 A 
ATOM     33  C   UNL     1       0.526  13.596  21.272  0.00  0.00    +0.000 A 
BRANCH  28  34
ATOM     34  O   UNL     1       1.264  15.890  21.780  0.00  0.00    +0.000 OA
BRANCH  34  35
ATOM     35  C   UNL     1       0.998  16.644  20.587  0.00  0.00    +0.000 C 
BRANCH  35  36
ATOM     36  C   UNL     1       2.216  16.501  19.650  0.00  0.00    +0.000 C 
BRANCH  36  38
ATOM     37  C   UNL     1       1.120  17.810  17.946  0.00  0.00    +0.000 C 
ATOM     38  N   UNL     1       1.919  16.606  18.207  0.00  0.00    +0.000 NA
ATOM     39  C   UNL     1       3.134  16.638  17.391  0.00  0.00    +0.000 C 
ENDBRANCH  36  38
ENDBRANCH  35  36
ENDBRANCH  34  35
ENDBRANCH  28  34
ENDBRANCH   1  32
TORSDOF 7
ENDMDL
MODEL 8
REMARK VINA RESULT:      -8.8      0.675      1.166
REMARK  Name = 
REMARK  9 active torsions:
REMARK  status: ('A' for Active; 'I' for Inactive)
REMARK    1  A    between atoms: C_1  and  N_2
REMARK    2  A    between atoms: N_2  and  C_3
REMARK    3  A    between atoms: N_2  and  C_4
REMARK    4  A    between atoms: C_4  and  C_5
REMARK    5  A    between atoms: C_5  and  O_6
REMARK    6  A    between atoms: O_6  and  C_7
REMARK    7  A    between atoms: C_11  and  C_12
REMARK    8  A    between atoms: C_15  and  C_16
REMARK    9  A    between atoms: C_19  and  C_20
REMARK                            x       y       z     vdW  Elec       q    Type
REMARK                         _______ _______ _______ _____ _____    ______ ____
ROOT
ATOM      1  C   UNL     1      -0.168  11.414  20.513  0.00  0.00    +0.000 A 
ATOM      2  C   UNL     1       0.810  10.430  20.762  0.00  0.00    +0.000 A 
ATOM      3  C   UNL     1       1.028   9.515  19.697  0.00  0.00    +0.000 A 
ATOM      4  C   UNL     1       1.930   8.479  19.308  0.00  0.00    +0.000 A 
ATOM      5  N   UNL     1       2.291   8.708  18.031  0.00  0.00    +0.000 NA
ATOM      6  N   UNL     1       1.164   9.231  17.540  0.00  0.00    +0.000 N 
ATOM      7  C   UNL     1       0.352   9.741  18.511  0.00  0.00    +0.000 A 
ATOM      8  C   UNL     1      -0.800  10.471  18.460  0.00  0.00    +0.000 A 
ATOM      9  N   UNL     1      -1.052  11.304  19.476  0.00  0.00    +0.000 NA
ATOM     10  H   UNL     1       1.077   9.317  16.537  0.00  0.00    +0.000 HD
ENDROOT
BRANCH   4  11
ATOM     11  C   UNL     1       2.121   7.048  19.653  0.00  0.00    +0.000 A 
ATOM     12  C   UNL     1       2.283   6.114  18.663  0.00  0.00    +0.000 A 
ATOM     13  C   UNL     1       2.714   4.949  19.316  0.00  0.00    +0.000 A 
ATOM     14  C   UNL     1       3.564   3.900  18.947  0.00  0.00    +0.000 A 
ATOM     15  N   UNL     1       3.576   2.768  19.690  0.00  0.00    +0.000 NA
ATOM     16  C   UNL     1       2.833   2.752  20.830  0.00  0.00    +0.000 A 
ATOM     17  C   UNL     1       2.181   3.854  21.397  0.00  0.00    +0.000 A 
ATOM     18  C   UNL     1       2.221   5.006  20.612  0.00  0.00    +0.000 A 
ATOM     19  N   UNL     1       1.941   6.353  20.832  0.00  0.00    +0.000 N 
ATOM     20  H   UNL     1       1.649   6.749  21.714  0.00  0.00    +0.000 HD
BRANCH  14  21
ATOM     21  C   UNL     1       4.601   4.205  17.941  0.00  0.00    +0.000 A 
ATOM     22  C   UNL     1       5.861   4.734  18.363  0.00  0.00    +0.000 A 
ATOM     23  C   UNL     1       6.824   5.172  17.462  0.00  0.00    +0.000 A 
ATOM     24  C   UNL     1       6.584   5.007  16.109  0.00  0.00    +0.000 A 
ATOM     25  F   UNL     1       7.502   5.423  15.231  0.00  0.00    +0.000 F 
ATOM     26  C   UNL     1       5.408   4.408  15.663  0.00  0.00    +0.000 A 
ATOM     27  C   UNL     1       4.418   4.008  16.571  0.00  0.00    +0.000 A 
ENDBRANCH  14  21
ENDBRANCH   4  11
BRANCH   1  32
ATOM     28  C   UNL     1       0.243  15.176  21.062  0.00  0.00    +0.000 A 
ATOM     29  C   UNL     1      -0.173  15.252  22.378  0.00  0.00    +0.000 A 
ATOM     30  N   UNL     1      -0.620  14.190  23.101  0.00  0.00    +0.000 NA
ATOM     31  C   UNL     1      -0.642  12.988  22.466  0.00  0.00    +0.000 A 
ATOM     32  C   UNL     1      -0.229  12.758  21.156  0.00  0.00    +0.000 A 
ATOM     33  C   UNL     1       0.234  13.916  20.465  0.00  0.00    +0.000 A 
BRANCH  28  34
ATOM     34  O   UNL     1       0.663  16.341  20.486  0.00  0.00    +0.000 OA
BRANCH  34  35
ATOM     35  C   UNL     1       1.835  16.955  21.047  0.00  0.00    +0.000 C 
BRANCH  35  36
ATOM     36  C   UNL     1       2.915  17.015  19.946  0.00  0.00    +0.000 C 
BRANCH  36  38
ATOM     37  C   UNL     1       2.833  16.864  17.540  0.00  0.00    +0.000 C 
ATOM     38  N   UNL     1       2.694  16.115  18.795  0.00  0.00    +0.000 NA
ATOM     39  C   UNL     1       3.619  14.980  18.793  0.00  0.00    +0.000 C 
ENDBRANCH  36  38
ENDBRANCH  35  36
ENDBRANCH  34  35
ENDBRANCH  28  34
ENDBRANCH   1  32
TORSDOF 7
ENDMDL
MODEL 9
REMARK VINA RESULT:      -8.7      2.356      3.762
REMARK  Name = 
REMARK  9 active torsions:
REMARK  status: ('A' for Active; 'I' for Inactive)
REMARK    1  A    between atoms: C_1  and  N_2
REMARK    2  A    between atoms: N_2  and  C_3
REMARK    3  A    between atoms: N_2  and  C_4
REMARK    4  A    between atoms: C_4  and  C_5
REMARK    5  A    between atoms: C_5  and  O_6
REMARK    6  A    between atoms: O_6  and  C_7
REMARK    7  A    between atoms: C_11  and  C_12
REMARK    8  A    between atoms: C_15  and  C_16
REMARK    9  A    between atoms: C_19  and  C_20
REMARK                            x       y       z     vdW  Elec       q    Type
REMARK                         _______ _______ _______ _____ _____    ______ ____
ROOT
ATOM      1  C   UNL     1      -0.732  11.002  20.237  0.00  0.00    +0.000 A 
ATOM      2  C   UNL     1       0.273  10.097  20.632  0.00  0.00    +0.000 A 
ATOM      3  C   UNL     1       0.839   9.328  19.580  0.00  0.00    +0.000 A 
ATOM      4  C   UNL     1       1.924   8.434  19.335  0.00  0.00    +0.000 A 
ATOM      5  N   UNL     1       2.538   8.834  18.205  0.00  0.00    +0.000 NA
ATOM      6  N   UNL     1       1.500   9.295  17.502  0.00  0.00    +0.000 N 
ATOM      7  C   UNL     1       0.431   9.615  18.288  0.00  0.00    +0.000 A 
ATOM      8  C   UNL     1      -0.759  10.229  18.022  0.00  0.00    +0.000 A 
ATOM      9  N   UNL     1      -1.335  10.919  19.013  0.00  0.00    +0.000 NA
ATOM     10  H   UNL     1       1.635   9.480  16.518  0.00  0.00    +0.000 HD
ENDROOT
BRANCH   4  11
ATOM     11  C   UNL     1       2.202   7.000  19.596  0.00  0.00    +0.000 A 
ATOM     12  C   UNL     1       2.395   6.131  18.554  0.00  0.00    +0.000 A 
ATOM     13  C   UNL     1       2.904   4.959  19.133  0.00  0.00    +0.000 A 
ATOM     14  C   UNL     1       3.802   3.982  18.690  0.00  0.00    +0.000 A 
ATOM     15  N   UNL     1       3.894   2.813  19.370  0.00  0.00    +0.000 NA
ATOM     16  C   UNL     1       3.179   2.694  20.521  0.00  0.00    +0.000 A 
ATOM     17  C   UNL     1       2.479   3.726  21.160  0.00  0.00    +0.000 A 
ATOM     18  C   UNL     1       2.437   4.918  20.439  0.00  0.00    +0.000 A 
ATOM     19  N   UNL     1       2.088   6.233  20.738  0.00  0.00    +0.000 N 
ATOM     20  H   UNL     1       1.794   6.564  21.646  0.00  0.00    +0.000 HD
BRANCH  14  21
ATOM     21  C   UNL     1       4.799   4.399  17.684  0.00  0.00    +0.000 A 
ATOM     22  C   UNL     1       4.591   4.077  16.306  0.00  0.00    +0.000 A 
ATOM     23  C   UNL     1       5.554   4.315  15.332  0.00  0.00    +0.000 A 
ATOM     24  C   UNL     1       6.716   4.969  15.701  0.00  0.00    +0.000 A 
ATOM     25  F   UNL     1       7.650   5.206  14.774  0.00  0.00    +0.000 F 
ATOM     26  C   UNL     1       6.913   5.384  17.016  0.00  0.00    +0.000 A 
ATOM     27  C   UNL     1       5.962   5.102  18.006  0.00  0.00    +0.000 A 
ENDBRANCH  14  21
ENDBRANCH   4  11
BRANCH   1  32
ATOM     28  C   UNL     1      -2.600  14.200  21.192  0.00  0.00    +0.000 A 
ATOM     29  C   UNL     1      -1.733  14.680  22.155  0.00  0.00    +0.000 A 
ATOM     30  N   UNL     1      -0.606  14.034  22.560  0.00  0.00    +0.000 NA
ATOM     31  C   UNL     1      -0.335  12.847  21.957  0.00  0.00    +0.000 A 
ATOM     32  C   UNL     1      -1.102  12.256  20.956  0.00  0.00    +0.000 A 
ATOM     33  C   UNL     1      -2.262  12.994  20.578  0.00  0.00    +0.000 A 
BRANCH  28  34
ATOM     34  O   UNL     1      -3.686  14.977  20.905  0.00  0.00    +0.000 OA
BRANCH  34  35
ATOM     35  C   UNL     1      -4.977  14.364  21.051  0.00  0.00    +0.000 C 
BRANCH  35  36
ATOM     36  C   UNL     1      -5.424  14.537  22.518  0.00  0.00    +0.000 C 
BRANCH  36  38
ATOM     37  C   UNL     1      -7.268  13.922  23.947  0.00  0.00    +0.000 C 
ATOM     38  N   UNL     1      -6.201  13.412  23.078  0.00  0.00    +0.000 NA
ATOM     39  C   UNL     1      -6.783  12.566  22.035  0.00  0.00    +0.000 C 
ENDBRANCH  36  38
ENDBRANCH  35  36
ENDBRANCH  34  35
ENDBRANCH  28  34
ENDBRANCH   1  32
TORSDOF 7
ENDMDL
