MODEL 1
REMARK VINA RESULT:      -8.9      0.000      0.000
REMARK  Name = 
REMARK  7 active torsions:
REMARK  status: ('A' for Active; 'I' for Inactive)
REMARK    1  A    between atoms: C_2  and  C_3
REMARK    2  A    between atoms: N_5  and  C_6
REMARK    3  A    between atoms: C_10  and  N_11
REMARK    4  A    between atoms: C_17  and  N_18
REMARK    5  A    between atoms: N_18  and  C_19
REMARK    6  A    between atoms: C_24  and  C_25
REMARK    7  A    between atoms: N_27  and  C_28
REMARK                            x       y       z     vdW  Elec       q    Type
REMARK                         _______ _______ _______ _____ _____    ______ ____
ROOT
ATOM      1  N   UNL     1       1.905   6.371  20.606  0.00  0.00    +0.000 N 
ATOM      2  C   UNL     1       2.606   5.181  20.390  0.00  0.00    +0.000 A 
ATOM      3  N   UNL     1       2.081   4.054  20.887  0.00  0.00    +0.000 NA
ATOM      4  C   UNL     1       2.816   2.930  20.735  0.00  0.00    +0.000 A 
ATOM      5  C   UNL     1       4.046   2.891  20.113  0.00  0.00    +0.000 A 
ATOM      6 CL   UNL     1       4.956   1.437  20.046  0.00  0.00    +0.000 Cl
ATOM      7  C   UNL     1       4.508   4.095  19.610  0.00  0.00    +0.000 A 
ATOM      8  N   UNL     1       3.782   5.220  19.744  0.00  0.00    +0.000 NA
ATOM      9  H   UNL     1       0.978   6.128  20.935  0.00  0.00    +0.000 HD
ENDROOT
BRANCH   1  14
ATOM     10  C   UNL     1       1.146   9.782  19.321  0.00  0.00    +0.000 A 
ATOM     11  C   UNL     1       1.779   9.732  18.074  0.00  0.00    +0.000 A 
ATOM     12  C   UNL     1       2.455   8.588  17.664  0.00  0.00    +0.000 A 
ATOM     13  C   UNL     1       2.513   7.477  18.500  0.00  0.00    +0.000 A 
ATOM     14  C   UNL     1       1.916   7.505  19.767  0.00  0.00    +0.000 A 
ATOM     15  C   UNL     1       1.233   8.666  20.167  0.00  0.00    +0.000 A 
BRANCH  10  18
ATOM     16  C   UNL     1      -0.889  11.197  19.455  0.00  0.00    +0.000 C 
ATOM     17  O   UNL     1      -1.653  10.492  18.807  0.00  0.00    +0.000 OA
ATOM     18  N   UNL     1       0.428  10.916  19.767  0.00  0.00    +0.000 N 
ATOM     19  H   UNL     1       0.899  11.511  20.435  0.00  0.00    +0.000 HD
BRANCH  16  21
ATOM     20  C   UNL     1      -2.672  12.628  20.320  0.00  0.00    +0.000 C 
ATOM     21  C   UNL     1      -1.364  12.479  20.046  0.00  0.00    +0.000 C 
ENDBRANCH  16  21
ENDBRANCH  10  18
ENDBRANCH   1  14
BRANCH   7  22
ATOM     22  N   UNL     1       5.724   4.177  18.886  0.00  0.00    +0.000 N 
ATOM     23  H   UNL     1       6.426   4.717  19.392  0.00  0.00    +0.000 HD
BRANCH  22  24
ATOM     24  C   UNL     1       5.833   4.426  17.486  0.00  0.00    +0.000 A 
ATOM     25  C   UNL     1       5.135   3.617  16.564  0.00  0.00    +0.000 A 
ATOM     26  C   UNL     1       5.140   3.888  15.193  0.00  0.00    +0.000 A 
ATOM     27  C   UNL     1       5.839   4.983  14.707  0.00  0.00    +0.000 A 
ATOM     28  C   UNL     1       6.539   5.798  15.594  0.00  0.00    +0.000 A 
ATOM     29  C   UNL     1       6.546   5.531  16.978  0.00  0.00    +0.000 A 
BRANCH  29  30
ATOM     30  C   UNL     1       7.355   6.475  17.803  0.00  0.00    +0.000 C 
ATOM     31  O   UNL     1       7.794   6.113  18.891  0.00  0.00    +0.000 OA
ATOM     32  N   UNL     1       7.535   7.749  17.311  0.00  0.00    +0.000 N 
ATOM     33  C   UNL     1       8.242   8.753  18.065  0.00  0.00    +0.000 C 
ATOM     34  H   UNL     1       7.154   7.976  16.398  0.00  0.00    +0.000 HD
ENDBRANCH  29  30
ENDBRANCH  22  24
ENDBRANCH   7  22
TORSDOF 6
ENDMDL
MODEL 2
REMARK VINA RESULT:      -8.8      1.361      2.379
REMARK  Name = 
REMARK  7 active torsions:
REMARK  status: ('A' for Active; 'I' for Inactive)
REMARK    1  A    between atoms: C_2  and  C_3
REMARK    2  A    between atoms: N_5  and  C_6
REMARK    3  A    between atoms: C_10  and  N_11
REMARK    4  A    between atoms: C_17  and  N_18
REMARK    5  A    between atoms: N_18  and  C_19
REMARK    6  A    between atoms: C_24  and  C_25
REMARK    7  A    between atoms: N_27  and  C_28
REMARK                            x       y       z     vdW  Elec       q    Type
REMARK                         _______ _______ _______ _____ _____    ______ ____
ROOT
ATOM      1  N   UNL     1       2.071   6.081  20.724  0.00  0.00    +0.000 N 
ATOM      2  C   UNL     1       2.722   4.865  20.496  0.00  0.00    +0.000 A 
ATOM      3  N   UNL     1       2.211   3.771  21.075  0.00  0.00    +0.000 NA
ATOM      4  C   UNL     1       2.904   2.623  20.906  0.00  0.00    +0.000 A 
ATOM      5  C   UNL     1       4.077   2.528  20.190  0.00  0.00    +0.000 A 
ATOM      6 CL   UNL     1       4.943   1.048  20.103  0.00  0.00    +0.000 Cl
ATOM      7  C   UNL     1       4.526   3.700  19.607  0.00  0.00    +0.000 A 
ATOM      8  N   UNL     1       3.842   4.849  19.757  0.00  0.00    +0.000 NA
ATOM      9  H   UNL     1       1.168   5.876  21.136  0.00  0.00    +0.000 HD
ENDROOT
BRANCH   1  14
ATOM     10  C   UNL     1       1.208   9.425  19.332  0.00  0.00    +0.000 A 
ATOM     11  C   UNL     1       1.825   9.346  18.078  0.00  0.00    +0.000 A 
ATOM     12  C   UNL     1       2.523   8.204  17.698  0.00  0.00    +0.000 A 
ATOM     13  C   UNL     1       2.620   7.126  18.571  0.00  0.00    +0.000 A 
ATOM     14  C   UNL     1       2.042   7.184  19.846  0.00  0.00    +0.000 A 
ATOM     15  C   UNL     1       1.336   8.342  20.215  0.00  0.00    +0.000 A 
BRANCH  10  18
ATOM     16  C   UNL     1      -0.825  10.848  19.361  0.00  0.00    +0.000 C 
ATOM     17  O   UNL     1      -1.551  10.155  18.659  0.00  0.00    +0.000 OA
ATOM     18  N   UNL     1       0.470  10.556  19.749  0.00  0.00    +0.000 N 
ATOM     19  H   UNL     1       0.901  11.140  20.452  0.00  0.00    +0.000 HD
BRANCH  16  21
ATOM     20  C   UNL     1      -2.649  12.383  19.900  0.00  0.00    +0.000 C 
ATOM     21  C   UNL     1      -1.330  12.123  19.939  0.00  0.00    +0.000 C 
ENDBRANCH  16  21
ENDBRANCH  10  18
ENDBRANCH   1  14
BRANCH   7  22
ATOM     22  N   UNL     1       5.681   3.724  18.784  0.00  0.00    +0.000 N 
ATOM     23  H   UNL     1       6.355   3.012  19.064  0.00  0.00    +0.000 HD
BRANCH  22  24
ATOM     24  C   UNL     1       6.362   4.900  18.355  0.00  0.00    +0.000 A 
ATOM     25  C   UNL     1       7.140   5.644  19.269  0.00  0.00    +0.000 A 
ATOM     26  C   UNL     1       7.899   6.745  18.866  0.00  0.00    +0.000 A 
ATOM     27  C   UNL     1       7.907   7.130  17.534  0.00  0.00    +0.000 A 
ATOM     28  C   UNL     1       7.147   6.416  16.610  0.00  0.00    +0.000 A 
ATOM     29  C   UNL     1       6.373   5.307  17.005  0.00  0.00    +0.000 A 
BRANCH  29  30
ATOM     30  C   UNL     1       5.595   4.652  15.913  0.00  0.00    +0.000 C 
ATOM     31  O   UNL     1       4.484   4.186  16.150  0.00  0.00    +0.000 OA
ATOM     32  N   UNL     1       6.195   4.565  14.676  0.00  0.00    +0.000 N 
ATOM     33  C   UNL     1       5.552   3.890  13.576  0.00  0.00    +0.000 C 
ATOM     34  H   UNL     1       7.110   4.984  14.548  0.00  0.00    +0.000 HD
ENDBRANCH  29  30
ENDBRANCH  22  24
ENDBRANCH   7  22
TORSDOF 6
ENDMDL
MODEL 3
REMARK VINA RESULT:      -8.1      1.622      2.545
REMARK  Name = 
REMARK  7 active torsions:
REMARK  status: ('A' for Active; 'I' for Inactive)
REMARK    1  A    between atoms: C_2  and  C_3
REMARK    2  A    between atoms: N_5  and  C_6
REMARK    3  A    between atoms: C_10  and  N_11
REMARK    4  A    between atoms: C_17  and  N_18
REMARK    5  A    between atoms: N_18  and  C_19
REMARK    6  A    between atoms: C_24  and  C_25
REMARK    7  A    between atoms: N_27  and  C_28
REMARK                            x       y       z     vdW  Elec       q    Type
REMARK                         _______ _______ _______ _____ _____    ______ ____
ROOT
ATOM      1  N   UNL     1       1.638   5.990  20.626  0.00  0.00    +0.000 N 
ATOM      2  C   UNL     1       2.159   4.818  20.070  0.00  0.00    +0.000 A 
ATOM      3  N   UNL     1       1.549   3.665  20.373  0.00  0.00    +0.000 NA
ATOM      4  C   UNL     1       2.118   2.538  19.889  0.00  0.00    +0.000 A 
ATOM      5  C   UNL     1       3.265   2.520  19.125  0.00  0.00    +0.000 A 
ATOM      6 CL   UNL     1       3.974   1.038  18.630  0.00  0.00    +0.000 Cl
ATOM      7  C   UNL     1       3.822   3.755  18.842  0.00  0.00    +0.000 A 
ATOM      8  N   UNL     1       3.260   4.887  19.307  0.00  0.00    +0.000 NA
ATOM      9  H   UNL     1       0.726   5.772  21.008  0.00  0.00    +0.000 HD
ENDROOT
BRANCH   1  14
ATOM     10  C   UNL     1       1.144   9.655  20.193  0.00  0.00    +0.000 A 
ATOM     11  C   UNL     1       1.685   9.836  18.915  0.00  0.00    +0.000 A 
ATOM     12  C   UNL     1       2.213   8.762  18.206  0.00  0.00    +0.000 A 
ATOM     13  C   UNL     1       2.213   7.490  18.769  0.00  0.00    +0.000 A 
ATOM     14  C   UNL     1       1.708   7.280  20.059  0.00  0.00    +0.000 A 
ATOM     15  C   UNL     1       1.175   8.373  20.762  0.00  0.00    +0.000 A 
BRANCH  10  18
ATOM     16  C   UNL     1      -0.624  11.336  20.649  0.00  0.00    +0.000 C 
ATOM     17  O   UNL     1      -1.407  11.034  19.757  0.00  0.00    +0.000 OA
ATOM     18  N   UNL     1       0.577  10.714  20.938  0.00  0.00    +0.000 N 
ATOM     19  H   UNL     1       1.052  10.966  21.794  0.00  0.00    +0.000 HD
BRANCH  16  21
ATOM     20  C   UNL     1      -1.213  12.144  22.880  0.00  0.00    +0.000 C 
ATOM     21  C   UNL     1      -0.948  12.439  21.595  0.00  0.00    +0.000 C 
ENDBRANCH  16  21
ENDBRANCH  10  18
ENDBRANCH   1  14
BRANCH   7  22
ATOM     22  N   UNL     1       4.961   3.880  18.006  0.00  0.00    +0.000 N 
ATOM     23  H   UNL     1       5.402   2.977  17.837  0.00  0.00    +0.000 HD
BRANCH  22  24
ATOM     24  C   UNL     1       5.955   4.896  18.115  0.00  0.00    +0.000 A 
ATOM     25  C   UNL     1       6.552   5.174  19.364  0.00  0.00    +0.000 A 
ATOM     26  C   UNL     1       7.596   6.094  19.493  0.00  0.00    +0.000 A 
ATOM     27  C   UNL     1       8.078   6.756  18.374  0.00  0.00    +0.000 A 
ATOM     28  C   UNL     1       7.506   6.503  17.129  0.00  0.00    +0.000 A 
ATOM     29  C   UNL     1       6.448   5.582  16.987  0.00  0.00    +0.000 A 
BRANCH  29  30
ATOM     30  C   UNL     1       5.922   5.428  15.599  0.00  0.00    +0.000 C 
ATOM     31  O   UNL     1       5.231   6.315  15.107  0.00  0.00    +0.000 OA
ATOM     32  N   UNL     1       6.209   4.252  14.942  0.00  0.00    +0.000 N 
ATOM     33  C   UNL     1       5.688   3.981  13.626  0.00  0.00    +0.000 C 
ATOM     34  H   UNL     1       6.797   3.567  15.405  0.00  0.00    +0.000 HD
ENDBRANCH  29  30
ENDBRANCH  22  24
ENDBRANCH   7  22
TORSDOF 6
ENDMDL
MODEL 4
REMARK VINA RESULT:      -8.0      2.728      4.595
REMARK  Name = 
REMARK  7 active torsions:
REMARK  status: ('A' for Active; 'I' for Inactive)
REMARK    1  A    between atoms: C_2  and  C_3
REMARK    2  A    between atoms: N_5  and  C_6
REMARK    3  A    between atoms: C_10  and  N_11
REMARK    4  A    between atoms: C_17  and  N_18
REMARK    5  A    between atoms: N_18  and  C_19
REMARK    6  A    between atoms: C_24  and  C_25
REMARK    7  A    between atoms: N_27  and  C_28
REMARK                            x       y       z     vdW  Elec       q    Type
REMARK                         _______ _______ _______ _____ _____    ______ ____
ROOT
ATOM      1  N   UNL     1       0.192   9.809  19.320  0.00  0.00    +0.000 N 
ATOM      2  C   UNL     1       1.301   9.133  18.801  0.00  0.00    +0.000 A 
ATOM      3  N   UNL     1       1.849   9.614  17.678  0.00  0.00    +0.000 NA
ATOM      4  C   UNL     1       2.868   8.898  17.152  0.00  0.00    +0.000 A 
ATOM      5  C   UNL     1       3.354   7.731  17.700  0.00  0.00    +0.000 A 
ATOM      6 CL   UNL     1       4.590   6.834  16.916  0.00  0.00    +0.000 Cl
ATOM      7  C   UNL     1       2.746   7.314  18.871  0.00  0.00    +0.000 A 
ATOM      8  N   UNL     1       1.737   8.021  19.413  0.00  0.00    +0.000 NA
ATOM      9  H   UNL     1       0.126  10.702  18.847  0.00  0.00    +0.000 HD
ENDROOT
BRANCH   1  14
ATOM     10  C   UNL     1      -0.889  11.220  22.591  0.00  0.00    +0.000 A 
ATOM     11  C   UNL     1      -0.786  10.086  23.405  0.00  0.00    +0.000 A 
ATOM     12  C   UNL     1      -0.369   8.868  22.879  0.00  0.00    +0.000 A 
ATOM     13  C   UNL     1      -0.056   8.764  21.528  0.00  0.00    +0.000 A 
ATOM     14  C   UNL     1      -0.180   9.871  20.679  0.00  0.00    +0.000 A 
ATOM     15  C   UNL     1      -0.598  11.097  21.224  0.00  0.00    +0.000 A 
BRANCH  10  18
ATOM     16  C   UNL     1      -2.592  12.870  23.326  0.00  0.00    +0.000 C 
ATOM     17  O   UNL     1      -3.593  12.174  23.206  0.00  0.00    +0.000 OA
ATOM     18  N   UNL     1      -1.286  12.482  23.089  0.00  0.00    +0.000 N 
ATOM     19  H   UNL     1      -0.543  13.107  23.373  0.00  0.00    +0.000 HD
BRANCH  16  21
ATOM     20  C   UNL     1      -1.581  14.994  23.989  0.00  0.00    +0.000 C 
ATOM     21  C   UNL     1      -2.701  14.269  23.821  0.00  0.00    +0.000 C 
ENDBRANCH  16  21
ENDBRANCH  10  18
ENDBRANCH   1  14
BRANCH   7  22
ATOM     22  N   UNL     1       3.199   6.169  19.574  0.00  0.00    +0.000 N 
ATOM     23  H   UNL     1       4.159   6.285  19.900  0.00  0.00    +0.000 HD
BRANCH  22  24
ATOM     24  C   UNL     1       2.979   4.818  19.177  0.00  0.00    +0.000 A 
ATOM     25  C   UNL     1       1.666   4.307  19.092  0.00  0.00    +0.000 A 
ATOM     26  C   UNL     1       1.404   3.020  18.614  0.00  0.00    +0.000 A 
ATOM     27  C   UNL     1       2.450   2.210  18.201  0.00  0.00    +0.000 A 
ATOM     28  C   UNL     1       3.757   2.687  18.275  0.00  0.00    +0.000 A 
ATOM     29  C   UNL     1       4.034   3.980  18.760  0.00  0.00    +0.000 A 
BRANCH  29  30
ATOM     30  C   UNL     1       5.480   4.348  18.802  0.00  0.00    +0.000 C 
ATOM     31  O   UNL     1       5.944   4.887  19.802  0.00  0.00    +0.000 OA
ATOM     32  N   UNL     1       6.227   4.096  17.673  0.00  0.00    +0.000 N 
ATOM     33  C   UNL     1       7.615   4.478  17.591  0.00  0.00    +0.000 C 
ATOM     34  H   UNL     1       5.781   3.635  16.886  0.00  0.00    +0.000 HD
ENDBRANCH  29  30
ENDBRANCH  22  24
ENDBRANCH   7  22
TORSDOF 6
ENDMDL
MODEL 5
REMARK VINA RESULT:      -7.9      2.622      7.593
REMARK  Name = 
REMARK  7 active torsions:
REMARK  status: ('A' for Active; 'I' for Inactive)
REMARK    1  A    between atoms: C_2  and  C_3
REMARK    2  A    between atoms: N_5  and  C_6
REMARK    3  A    between atoms: C_10  and  N_11
REMARK    4  A    between atoms: C_17  and  N_18
REMARK    5  A    between atoms: N_18  and  C_19
REMARK    6  A    between atoms: C_24  and  C_25
REMARK    7  A    between atoms: N_27  and  C_28
REMARK                            x       y       z     vdW  Elec       q    Type
REMARK                         _______ _______ _______ _____ _____    ______ ____
ROOT
ATOM      1  N   UNL     1       3.001   5.161  18.742  0.00  0.00    +0.000 N 
ATOM      2  C   UNL     1       2.396   6.244  19.389  0.00  0.00    +0.000 A 
ATOM      3  N   UNL     1       1.877   6.027  20.604  0.00  0.00    +0.000 NA
ATOM      4  C   UNL     1       1.227   7.066  21.175  0.00  0.00    +0.000 A 
ATOM      5  C   UNL     1       1.077   8.301  20.581  0.00  0.00    +0.000 A 
ATOM      6 CL   UNL     1       0.156   9.538  21.335  0.00  0.00    +0.000 Cl
ATOM      7  C   UNL     1       1.660   8.448  19.335  0.00  0.00    +0.000 A 
ATOM      8  N   UNL     1       2.320   7.426  18.759  0.00  0.00    +0.000 NA
ATOM      9  H   UNL     1       3.128   4.425  19.426  0.00  0.00    +0.000 HD
ENDROOT
BRANCH   1  14
ATOM     10  C   UNL     1       5.928   6.494  16.867  0.00  0.00    +0.000 A 
ATOM     11  C   UNL     1       6.065   5.513  15.878  0.00  0.00    +0.000 A 
ATOM     12  C   UNL     1       5.206   4.420  15.835  0.00  0.00    +0.000 A 
ATOM     13  C   UNL     1       4.198   4.289  16.785  0.00  0.00    +0.000 A 
ATOM     14  C   UNL     1       4.053   5.237  17.806  0.00  0.00    +0.000 A 
ATOM     15  C   UNL     1       4.926   6.338  17.836  0.00  0.00    +0.000 A 
BRANCH  10  18
ATOM     16  C   UNL     1       7.797   7.808  17.836  0.00  0.00    +0.000 C 
ATOM     17  O   UNL     1       8.188   6.996  18.667  0.00  0.00    +0.000 OA
ATOM     18  N   UNL     1       6.764   7.631  16.934  0.00  0.00    +0.000 N 
ATOM     19  H   UNL     1       6.645   8.321  16.204  0.00  0.00    +0.000 HD
BRANCH  16  21
ATOM     20  C   UNL     1       8.901   9.771  18.785  0.00  0.00    +0.000 C 
ATOM     21  C   UNL     1       8.482   9.121  17.685  0.00  0.00    +0.000 C 
ENDBRANCH  16  21
ENDBRANCH  10  18
ENDBRANCH   1  14
BRANCH   7  22
ATOM     22  N   UNL     1       1.641   9.689  18.649  0.00  0.00    +0.000 N 
ATOM     23  H   UNL     1       2.362  10.321  18.997  0.00  0.00    +0.000 HD
BRANCH  22  24
ATOM     24  C   UNL     1       0.468  10.425  18.312  0.00  0.00    +0.000 A 
ATOM     25  C   UNL     1      -0.697   9.751  17.886  0.00  0.00    +0.000 A 
ATOM     26  C   UNL     1      -1.894  10.429  17.640  0.00  0.00    +0.000 A 
ATOM     27  C   UNL     1      -1.961  11.802  17.822  0.00  0.00    +0.000 A 
ATOM     28  C   UNL     1      -0.826  12.494  18.240  0.00  0.00    +0.000 A 
ATOM     29  C   UNL     1       0.388  11.822  18.485  0.00  0.00    +0.000 A 
BRANCH  29  30
ATOM     30  C   UNL     1       1.523  12.694  18.907  0.00  0.00    +0.000 C 
ATOM     31  O   UNL     1       1.645  13.007  20.088  0.00  0.00    +0.000 OA
ATOM     32  N   UNL     1       2.370  13.149  17.921  0.00  0.00    +0.000 N 
ATOM     33  C   UNL     1       3.455  14.051  18.220  0.00  0.00    +0.000 C 
ATOM     34  H   UNL     1       2.217  12.839  16.967  0.00  0.00    +0.000 HD
ENDBRANCH  29  30
ENDBRANCH  22  24
ENDBRANCH   7  22
TORSDOF 6
ENDMDL
MODEL 6
REMARK VINA RESULT:      -7.8      3.846      9.457
REMARK  Name = 
REMARK  7 active torsions:
REMARK  status: ('A' for Active; 'I' for Inactive)
REMARK    1  A    between atoms: C_2  and  C_3
REMARK    2  A    between atoms: N_5  and  C_6
REMARK    3  A    between atoms: C_10  and  N_11
REMARK    4  A    between atoms: C_17  and  N_18
REMARK    5  A    between atoms: N_18  and  C_19
REMARK    6  A    between atoms: C_24  and  C_25
REMARK    7  A    between atoms: N_27  and  C_28
REMARK                            x       y       z     vdW  Elec       q    Type
REMARK                         _______ _______ _______ _____ _____    ______ ____
ROOT
ATOM      1  N   UNL     1       0.884   7.955  21.141  0.00  0.00    +0.000 N 
ATOM      2  C   UNL     1       0.232   9.124  21.543  0.00  0.00    +0.000 A 
ATOM      3  N   UNL     1       0.121   9.350  22.858  0.00  0.00    +0.000 NA
ATOM      4  C   UNL     1      -0.583  10.445  23.223  0.00  0.00    +0.000 A 
ATOM      5  C   UNL     1      -1.177  11.313  22.332  0.00  0.00    +0.000 A 
ATOM      6 CL   UNL     1      -2.133  12.628  22.882  0.00  0.00    +0.000 Cl
ATOM      7  C   UNL     1      -0.998  11.019  20.991  0.00  0.00    +0.000 A 
ATOM      8  N   UNL     1      -0.290   9.938  20.612  0.00  0.00    +0.000 NA
ATOM      9  H   UNL     1       1.360   7.573  21.949  0.00  0.00    +0.000 HD
ENDROOT
BRANCH   1  14
ATOM     10  C   UNL     1       2.996   6.344  18.532  0.00  0.00    +0.000 A 
ATOM     11  C   UNL     1       3.158   7.411  17.641  0.00  0.00    +0.000 A 
ATOM     12  C   UNL     1       2.571   8.646  17.894  0.00  0.00    +0.000 A 
ATOM     13  C   UNL     1       1.807   8.831  19.042  0.00  0.00    +0.000 A 
ATOM     14  C   UNL     1       1.599   7.776  19.939  0.00  0.00    +0.000 A 
ATOM     15  C   UNL     1       2.201   6.534  19.672  0.00  0.00    +0.000 A 
BRANCH  10  18
ATOM     16  C   UNL     1       2.953   3.974  17.794  0.00  0.00    +0.000 C 
ATOM     17  O   UNL     1       1.806   3.930  17.367  0.00  0.00    +0.000 OA
ATOM     18  N   UNL     1       3.593   5.080  18.325  0.00  0.00    +0.000 N 
ATOM     19  H   UNL     1       4.587   5.018  18.499  0.00  0.00    +0.000 HD
BRANCH  16  21
ATOM     20  C   UNL     1       3.413   1.624  18.284  0.00  0.00    +0.000 C 
ATOM     21  C   UNL     1       3.830   2.774  17.725  0.00  0.00    +0.000 C 
ENDBRANCH  16  21
ENDBRANCH  10  18
ENDBRANCH   1  14
BRANCH   7  22
ATOM     22  N   UNL     1      -1.496  11.870  19.973  0.00  0.00    +0.000 N 
ATOM     23  H   UNL     1      -1.936  12.703  20.363  0.00  0.00    +0.000 HD
BRANCH  22  24
ATOM     24  C   UNL     1      -2.206  11.440  18.814  0.00  0.00    +0.000 A 
ATOM     25  C   UNL     1      -1.540  10.719  17.800  0.00  0.00    +0.000 A 
ATOM     26  C   UNL     1      -2.222  10.198  16.697  0.00  0.00    +0.000 A 
ATOM     27  C   UNL     1      -3.592  10.379  16.581  0.00  0.00    +0.000 A 
ATOM     28  C   UNL     1      -4.275  11.089  17.566  0.00  0.00    +0.000 A 
ATOM     29  C   UNL     1      -3.598  11.624  18.681  0.00  0.00    +0.000 A 
BRANCH  29  30
ATOM     30  C   UNL     1      -4.453  12.378  19.643  0.00  0.00    +0.000 C 
ATOM     31  O   UNL     1      -4.004  13.368  20.212  0.00  0.00    +0.000 OA
ATOM     32  N   UNL     1      -5.718  11.887  19.881  0.00  0.00    +0.000 N 
ATOM     33  C   UNL     1      -6.594  12.505  20.845  0.00  0.00    +0.000 C 
ATOM     34  H   UNL     1      -6.028  11.070  19.365  0.00  0.00    +0.000 HD
ENDBRANCH  29  30
ENDBRANCH  22  24
ENDBRANCH   7  22
TORSDOF 6
ENDMDL
MODEL 7
REMARK VINA RESULT:      -7.8      4.469      9.838
REMARK  Name = 
REMARK  7 active torsions:
REMARK  status: ('A' for Active; 'I' for Inactive)
REMARK    1  A    between atoms: C_2  and  C_3
REMARK    2  A    between atoms: N_5  and  C_6
REMARK    3  A    between atoms: C_10  and  N_11
REMARK    4  A    between atoms: C_17  and  N_18
REMARK    5  A    between atoms: N_18  and  C_19
REMARK    6  A    between atoms: C_24  and  C_25
REMARK    7  A    between atoms: N_27  and  C_28
REMARK                            x       y       z     vdW  Elec       q    Type
REMARK                         _______ _______ _______ _____ _____    ______ ____
ROOT
ATOM      1  N   UNL     1       0.221   9.439  21.906  0.00  0.00    +0.000 N 
ATOM      2  C   UNL     1      -0.414  10.684  21.859  0.00  0.00    +0.000 A 
ATOM      3  N   UNL     1      -0.474  11.392  22.994  0.00  0.00    +0.000 NA
ATOM      4  C   UNL     1      -1.164  12.554  22.942  0.00  0.00    +0.000 A 
ATOM      5  C   UNL     1      -1.791  13.028  21.810  0.00  0.00    +0.000 A 
ATOM      6 CL   UNL     1      -2.724  14.468  21.855  0.00  0.00    +0.000 Cl
ATOM      7  C   UNL     1      -1.664  12.246  20.675  0.00  0.00    +0.000 A 
ATOM      8  N   UNL     1      -0.971  11.092  20.708  0.00  0.00    +0.000 NA
ATOM      9  H   UNL     1       0.728   9.385  22.782  0.00  0.00    +0.000 HD
ENDROOT
BRANCH   1  14
ATOM     10  C   UNL     1       2.209   6.917  20.022  0.00  0.00    +0.000 A 
ATOM     11  C   UNL     1       2.358   7.575  18.796  0.00  0.00    +0.000 A 
ATOM     12  C   UNL     1       1.805   8.834  18.591  0.00  0.00    +0.000 A 
ATOM     13  C   UNL     1       1.086   9.452  19.609  0.00  0.00    +0.000 A 
ATOM     14  C   UNL     1       0.890   8.808  20.837  0.00  0.00    +0.000 A 
ATOM     15  C   UNL     1       1.459   7.538  21.032  0.00  0.00    +0.000 A 
BRANCH  10  18
ATOM     16  C   UNL     1       2.135   4.437  20.087  0.00  0.00    +0.000 C 
ATOM     17  O   UNL     1       1.020   4.268  19.609  0.00  0.00    +0.000 OA
ATOM     18  N   UNL     1       2.774   5.648  20.281  0.00  0.00    +0.000 N 
ATOM     19  H   UNL     1       3.751   5.636  20.543  0.00  0.00    +0.000 HD
BRANCH  16  21
ATOM     20  C   UNL     1       2.601   2.520  21.529  0.00  0.00    +0.000 C 
ATOM     21  C   UNL     1       2.972   3.270  20.477  0.00  0.00    +0.000 C 
ENDBRANCH  16  21
ENDBRANCH  10  18
ENDBRANCH   1  14
BRANCH   7  22
ATOM     22  N   UNL     1      -2.200  12.657  19.428  0.00  0.00    +0.000 N 
ATOM     23  H   UNL     1      -2.869  13.418  19.541  0.00  0.00    +0.000 HD
BRANCH  22  24
ATOM     24  C   UNL     1      -2.627  11.782  18.387  0.00  0.00    +0.000 A 
ATOM     25  C   UNL     1      -1.684  11.004  17.681  0.00  0.00    +0.000 A 
ATOM     26  C   UNL     1      -2.072  10.065  16.722  0.00  0.00    +0.000 A 
ATOM     27  C   UNL     1      -3.417   9.873  16.447  0.00  0.00    +0.000 A 
ATOM     28  C   UNL     1      -4.371  10.628  17.127  0.00  0.00    +0.000 A 
ATOM     29  C   UNL     1      -3.991  11.582  18.093  0.00  0.00    +0.000 A 
BRANCH  29  30
ATOM     30  C   UNL     1      -5.117  12.330  18.725  0.00  0.00    +0.000 C 
ATOM     31  O   UNL     1      -5.292  12.259  19.937  0.00  0.00    +0.000 OA
ATOM     32  N   UNL     1      -5.948  13.044  17.890  0.00  0.00    +0.000 N 
ATOM     33  C   UNL     1      -7.102  13.743  18.397  0.00  0.00    +0.000 C 
ATOM     34  H   UNL     1      -5.736  13.069  16.898  0.00  0.00    +0.000 HD
ENDBRANCH  29  30
ENDBRANCH  22  24
ENDBRANCH   7  22
TORSDOF 6
ENDMDL
MODEL 8
REMARK VINA RESULT:      -7.8      2.901      8.153
REMARK  Name = 
REMARK  7 active torsions:
REMARK  status: ('A' for Active; 'I' for Inactive)
REMARK    1  A    between atoms: C_2  and  C_3
REMARK    2  A    between atoms: N_5  and  C_6
REMARK    3  A    between atoms: C_10  and  N_11
REMARK    4  A    between atoms: C_17  and  N_18
REMARK    5  A    between atoms: N_18  and  C_19
REMARK    6  A    between atoms: C_24  and  C_25
REMARK    7  A    between atoms: N_27  and  C_28
REMARK                            x       y       z     vdW  Elec       q    Type
REMARK                         _______ _______ _______ _____ _____    ______ ____
ROOT
ATOM      1  N   UNL     1       3.376   4.980  18.709  0.00  0.00    +0.000 N 
ATOM      2  C   UNL     1       2.671   5.970  19.400  0.00  0.00    +0.000 A 
ATOM      3  N   UNL     1       2.038   5.610  20.523  0.00  0.00    +0.000 NA
ATOM      4  C   UNL     1       1.297   6.565  21.129  0.00  0.00    +0.000 A 
ATOM      5  C   UNL     1       1.164   7.853  20.657  0.00  0.00    +0.000 A 
ATOM      6 CL   UNL     1       0.128   8.977  21.436  0.00  0.00    +0.000 Cl
ATOM      7  C   UNL     1       1.866   8.149  19.501  0.00  0.00    +0.000 A 
ATOM      8  N   UNL     1       2.617   7.211  18.893  0.00  0.00    +0.000 NA
ATOM      9  H   UNL     1       3.459   4.176  19.321  0.00  0.00    +0.000 HD
ENDROOT
BRANCH   1  14
ATOM     10  C   UNL     1       5.751   4.649  15.861  0.00  0.00    +0.000 A 
ATOM     11  C   UNL     1       6.816   5.429  16.325  0.00  0.00    +0.000 A 
ATOM     12  C   UNL     1       6.749   6.063  17.561  0.00  0.00    +0.000 A 
ATOM     13  C   UNL     1       5.611   5.931  18.350  0.00  0.00    +0.000 A 
ATOM     14  C   UNL     1       4.514   5.183  17.902  0.00  0.00    +0.000 A 
ATOM     15  C   UNL     1       4.598   4.544  16.653  0.00  0.00    +0.000 A 
BRANCH  10  18
ATOM     16  C   UNL     1       6.559   4.336  13.535  0.00  0.00    +0.000 C 
ATOM     17  O   UNL     1       7.368   5.254  13.491  0.00  0.00    +0.000 OA
ATOM     18  N   UNL     1       5.787   3.968  14.623  0.00  0.00    +0.000 N 
ATOM     19  H   UNL     1       5.274   3.099  14.572  0.00  0.00    +0.000 HD
BRANCH  16  21
ATOM     20  C   UNL     1       5.119   3.234  11.896  0.00  0.00    +0.000 C 
ATOM     21  C   UNL     1       6.364   3.445  12.359  0.00  0.00    +0.000 C 
ENDBRANCH  16  21
ENDBRANCH  10  18
ENDBRANCH   1  14
BRANCH   7  22
ATOM     22  N   UNL     1       1.872   9.456  18.952  0.00  0.00    +0.000 N 
ATOM     23  H   UNL     1       2.531  10.063  19.438  0.00  0.00    +0.000 HD
BRANCH  22  24
ATOM     24  C   UNL     1       0.713  10.196  18.575  0.00  0.00    +0.000 A 
ATOM     25  C   UNL     1      -0.314   9.578  17.829  0.00  0.00    +0.000 A 
ATOM     26  C   UNL     1      -1.505  10.240  17.524  0.00  0.00    +0.000 A 
ATOM     27  C   UNL     1      -1.706  11.540  17.964  0.00  0.00    +0.000 A 
ATOM     28  C   UNL     1      -0.708  12.177  18.700  0.00  0.00    +0.000 A 
ATOM     29  C   UNL     1       0.500  11.521  19.009  0.00  0.00    +0.000 A 
BRANCH  29  30
ATOM     30  C   UNL     1       1.483  12.331  19.785  0.00  0.00    +0.000 C 
ATOM     31  O   UNL     1       1.624  12.132  20.988  0.00  0.00    +0.000 OA
ATOM     32  N   UNL     1       2.167  13.314  19.105  0.00  0.00    +0.000 N 
ATOM     33  C   UNL     1       3.087  14.194  19.781  0.00  0.00    +0.000 C 
ATOM     34  H   UNL     1       2.011  13.415  18.107  0.00  0.00    +0.000 HD
ENDBRANCH  29  30
ENDBRANCH  22  24
ENDBRANCH   7  22
TORSDOF 6
ENDMDL
MODEL 9
REMARK VINA RESULT:      -7.8      3.999      9.845
REMARK  Name = 
REMARK  7 active torsions:
REMARK  status: ('A' for Active; 'I' for Inactive)
REMARK    1  A    between atoms: C_2  and  C_3
REMARK    2  A    between atoms: N_5  and  C_6
REMARK    3  A    between atoms: C_10  and  N_11
REMARK    4  A    between atoms: C_17  and  N_18
REMARK    5  A    between atoms: N_18  and  C_19
REMARK    6  A    between atoms: C_24  and  C_25
REMARK    7  A    between atoms: N_27  and  C_28
REMARK                            x       y       z     vdW  Elec       q    Type
REMARK                         _______ _______ _______ _____ _____    ______ ____
ROOT
ATOM      1  N   UNL     1       0.467   9.206  21.312  0.00  0.00    +0.000 N 
ATOM      2  C   UNL     1      -0.241  10.391  21.533  0.00  0.00    +0.000 A 
ATOM      3  N   UNL     1      -0.299  10.852  22.789  0.00  0.00    +0.000 NA
ATOM      4  C   UNL     1      -1.056  11.954  22.990  0.00  0.00    +0.000 A 
ATOM      5  C   UNL     1      -1.752  12.604  21.994  0.00  0.00    +0.000 A 
ATOM      6 CL   UNL     1      -2.766  13.942  22.353  0.00  0.00    +0.000 Cl
ATOM      7  C   UNL     1      -1.623  12.075  20.722  0.00  0.00    +0.000 A 
ATOM      8  N   UNL     1      -0.864  10.985  20.504  0.00  0.00    +0.000 NA
ATOM      9  H   UNL     1       1.010   9.010  22.145  0.00  0.00    +0.000 HD
ENDROOT
BRANCH   1  14
ATOM     10  C   UNL     1       2.592   7.287  18.932  0.00  0.00    +0.000 A 
ATOM     11  C   UNL     1       2.590   8.154  17.833  0.00  0.00    +0.000 A 
ATOM     12  C   UNL     1       1.891   9.355  17.874  0.00  0.00    +0.000 A 
ATOM     13  C   UNL     1       1.176   9.705  19.015  0.00  0.00    +0.000 A 
ATOM     14  C   UNL     1       1.131   8.846  20.121  0.00  0.00    +0.000 A 
ATOM     15  C   UNL     1       1.845   7.637  20.067  0.00  0.00    +0.000 A 
BRANCH  10  18
ATOM     16  C   UNL     1       2.837   4.865  18.448  0.00  0.00    +0.000 C 
ATOM     17  O   UNL     1       1.769   4.677  17.877  0.00  0.00    +0.000 OA
ATOM     18  N   UNL     1       3.308   6.068  18.941  0.00  0.00    +0.000 N 
ATOM     19  H   UNL     1       4.268   6.113  19.253  0.00  0.00    +0.000 HD
BRANCH  16  21
ATOM     20  C   UNL     1       3.610   2.863  19.618  0.00  0.00    +0.000 C 
ATOM     21  C   UNL     1       3.804   3.748  18.623  0.00  0.00    +0.000 C 
ENDBRANCH  16  21
ENDBRANCH  10  18
ENDBRANCH   1  14
BRANCH   7  22
ATOM     22  N   UNL     1      -2.229  12.691  19.598  0.00  0.00    +0.000 N 
ATOM     23  H   UNL     1      -2.839  13.460  19.876  0.00  0.00    +0.000 HD
BRANCH  22  24
ATOM     24  C   UNL     1      -2.791  12.001  18.484  0.00  0.00    +0.000 A 
ATOM     25  C   UNL     1      -1.955  11.506  17.459  0.00  0.00    +0.000 A 
ATOM     26  C   UNL     1      -2.457  10.743  16.402  0.00  0.00    +0.000 A 
ATOM     27  C   UNL     1      -3.810  10.446  16.344  0.00  0.00    +0.000 A 
ATOM     28  C   UNL     1      -4.660  10.923  17.341  0.00  0.00    +0.000 A 
ATOM     29  C   UNL     1      -4.166  11.699  18.409  0.00  0.00    +0.000 A 
BRANCH  29  30
ATOM     30  C   UNL     1      -5.193  12.157  19.390  0.00  0.00    +0.000 C 
ATOM     31  O   UNL     1      -5.069  13.248  19.939  0.00  0.00    +0.000 OA
ATOM     32  N   UNL     1      -6.229  11.293  19.668  0.00  0.00    +0.000 N 
ATOM     33  C   UNL     1      -7.233  11.616  20.651  0.00  0.00    +0.000 C 
ATOM     34  H   UNL     1      -6.277  10.412  19.167  0.00  0.00    +0.000 HD
ENDBRANCH  29  30
ENDBRANCH  22  24
ENDBRANCH   7  22
TORSDOF 6
ENDMDL
