MODEL 1
REMARK VINA RESULT:      -7.7      0.000      0.000
REMARK  Name = 
REMARK  8 active torsions:
REMARK  status: ('A' for Active; 'I' for Inactive)
REMARK    1  A    between atoms: C_2  and  O_3
REMARK    2  A    between atoms: C_2  and  C_4
REMARK    3  A    between atoms: C_4  and  C_5
REMARK    4  A    between atoms: C_5  and  C_6
REMARK    5  A    between atoms: N_8  and  N_9
REMARK    6  A    between atoms: C_10  and  C_12
REMARK    7  A    between atoms: C_12  and  O_13
REMARK    8  A    between atoms: O_13  and  C_14
REMARK                            x       y       z     vdW  Elec       q    Type
REMARK                         _______ _______ _______ _____ _____    ______ ____
ROOT
ATOM      1  N   UNL     1       6.622   6.278  17.037  0.00  0.00    +0.000 N 
ATOM      2  C   UNL     1       6.934   5.433  15.991  0.00  0.00    +0.000 C 
ATOM      3  O   UNL     1       7.699   5.766  15.083  0.00  0.00    +0.000 OA
ATOM      4  H   UNL     1       5.949   6.054  17.766  0.00  0.00    +0.000 HD
ENDROOT
BRANCH   1   7
ATOM      5  C   UNL     1       8.015   7.992  17.965  0.00  0.00    +0.000 C 
ATOM      6  O   UNL     1       8.409   7.280  18.890  0.00  0.00    +0.000 OA
ATOM      7  N   UNL     1       7.132   7.577  16.997  0.00  0.00    +0.000 N 
ATOM      8  H   UNL     1       6.748   8.193  16.278  0.00  0.00    +0.000 HD
BRANCH   5   9
ATOM      9  C   UNL     1       8.476   9.422  17.784  0.00  0.00    +0.000 C 
BRANCH   9  10
ATOM     10  C   UNL     1       9.133   9.949  19.049  0.00  0.00    +0.000 C 
BRANCH  10  12
ATOM     11  O   UNL     1       9.379  12.305  19.476  0.00  0.00    +0.000 OA
ATOM     12  C   UNL     1       9.701  11.326  18.820  0.00  0.00    +0.000 C 
BRANCH  12  13
ATOM     13  O   UNL     1      10.564  11.394  17.783  0.00  0.00    +0.000 OA
ATOM     14  H   UNL     1      11.458  11.719  18.038  0.00  0.00    +0.000 HD
ENDBRANCH  12  13
ENDBRANCH  10  12
ENDBRANCH   9  10
ENDBRANCH   5   9
ENDBRANCH   1   7
BRANCH   2  15
ATOM     15  C   UNL     1       6.230   4.084  16.022  0.00  0.00    +0.000 C 
BRANCH  15  16
ATOM     16  O   UNL     1       4.817   4.232  15.929  0.00  0.00    +0.000 OA
BRANCH  16  17
ATOM     17  C   UNL     1       4.100   3.711  16.982  0.00  0.00    +0.000 A 
ATOM     18  C   UNL     1       4.047   2.342  17.247  0.00  0.00    +0.000 A 
ATOM     19  C   UNL     1       3.281   1.855  18.304  0.00  0.00    +0.000 A 
ATOM     20  C   UNL     1       2.578   2.719  19.145  0.00  0.00    +0.000 A 
ATOM     21  C   UNL     1       1.805   2.177  20.184  0.00  0.00    +0.000 A 
ATOM     22  C   UNL     1       1.106   3.004  21.060  0.00  0.00    +0.000 A 
ATOM     23  C   UNL     1       1.188   4.382  20.916  0.00  0.00    +0.000 A 
ATOM     24  C   UNL     1       1.951   4.932  19.880  0.00  0.00    +0.000 A 
ATOM     25  C   UNL     1       2.657   4.121  18.953  0.00  0.00    +0.000 A 
ATOM     26  C   UNL     1       3.430   4.599  17.847  0.00  0.00    +0.000 A 
ATOM     27 BR   UNL     1       3.545   6.479  17.490  0.00  0.00    +0.000 Br
ENDBRANCH  16  17
ENDBRANCH  15  16
ENDBRANCH   2  15
TORSDOF 8
ENDMDL
MODEL 2
REMARK VINA RESULT:      -7.7      1.239      1.569
REMARK  Name = 
REMARK  8 active torsions:
REMARK  status: ('A' for Active; 'I' for Inactive)
REMARK    1  A    between atoms: C_2  and  O_3
REMARK    2  A    between atoms: C_2  and  C_4
REMARK    3  A    between atoms: C_4  and  C_5
REMARK    4  A    between atoms: C_5  and  C_6
REMARK    5  A    between atoms: N_8  and  N_9
REMARK    6  A    between atoms: C_10  and  C_12
REMARK    7  A    between atoms: C_12  and  O_13
REMARK    8  A    between atoms: O_13  and  C_14
REMARK                            x       y       z     vdW  Elec       q    Type
REMARK                         _______ _______ _______ _____ _____    ______ ____
ROOT
ATOM      1  N   UNL     1       7.450   7.251  17.120  0.00  0.00    +0.000 N 
ATOM      2  C   UNL     1       7.251   5.889  17.225  0.00  0.00    +0.000 C 
ATOM      3  O   UNL     1       7.660   5.238  18.189  0.00  0.00    +0.000 OA
ATOM      4  H   UNL     1       7.179   7.803  16.310  0.00  0.00    +0.000 HD
ENDROOT
BRANCH   1   7
ATOM      5  C   UNL     1       8.318   9.245  18.126  0.00  0.00    +0.000 C 
ATOM      6  O   UNL     1       7.760   9.989  17.318  0.00  0.00    +0.000 OA
ATOM      7  N   UNL     1       8.218   7.873  18.106  0.00  0.00    +0.000 N 
ATOM      8  H   UNL     1       8.744   7.257  18.727  0.00  0.00    +0.000 HD
BRANCH   5   9
ATOM      9  C   UNL     1       9.183   9.766  19.252  0.00  0.00    +0.000 C 
BRANCH   9  10
ATOM     10  C   UNL     1       9.740  11.142  18.921  0.00  0.00    +0.000 C 
BRANCH  10  12
ATOM     11  O   UNL     1       9.369  13.241  20.039  0.00  0.00    +0.000 OA
ATOM     12  C   UNL     1       9.650  12.054  20.118  0.00  0.00    +0.000 C 
BRANCH  12  13
ATOM     13  O   UNL     1       9.961  11.454  21.286  0.00  0.00    +0.000 OA
ATOM     14  H   UNL     1       9.360  11.701  22.027  0.00  0.00    +0.000 HD
ENDBRANCH  12  13
ENDBRANCH  10  12
ENDBRANCH   9  10
ENDBRANCH   5   9
ENDBRANCH   1   7
BRANCH   2  15
ATOM     15  C   UNL     1       6.533   5.251  16.044  0.00  0.00    +0.000 C 
BRANCH  15  16
ATOM     16  O   UNL     1       5.139   5.536  16.065  0.00  0.00    +0.000 OA
BRANCH  16  17
ATOM     17  C   UNL     1       4.384   4.721  16.878  0.00  0.00    +0.000 A 
ATOM     18  C   UNL     1       4.488   3.330  16.846  0.00  0.00    +0.000 A 
ATOM     19  C   UNL     1       3.680   2.541  17.662  0.00  0.00    +0.000 A 
ATOM     20  C   UNL     1       2.774   3.116  18.556  0.00  0.00    +0.000 A 
ATOM     21  C   UNL     1       1.969   2.277  19.341  0.00  0.00    +0.000 A 
ATOM     22  C   UNL     1       1.069   2.810  20.261  0.00  0.00    +0.000 A 
ATOM     23  C   UNL     1       0.978   4.186  20.416  0.00  0.00    +0.000 A 
ATOM     24  C   UNL     1       1.772   5.030  19.633  0.00  0.00    +0.000 A 
ATOM     25  C   UNL     1       2.683   4.526  18.668  0.00  0.00    +0.000 A 
ATOM     26  C   UNL     1       3.505   5.318  17.804  0.00  0.00    +0.000 A 
ATOM     27 BR   UNL     1       3.403   7.231  17.859  0.00  0.00    +0.000 Br
ENDBRANCH  16  17
ENDBRANCH  15  16
ENDBRANCH   2  15
TORSDOF 8
ENDMDL
MODEL 3
REMARK VINA RESULT:      -7.6      3.093      5.984
REMARK  Name = 
REMARK  8 active torsions:
REMARK  status: ('A' for Active; 'I' for Inactive)
REMARK    1  A    between atoms: C_2  and  O_3
REMARK    2  A    between atoms: C_2  and  C_4
REMARK    3  A    between atoms: C_4  and  C_5
REMARK    4  A    between atoms: C_5  and  C_6
REMARK    5  A    between atoms: N_8  and  N_9
REMARK    6  A    between atoms: C_10  and  C_12
REMARK    7  A    between atoms: C_12  and  O_13
REMARK    8  A    between atoms: O_13  and  C_14
REMARK                            x       y       z     vdW  Elec       q    Type
REMARK                         _______ _______ _______ _____ _____    ______ ____
ROOT
ATOM      1  N   UNL     1       7.511   5.507  15.426  0.00  0.00    +0.000 N 
ATOM      2  C   UNL     1       6.484   6.264  15.952  0.00  0.00    +0.000 C 
ATOM      3  O   UNL     1       5.532   6.648  15.268  0.00  0.00    +0.000 OA
ATOM      4  H   UNL     1       8.337   5.228  15.950  0.00  0.00    +0.000 HD
ENDROOT
BRANCH   1   7
ATOM      5  C   UNL     1       6.754   4.206  13.562  0.00  0.00    +0.000 C 
ATOM      6  O   UNL     1       6.078   3.451  14.263  0.00  0.00    +0.000 OA
ATOM      7  N   UNL     1       7.494   5.255  14.053  0.00  0.00    +0.000 N 
ATOM      8  H   UNL     1       8.114   5.828  13.479  0.00  0.00    +0.000 HD
BRANCH   5   9
ATOM      9  C   UNL     1       6.837   4.063  12.059  0.00  0.00    +0.000 C 
BRANCH   9  10
ATOM     10  C   UNL     1       7.145   2.628  11.661  0.00  0.00    +0.000 C 
BRANCH  10  12
ATOM     11  O   UNL     1       4.776   2.394  11.300  0.00  0.00    +0.000 OA
ATOM     12  C   UNL     1       5.872   1.863  11.402  0.00  0.00    +0.000 C 
BRANCH  12  13
ATOM     13  O   UNL     1       6.043   0.525  11.345  0.00  0.00    +0.000 OA
ATOM     14  H   UNL     1       6.563   0.164  12.100  0.00  0.00    +0.000 HD
ENDBRANCH  12  13
ENDBRANCH  10  12
ENDBRANCH   9  10
ENDBRANCH   5   9
ENDBRANCH   1   7
BRANCH   2  15
ATOM     15  C   UNL     1       6.640   6.625  17.423  0.00  0.00    +0.000 C 
BRANCH  15  16
ATOM     16  O   UNL     1       5.379   6.874  18.035  0.00  0.00    +0.000 OA
BRANCH  16  17
ATOM     17  C   UNL     1       4.781   5.779  18.616  0.00  0.00    +0.000 A 
ATOM     18  C   UNL     1       5.478   4.602  18.890  0.00  0.00    +0.000 A 
ATOM     19  C   UNL     1       4.825   3.505  19.448  0.00  0.00    +0.000 A 
ATOM     20  C   UNL     1       3.470   3.564  19.782  0.00  0.00    +0.000 A 
ATOM     21  C   UNL     1       2.854   2.426  20.323  0.00  0.00    +0.000 A 
ATOM     22  C   UNL     1       1.510   2.449  20.692  0.00  0.00    +0.000 A 
ATOM     23  C   UNL     1       0.776   3.615  20.537  0.00  0.00    +0.000 A 
ATOM     24  C   UNL     1       1.380   4.754  19.992  0.00  0.00    +0.000 A 
ATOM     25  C   UNL     1       2.739   4.762  19.583  0.00  0.00    +0.000 A 
ATOM     26  C   UNL     1       3.423   5.869  18.987  0.00  0.00    +0.000 A 
ATOM     27 BR   UNL     1       2.491   7.507  18.638  0.00  0.00    +0.000 Br
ENDBRANCH  16  17
ENDBRANCH  15  16
ENDBRANCH   2  15
TORSDOF 8
ENDMDL
MODEL 4
REMARK VINA RESULT:      -7.6      3.128      5.654
REMARK  Name = 
REMARK  8 active torsions:
REMARK  status: ('A' for Active; 'I' for Inactive)
REMARK    1  A    between atoms: C_2  and  O_3
REMARK    2  A    between atoms: C_2  and  C_4
REMARK    3  A    between atoms: C_4  and  C_5
REMARK    4  A    between atoms: C_5  and  C_6
REMARK    5  A    between atoms: N_8  and  N_9
REMARK    6  A    between atoms: C_10  and  C_12
REMARK    7  A    between atoms: C_12  and  O_13
REMARK    8  A    between atoms: O_13  and  C_14
REMARK                            x       y       z     vdW  Elec       q    Type
REMARK                         _______ _______ _______ _____ _____    ______ ____
ROOT
ATOM      1  N   UNL     1       7.316   6.013  16.341  0.00  0.00    +0.000 N 
ATOM      2  C   UNL     1       7.653   5.243  17.436  0.00  0.00    +0.000 C 
ATOM      3  O   UNL     1       8.204   4.145  17.323  0.00  0.00    +0.000 OA
ATOM      4  H   UNL     1       6.808   6.892  16.400  0.00  0.00    +0.000 HD
ENDROOT
BRANCH   1   7
ATOM      5  C   UNL     1       6.488   4.911  14.382  0.00  0.00    +0.000 C 
ATOM      6  O   UNL     1       5.333   4.855  14.806  0.00  0.00    +0.000 OA
ATOM      7  N   UNL     1       7.536   5.471  15.073  0.00  0.00    +0.000 N 
ATOM      8  H   UNL     1       8.505   5.445  14.753  0.00  0.00    +0.000 HD
BRANCH   5   9
ATOM      9  C   UNL     1       6.885   4.369  13.026  0.00  0.00    +0.000 C 
BRANCH   9  10
ATOM     10  C   UNL     1       5.844   3.394  12.501  0.00  0.00    +0.000 C 
BRANCH  10  12
ATOM     11  O   UNL     1       7.641   2.351  11.284  0.00  0.00    +0.000 OA
ATOM     12  C   UNL     1       6.501   2.284  11.719  0.00  0.00    +0.000 C 
BRANCH  12  13
ATOM     13  O   UNL     1       5.695   1.225  11.495  0.00  0.00    +0.000 OA
ATOM     14  H   UNL     1       5.627   0.614  12.266  0.00  0.00    +0.000 HD
ENDBRANCH  12  13
ENDBRANCH  10  12
ENDBRANCH   9  10
ENDBRANCH   5   9
ENDBRANCH   1   7
BRANCH   2  15
ATOM     15  C   UNL     1       7.253   5.830  18.782  0.00  0.00    +0.000 C 
BRANCH  15  16
ATOM     16  O   UNL     1       5.873   6.181  18.809  0.00  0.00    +0.000 OA
BRANCH  16  17
ATOM     17  C   UNL     1       5.000   5.128  18.957  0.00  0.00    +0.000 A 
ATOM     18  C   UNL     1       5.387   3.906  19.509  0.00  0.00    +0.000 A 
ATOM     19  C   UNL     1       4.479   2.854  19.609  0.00  0.00    +0.000 A 
ATOM     20  C   UNL     1       3.154   3.002  19.195  0.00  0.00    +0.000 A 
ATOM     21  C   UNL     1       2.284   1.906  19.298  0.00  0.00    +0.000 A 
ATOM     22  C   UNL     1       0.948   2.017  18.918  0.00  0.00    +0.000 A 
ATOM     23  C   UNL     1       0.467   3.231  18.447  0.00  0.00    +0.000 A 
ATOM     24  C   UNL     1       1.328   4.327  18.335  0.00  0.00    +0.000 A 
ATOM     25  C   UNL     1       2.700   4.246  18.689  0.00  0.00    +0.000 A 
ATOM     26  C   UNL     1       3.655   5.306  18.573  0.00  0.00    +0.000 A 
ATOM     27 BR   UNL     1       3.133   7.003  17.851  0.00  0.00    +0.000 Br
ENDBRANCH  16  17
ENDBRANCH  15  16
ENDBRANCH   2  15
TORSDOF 8
ENDMDL
MODEL 5
REMARK VINA RESULT:      -7.5      1.636      2.478
REMARK  Name = 
REMARK  8 active torsions:
REMARK  status: ('A' for Active; 'I' for Inactive)
REMARK    1  A    between atoms: C_2  and  O_3
REMARK    2  A    between atoms: C_2  and  C_4
REMARK    3  A    between atoms: C_4  and  C_5
REMARK    4  A    between atoms: C_5  and  C_6
REMARK    5  A    between atoms: N_8  and  N_9
REMARK    6  A    between atoms: C_10  and  C_12
REMARK    7  A    between atoms: C_12  and  O_13
REMARK    8  A    between atoms: O_13  and  C_14
REMARK                            x       y       z     vdW  Elec       q    Type
REMARK                         _______ _______ _______ _____ _____    ______ ____
ROOT
ATOM      1  N   UNL     1       7.701   8.512  17.508  0.00  0.00    +0.000 N 
ATOM      2  C   UNL     1       7.350   7.179  17.562  0.00  0.00    +0.000 C 
ATOM      3  O   UNL     1       7.743   6.431  18.459  0.00  0.00    +0.000 OA
ATOM      4  H   UNL     1       7.442   9.138  16.749  0.00  0.00    +0.000 HD
ENDROOT
BRANCH   1   7
ATOM      5  C   UNL     1       8.920  10.323  18.496  0.00  0.00    +0.000 C 
ATOM      6  O   UNL     1       8.449  11.162  17.728  0.00  0.00    +0.000 OA
ATOM      7  N   UNL     1       8.603   8.985  18.463  0.00  0.00    +0.000 N 
ATOM      8  H   UNL     1       9.054   8.281  19.048  0.00  0.00    +0.000 HD
BRANCH   5   9
ATOM      9  C   UNL     1       9.909  10.678  19.585  0.00  0.00    +0.000 C 
BRANCH   9  10
ATOM     10  C   UNL     1       9.853  12.162  19.912  0.00  0.00    +0.000 C 
BRANCH  10  12
ATOM     11  O   UNL     1       8.235  13.337  21.252  0.00  0.00    +0.000 OA
ATOM     12  C   UNL     1       9.016  12.404  21.142  0.00  0.00    +0.000 C 
BRANCH  12  13
ATOM     13  O   UNL     1       9.248  11.525  22.140  0.00  0.00    +0.000 OA
ATOM     14  H   UNL     1       8.469  10.961  22.355  0.00  0.00    +0.000 HD
ENDBRANCH  12  13
ENDBRANCH  10  12
ENDBRANCH   9  10
ENDBRANCH   5   9
ENDBRANCH   1   7
BRANCH   2  15
ATOM     15  C   UNL     1       6.481   6.696  16.408  0.00  0.00    +0.000 C 
BRANCH  15  16
ATOM     16  O   UNL     1       5.096   6.814  16.714  0.00  0.00    +0.000 OA
BRANCH  16  17
ATOM     17  C   UNL     1       4.475   5.646  17.092  0.00  0.00    +0.000 A 
ATOM     18  C   UNL     1       4.951   4.389  16.717  0.00  0.00    +0.000 A 
ATOM     19  C   UNL     1       4.272   3.232  17.093  0.00  0.00    +0.000 A 
ATOM     20  C   UNL     1       3.122   3.294  17.883  0.00  0.00    +0.000 A 
ATOM     21  C   UNL     1       2.463   2.102  18.219  0.00  0.00    +0.000 A 
ATOM     22  C   UNL     1       1.326   2.117  19.024  0.00  0.00    +0.000 A 
ATOM     23  C   UNL     1       0.847   3.324  19.513  0.00  0.00    +0.000 A 
ATOM     24  C   UNL     1       1.494   4.519  19.179  0.00  0.00    +0.000 A 
ATOM     25  C   UNL     1       2.640   4.546  18.342  0.00  0.00    +0.000 A 
ATOM     26  C   UNL     1       3.339   5.723  17.924  0.00  0.00    +0.000 A 
ATOM     27 BR   UNL     1       2.721   7.456  18.461  0.00  0.00    +0.000 Br
ENDBRANCH  16  17
ENDBRANCH  15  16
ENDBRANCH   2  15
TORSDOF 8
ENDMDL
MODEL 6
REMARK VINA RESULT:      -7.3      3.282      6.240
REMARK  Name = 
REMARK  8 active torsions:
REMARK  status: ('A' for Active; 'I' for Inactive)
REMARK    1  A    between atoms: C_2  and  O_3
REMARK    2  A    between atoms: C_2  and  C_4
REMARK    3  A    between atoms: C_4  and  C_5
REMARK    4  A    between atoms: C_5  and  C_6
REMARK    5  A    between atoms: N_8  and  N_9
REMARK    6  A    between atoms: C_10  and  C_12
REMARK    7  A    between atoms: C_12  and  O_13
REMARK    8  A    between atoms: O_13  and  C_14
REMARK                            x       y       z     vdW  Elec       q    Type
REMARK                         _______ _______ _______ _____ _____    ______ ____
ROOT
ATOM      1  N   UNL     1       6.153   4.434  15.188  0.00  0.00    +0.000 N 
ATOM      2  C   UNL     1       5.886   5.729  15.583  0.00  0.00    +0.000 C 
ATOM      3  O   UNL     1       5.162   6.481  14.926  0.00  0.00    +0.000 OA
ATOM      4  H   UNL     1       6.793   3.812  15.676  0.00  0.00    +0.000 HD
ENDROOT
BRANCH   1   7
ATOM      5  C   UNL     1       6.435   4.096  12.833  0.00  0.00    +0.000 C 
ATOM      6  O   UNL     1       7.591   4.521  12.831  0.00  0.00    +0.000 OA
ATOM      7  N   UNL     1       5.647   4.013  13.957  0.00  0.00    +0.000 N 
ATOM      8  H   UNL     1       4.665   3.734  13.942  0.00  0.00    +0.000 HD
BRANCH   5   9
ATOM      9  C   UNL     1       5.746   3.602  11.580  0.00  0.00    +0.000 C 
BRANCH   9  10
ATOM     10  C   UNL     1       5.294   2.158  11.737  0.00  0.00    +0.000 C 
BRANCH  10  12
ATOM     11  O   UNL     1       6.142   0.040  10.969  0.00  0.00    +0.000 OA
ATOM     12  C   UNL     1       6.358   1.211  11.243  0.00  0.00    +0.000 C 
BRANCH  12  13
ATOM     13  O   UNL     1       7.590   1.761  11.179  0.00  0.00    +0.000 OA
ATOM     14  H   UNL     1       8.311   1.138  11.429  0.00  0.00    +0.000 HD
ENDBRANCH  12  13
ENDBRANCH  10  12
ENDBRANCH   9  10
ENDBRANCH   5   9
ENDBRANCH   1   7
BRANCH   2  15
ATOM     15  C   UNL     1       6.588   6.169  16.860  0.00  0.00    +0.000 C 
BRANCH  15  16
ATOM     16  O   UNL     1       5.656   6.603  17.845  0.00  0.00    +0.000 OA
BRANCH  16  17
ATOM     17  C   UNL     1       4.984   5.598  18.502  0.00  0.00    +0.000 A 
ATOM     18  C   UNL     1       5.615   4.427  18.925  0.00  0.00    +0.000 A 
ATOM     19  C   UNL     1       4.889   3.420  19.557  0.00  0.00    +0.000 A 
ATOM     20  C   UNL     1       3.525   3.566  19.817  0.00  0.00    +0.000 A 
ATOM     21  C   UNL     1       2.835   2.514  20.438  0.00  0.00    +0.000 A 
ATOM     22  C   UNL     1       1.479   2.628  20.736  0.00  0.00    +0.000 A 
ATOM     23  C   UNL     1       0.805   3.801  20.431  0.00  0.00    +0.000 A 
ATOM     24  C   UNL     1       1.483   4.854  19.806  0.00  0.00    +0.000 A 
ATOM     25  C   UNL     1       2.858   4.766  19.464  0.00  0.00    +0.000 A 
ATOM     26  C   UNL     1       3.617   5.778  18.795  0.00  0.00    +0.000 A 
ATOM     27 BR   UNL     1       2.775   7.409  18.240  0.00  0.00    +0.000 Br
ENDBRANCH  16  17
ENDBRANCH  15  16
ENDBRANCH   2  15
TORSDOF 8
ENDMDL
MODEL 7
REMARK VINA RESULT:      -7.2      2.965     10.114
REMARK  Name = 
REMARK  8 active torsions:
REMARK  status: ('A' for Active; 'I' for Inactive)
REMARK    1  A    between atoms: C_2  and  O_3
REMARK    2  A    between atoms: C_2  and  C_4
REMARK    3  A    between atoms: C_4  and  C_5
REMARK    4  A    between atoms: C_5  and  C_6
REMARK    5  A    between atoms: N_8  and  N_9
REMARK    6  A    between atoms: C_10  and  C_12
REMARK    7  A    between atoms: C_12  and  O_13
REMARK    8  A    between atoms: O_13  and  C_14
REMARK                            x       y       z     vdW  Elec       q    Type
REMARK                         _______ _______ _______ _____ _____    ______ ____
ROOT
ATOM      1  N   UNL     1       6.984   7.878  17.092  0.00  0.00    +0.000 N 
ATOM      2  C   UNL     1       7.995   8.215  17.970  0.00  0.00    +0.000 C 
ATOM      3  O   UNL     1       8.430   7.421  18.807  0.00  0.00    +0.000 OA
ATOM      4  H   UNL     1       6.563   8.529  16.434  0.00  0.00    +0.000 HD
ENDROOT
BRANCH   1   7
ATOM      5  C   UNL     1       6.695   5.621  16.343  0.00  0.00    +0.000 C 
ATOM      6  O   UNL     1       7.478   5.750  15.401  0.00  0.00    +0.000 OA
ATOM      7  N   UNL     1       6.392   6.621  17.235  0.00  0.00    +0.000 N 
ATOM      8  H   UNL     1       5.684   6.534  17.966  0.00  0.00    +0.000 HD
BRANCH   5   9
ATOM      9  C   UNL     1       5.975   4.322  16.631  0.00  0.00    +0.000 C 
BRANCH   9  10
ATOM     10  C   UNL     1       4.922   4.508  17.712  0.00  0.00    +0.000 C 
BRANCH  10  12
ATOM     11  O   UNL     1       3.534   2.542  17.681  0.00  0.00    +0.000 OA
ATOM     12  C   UNL     1       4.433   3.173  18.214  0.00  0.00    +0.000 C 
BRANCH  12  13
ATOM     13  O   UNL     1       5.045   2.759  19.344  0.00  0.00    +0.000 OA
ATOM     14  H   UNL     1       4.755   1.867  19.643  0.00  0.00    +0.000 HD
ENDBRANCH  12  13
ENDBRANCH  10  12
ENDBRANCH   9  10
ENDBRANCH   5   9
ENDBRANCH   1   7
BRANCH   2  15
ATOM     15  C   UNL     1       8.494   9.648  17.855  0.00  0.00    +0.000 C 
BRANCH  15  16
ATOM     16  O   UNL     1       9.191  10.054  19.028  0.00  0.00    +0.000 OA
BRANCH  16  17
ATOM     17  C   UNL     1       9.911  11.221  18.911  0.00  0.00    +0.000 A 
ATOM     18  C   UNL     1      10.654  11.531  17.772  0.00  0.00    +0.000 A 
ATOM     19  C   UNL     1      11.396  12.709  17.709  0.00  0.00    +0.000 A 
ATOM     20  C   UNL     1      11.389  13.624  18.764  0.00  0.00    +0.000 A 
ATOM     21  C   UNL     1      12.169  14.786  18.661  0.00  0.00    +0.000 A 
ATOM     22  C   UNL     1      12.173  15.736  19.679  0.00  0.00    +0.000 A 
ATOM     23  C   UNL     1      11.384  15.540  20.804  0.00  0.00    +0.000 A 
ATOM     24  C   UNL     1      10.608  14.382  20.919  0.00  0.00    +0.000 A 
ATOM     25  C   UNL     1      10.596  13.381  19.913  0.00  0.00    +0.000 A 
ATOM     26  C   UNL     1       9.860  12.154  19.967  0.00  0.00    +0.000 A 
ATOM     27 BR   UNL     1       8.804  11.728  21.508  0.00  0.00    +0.000 Br
ENDBRANCH  16  17
ENDBRANCH  15  16
ENDBRANCH   2  15
TORSDOF 8
ENDMDL
MODEL 8
REMARK VINA RESULT:      -7.2      6.335      9.279
REMARK  Name = 
REMARK  8 active torsions:
REMARK  status: ('A' for Active; 'I' for Inactive)
REMARK    1  A    between atoms: C_2  and  O_3
REMARK    2  A    between atoms: C_2  and  C_4
REMARK    3  A    between atoms: C_4  and  C_5
REMARK    4  A    between atoms: C_5  and  C_6
REMARK    5  A    between atoms: N_8  and  N_9
REMARK    6  A    between atoms: C_10  and  C_12
REMARK    7  A    between atoms: C_12  and  O_13
REMARK    8  A    between atoms: O_13  and  C_14
REMARK                            x       y       z     vdW  Elec       q    Type
REMARK                         _______ _______ _______ _____ _____    ______ ____
ROOT
ATOM      1  N   UNL     1       2.092   7.801  20.968  0.00  0.00    +0.000 N 
ATOM      2  C   UNL     1       0.871   8.340  21.320  0.00  0.00    +0.000 C 
ATOM      3  O   UNL     1      -0.157   7.661  21.371  0.00  0.00    +0.000 OA
ATOM      4  H   UNL     1       2.943   8.347  20.859  0.00  0.00    +0.000 HD
ENDROOT
BRANCH   1   7
ATOM      5  C   UNL     1       2.834   6.098  19.455  0.00  0.00    +0.000 C 
ATOM      6  O   UNL     1       3.472   6.886  18.757  0.00  0.00    +0.000 OA
ATOM      7  N   UNL     1       2.122   6.462  20.574  0.00  0.00    +0.000 N 
ATOM      8  H   UNL     1       1.531   5.821  21.104  0.00  0.00    +0.000 HD
BRANCH   5   9
ATOM      9  C   UNL     1       2.769   4.616  19.160  0.00  0.00    +0.000 C 
BRANCH   9  10
ATOM     10  C   UNL     1       1.518   4.269  18.369  0.00  0.00    +0.000 C 
BRANCH  10  12
ATOM     11  O   UNL     1       0.304   2.196  18.517  0.00  0.00    +0.000 OA
ATOM     12  C   UNL     1       0.722   3.200  19.073  0.00  0.00    +0.000 C 
BRANCH  12  13
ATOM     13  O   UNL     1       0.466   3.476  20.369  0.00  0.00    +0.000 OA
ATOM     14  H   UNL     1       0.399   2.673  20.936  0.00  0.00    +0.000 HD
ENDBRANCH  12  13
ENDBRANCH  10  12
ENDBRANCH   9  10
ENDBRANCH   5   9
ENDBRANCH   1   7
BRANCH   2  15
ATOM     15  C   UNL     1       0.885   9.837  21.596  0.00  0.00    +0.000 C 
BRANCH  15  16
ATOM     16  O   UNL     1       0.987  10.589  20.392  0.00  0.00    +0.000 OA
BRANCH  16  17
ATOM     17  C   UNL     1      -0.207  10.861  19.765  0.00  0.00    +0.000 A 
ATOM     18  C   UNL     1      -1.166  11.711  20.318  0.00  0.00    +0.000 A 
ATOM     19  C   UNL     1      -2.377  11.933  19.666  0.00  0.00    +0.000 A 
ATOM     20  C   UNL     1      -2.650  11.345  18.429  0.00  0.00    +0.000 A 
ATOM     21  C   UNL     1      -3.892  11.584  17.822  0.00  0.00    +0.000 A 
ATOM     22  C   UNL     1      -4.196  11.035  16.579  0.00  0.00    +0.000 A 
ATOM     23  C   UNL     1      -3.254  10.256  15.923  0.00  0.00    +0.000 A 
ATOM     24  C   UNL     1      -2.015  10.006  16.523  0.00  0.00    +0.000 A 
ATOM     25  C   UNL     1      -1.678  10.528  17.799  0.00  0.00    +0.000 A 
ATOM     26  C   UNL     1      -0.450  10.294  18.498  0.00  0.00    +0.000 A 
ATOM     27 BR   UNL     1       0.894   9.160  17.736  0.00  0.00    +0.000 Br
ENDBRANCH  16  17
ENDBRANCH  15  16
ENDBRANCH   2  15
TORSDOF 8
ENDMDL
MODEL 9
REMARK VINA RESULT:      -7.2      4.757      7.295
REMARK  Name = 
REMARK  8 active torsions:
REMARK  status: ('A' for Active; 'I' for Inactive)
REMARK    1  A    between atoms: C_2  and  O_3
REMARK    2  A    between atoms: C_2  and  C_4
REMARK    3  A    between atoms: C_4  and  C_5
REMARK    4  A    between atoms: C_5  and  C_6
REMARK    5  A    between atoms: N_8  and  N_9
REMARK    6  A    between atoms: C_10  and  C_12
REMARK    7  A    between atoms: C_12  and  O_13
REMARK    8  A    between atoms: O_13  and  C_14
REMARK                            x       y       z     vdW  Elec       q    Type
REMARK                         _______ _______ _______ _____ _____    ______ ____
ROOT
ATOM      1  N   UNL     1       3.650   5.431  19.676  0.00  0.00    +0.000 N 
ATOM      2  C   UNL     1       2.312   5.225  19.945  0.00  0.00    +0.000 C 
ATOM      3  O   UNL     1       1.700   4.242  19.519  0.00  0.00    +0.000 OA
ATOM      4  H   UNL     1       4.165   6.260  19.962  0.00  0.00    +0.000 HD
ENDROOT
BRANCH   1   7
ATOM      5  C   UNL     1       4.468   4.864  17.497  0.00  0.00    +0.000 C 
ATOM      6  O   UNL     1       4.106   5.930  16.998  0.00  0.00    +0.000 OA
ATOM      7  N   UNL     1       4.287   4.532  18.819  0.00  0.00    +0.000 N 
ATOM      8  H   UNL     1       4.517   3.618  19.211  0.00  0.00    +0.000 HD
BRANCH   5   9
ATOM      9  C   UNL     1       5.172   3.788  16.700  0.00  0.00    +0.000 C 
BRANCH   9  10
ATOM     10  C   UNL     1       5.704   4.340  15.387  0.00  0.00    +0.000 C 
BRANCH  10  12
ATOM     11  O   UNL     1       7.665   5.588  14.760  0.00  0.00    +0.000 OA
ATOM     12  C   UNL     1       7.119   4.833  15.550  0.00  0.00    +0.000 C 
BRANCH  12  13
ATOM     13  O   UNL     1       7.753   4.321  16.627  0.00  0.00    +0.000 OA
ATOM     14  H   UNL     1       7.297   3.539  17.016  0.00  0.00    +0.000 HD
ENDBRANCH  12  13
ENDBRANCH  10  12
ENDBRANCH   9  10
ENDBRANCH   5   9
ENDBRANCH   1   7
BRANCH   2  15
ATOM     15  C   UNL     1       1.645   6.320  20.765  0.00  0.00    +0.000 C 
BRANCH  15  16
ATOM     16  O   UNL     1       2.125   7.610  20.401  0.00  0.00    +0.000 OA
BRANCH  16  17
ATOM     17  C   UNL     1       1.262   8.652  20.652  0.00  0.00    +0.000 A 
ATOM     18  C   UNL     1       0.734   8.897  21.920  0.00  0.00    +0.000 A 
ATOM     19  C   UNL     1      -0.164   9.943  22.123  0.00  0.00    +0.000 A 
ATOM     20  C   UNL     1      -0.530  10.794  21.078  0.00  0.00    +0.000 A 
ATOM     21  C   UNL     1      -1.453  11.821  21.329  0.00  0.00    +0.000 A 
ATOM     22  C   UNL     1      -1.828  12.706  20.321  0.00  0.00    +0.000 A 
ATOM     23  C   UNL     1      -1.271  12.582  19.057  0.00  0.00    +0.000 A 
ATOM     24  C   UNL     1      -0.355  11.558  18.794  0.00  0.00    +0.000 A 
ATOM     25  C   UNL     1       0.034  10.623  19.789  0.00  0.00    +0.000 A 
ATOM     26  C   UNL     1       0.935   9.527  19.596  0.00  0.00    +0.000 A 
ATOM     27 BR   UNL     1       1.700   9.197  17.870  0.00  0.00    +0.000 Br
ENDBRANCH  16  17
ENDBRANCH  15  16
ENDBRANCH   2  15
TORSDOF 8
ENDMDL
