MODEL 1
REMARK VINA RESULT:      -7.5      0.000      0.000
REMARK  Name = 
REMARK  1 active torsions:
REMARK  status: ('A' for Active; 'I' for Inactive)
REMARK    1  A    between atoms: C_7  and  C_8
REMARK                            x       y       z     vdW  Elec       q    Type
REMARK                         _______ _______ _______ _____ _____    ______ ____
ROOT
ATOM      1  C   UNL     1       0.680   2.628  19.153  0.00  0.00    +0.000 A 
ATOM      2  C   UNL     1       0.753   3.382  20.308  0.00  0.00    +0.000 A 
ATOM      3  N   UNL     1       1.686   4.332  20.530  0.00  0.00    +0.000 NA
ATOM      4  C   UNL     1       2.592   4.560  19.564  0.00  0.00    +0.000 A 
ATOM      5  C   UNL     1       3.562   5.528  19.759  0.00  0.00    +0.000 A 
ATOM      6  C   UNL     1       4.521   5.807  18.780  0.00  0.00    +0.000 A 
ATOM      7  C   UNL     1       4.547   5.122  17.553  0.00  0.00    +0.000 A 
ATOM      8  C   UNL     1       3.577   4.130  17.363  0.00  0.00    +0.000 A 
ATOM      9  C   UNL     1       2.606   3.848  18.347  0.00  0.00    +0.000 A 
ATOM     10  C   UNL     1       1.625   2.862  18.162  0.00  0.00    +0.000 A 
ENDROOT
BRANCH   7  11
ATOM     11  C   UNL     1       5.601   5.454  16.525  0.00  0.00    +0.000 C 
ATOM     12  C   UNL     1       7.043   5.404  16.976  0.00  0.00    +0.000 C 
ATOM     13  N   UNL     1       7.732   4.588  15.949  0.00  0.00    +0.000 NA
ATOM     14  C   UNL     1       7.044   4.840  14.674  0.00  0.00    +0.000 C 
ATOM     15  C   UNL     1       5.619   5.020  15.096  0.00  0.00    +0.000 C 
ATOM     16  C   UNL     1       5.137   6.398  15.413  0.00  0.00    +0.000 C 
ATOM     17  H   UNL     1       7.573   3.608  16.185  0.00  0.00    +0.000 HD
ENDBRANCH   7  11
TORSDOF 1
ENDMDL
MODEL 2
REMARK VINA RESULT:      -7.4      1.788      5.738
REMARK  Name = 
REMARK  1 active torsions:
REMARK  status: ('A' for Active; 'I' for Inactive)
REMARK    1  A    between atoms: C_7  and  C_8
REMARK                            x       y       z     vdW  Elec       q    Type
REMARK                         _______ _______ _______ _____ _____    ______ ____
ROOT
ATOM      1  C   UNL     1       8.193   6.812  18.710  0.00  0.00    +0.000 A 
ATOM      2  C   UNL     1       7.735   7.564  17.646  0.00  0.00    +0.000 A 
ATOM      3  N   UNL     1       6.554   7.353  17.027  0.00  0.00    +0.000 NA
ATOM      4  C   UNL     1       5.776   6.355  17.481  0.00  0.00    +0.000 A 
ATOM      5  C   UNL     1       4.559   6.112  16.870  0.00  0.00    +0.000 A 
ATOM      6  C   UNL     1       3.712   5.091  17.312  0.00  0.00    +0.000 A 
ATOM      7  C   UNL     1       4.054   4.264  18.396  0.00  0.00    +0.000 A 
ATOM      8  C   UNL     1       5.293   4.497  19.003  0.00  0.00    +0.000 A 
ATOM      9  C   UNL     1       6.149   5.529  18.561  0.00  0.00    +0.000 A 
ATOM     10  C   UNL     1       7.389   5.776  19.169  0.00  0.00    +0.000 A 
ENDROOT
BRANCH   7  11
ATOM     11  C   UNL     1       3.110   3.171  18.838  0.00  0.00    +0.000 C 
ATOM     12  C   UNL     1       2.529   3.284  20.229  0.00  0.00    +0.000 C 
ATOM     13  N   UNL     1       1.072   3.084  20.047  0.00  0.00    +0.000 NA
ATOM     14  C   UNL     1       0.908   2.158  18.918  0.00  0.00    +0.000 C 
ATOM     15  C   UNL     1       2.041   2.530  18.015  0.00  0.00    +0.000 C 
ATOM     16  C   UNL     1       3.343   1.814  18.170  0.00  0.00    +0.000 C 
ATOM     17  H   UNL     1       0.679   3.981  19.757  0.00  0.00    +0.000 HD
ENDBRANCH   7  11
TORSDOF 1
ENDMDL
MODEL 3
REMARK VINA RESULT:      -7.3      1.503      5.687
REMARK  Name = 
REMARK  1 active torsions:
REMARK  status: ('A' for Active; 'I' for Inactive)
REMARK    1  A    between atoms: C_7  and  C_8
REMARK                            x       y       z     vdW  Elec       q    Type
REMARK                         _______ _______ _______ _____ _____    ______ ____
ROOT
ATOM      1  C   UNL     1       6.393   4.355  14.720  0.00  0.00    +0.000 A 
ATOM      2  C   UNL     1       6.201   5.719  14.824  0.00  0.00    +0.000 A 
ATOM      3  N   UNL     1       5.392   6.299  15.737  0.00  0.00    +0.000 NA
ATOM      4  C   UNL     1       4.742   5.498  16.599  0.00  0.00    +0.000 A 
ATOM      5  C   UNL     1       3.906   6.059  17.548  0.00  0.00    +0.000 A 
ATOM      6  C   UNL     1       3.216   5.267  18.471  0.00  0.00    +0.000 A 
ATOM      7  C   UNL     1       3.338   3.867  18.483  0.00  0.00    +0.000 A 
ATOM      8  C   UNL     1       4.170   3.298  17.511  0.00  0.00    +0.000 A 
ATOM      9  C   UNL     1       4.870   4.093  16.580  0.00  0.00    +0.000 A 
ATOM     10  C   UNL     1       5.712   3.532  15.609  0.00  0.00    +0.000 A 
ENDROOT
BRANCH   7  11
ATOM     11  C   UNL     1       2.572   3.051  19.497  0.00  0.00    +0.000 C 
ATOM     12  C   UNL     1       3.370   2.408  20.607  0.00  0.00    +0.000 C 
ATOM     13  N   UNL     1       2.650   2.774  21.850  0.00  0.00    +0.000 NA
ATOM     14  C   UNL     1       1.224   2.864  21.504  0.00  0.00    +0.000 C 
ATOM     15  C   UNL     1       1.254   3.399  20.107  0.00  0.00    +0.000 C 
ATOM     16  C   UNL     1       1.276   2.429  18.971  0.00  0.00    +0.000 C 
ATOM     17  H   UNL     1       2.954   3.713  22.109  0.00  0.00    +0.000 HD
ENDBRANCH   7  11
TORSDOF 1
ENDMDL
MODEL 4
REMARK VINA RESULT:      -7.3      1.645      2.666
REMARK  Name = 
REMARK  1 active torsions:
REMARK  status: ('A' for Active; 'I' for Inactive)
REMARK    1  A    between atoms: C_7  and  C_8
REMARK                            x       y       z     vdW  Elec       q    Type
REMARK                         _______ _______ _______ _____ _____    ______ ____
ROOT
ATOM      1  C   UNL     1       1.170   3.850  20.693  0.00  0.00    +0.000 A 
ATOM      2  C   UNL     1       0.737   3.020  19.677  0.00  0.00    +0.000 A 
ATOM      3  N   UNL     1       1.403   2.838  18.517  0.00  0.00    +0.000 NA
ATOM      4  C   UNL     1       2.561   3.500  18.347  0.00  0.00    +0.000 A 
ATOM      5  C   UNL     1       3.270   3.335  17.170  0.00  0.00    +0.000 A 
ATOM      6  C   UNL     1       4.483   3.995  16.951  0.00  0.00    +0.000 A 
ATOM      7  C   UNL     1       5.041   4.855  17.913  0.00  0.00    +0.000 A 
ATOM      8  C   UNL     1       4.315   5.036  19.096  0.00  0.00    +0.000 A 
ATOM      9  C   UNL     1       3.093   4.369  19.322  0.00  0.00    +0.000 A 
ATOM     10  C   UNL     1       2.363   4.538  20.508  0.00  0.00    +0.000 A 
ENDROOT
BRANCH   7  11
ATOM     11  C   UNL     1       6.353   5.549  17.633  0.00  0.00    +0.000 C 
ATOM     12  C   UNL     1       6.343   6.650  16.598  0.00  0.00    +0.000 C 
ATOM     13  N   UNL     1       7.032   7.788  17.249  0.00  0.00    +0.000 NA
ATOM     14  C   UNL     1       8.038   7.214  18.154  0.00  0.00    +0.000 C 
ATOM     15  C   UNL     1       7.372   5.966  18.642  0.00  0.00    +0.000 C 
ATOM     16  C   UNL     1       7.597   4.695  17.890  0.00  0.00    +0.000 C 
ATOM     17  H   UNL     1       6.343   8.264  17.832  0.00  0.00    +0.000 HD
ENDBRANCH   7  11
TORSDOF 1
ENDMDL
MODEL 5
REMARK VINA RESULT:      -7.2      1.014      1.880
REMARK  Name = 
REMARK  1 active torsions:
REMARK  status: ('A' for Active; 'I' for Inactive)
REMARK    1  A    between atoms: C_7  and  C_8
REMARK                            x       y       z     vdW  Elec       q    Type
REMARK                         _______ _______ _______ _____ _____    ______ ____
ROOT
ATOM      1  C   UNL     1       1.822   3.649  21.536  0.00  0.00    +0.000 A 
ATOM      2  C   UNL     1       1.081   2.734  20.814  0.00  0.00    +0.000 A 
ATOM      3  N   UNL     1       1.298   2.449  19.511  0.00  0.00    +0.000 NA
ATOM      4  C   UNL     1       2.299   3.092  18.886  0.00  0.00    +0.000 A 
ATOM      5  C   UNL     1       2.548   2.823  17.552  0.00  0.00    +0.000 A 
ATOM      6  C   UNL     1       3.584   3.460  16.861  0.00  0.00    +0.000 A 
ATOM      7  C   UNL     1       4.422   4.400  17.485  0.00  0.00    +0.000 A 
ATOM      8  C   UNL     1       4.159   4.685  18.831  0.00  0.00    +0.000 A 
ATOM      9  C   UNL     1       3.116   4.043  19.532  0.00  0.00    +0.000 A 
ATOM     10  C   UNL     1       2.851   4.316  20.882  0.00  0.00    +0.000 A 
ENDROOT
BRANCH   7  11
ATOM     11  C   UNL     1       5.527   5.065  16.701  0.00  0.00    +0.000 C 
ATOM     12  C   UNL     1       6.937   4.896  17.218  0.00  0.00    +0.000 C 
ATOM     13  N   UNL     1       7.724   4.469  16.037  0.00  0.00    +0.000 NA
ATOM     14  C   UNL     1       7.110   5.108  14.864  0.00  0.00    +0.000 C 
ATOM     15  C   UNL     1       5.656   5.117  15.214  0.00  0.00    +0.000 C 
ATOM     16  C   UNL     1       5.098   6.310  15.920  0.00  0.00    +0.000 C 
ATOM     17  H   UNL     1       7.589   3.463  15.933  0.00  0.00    +0.000 HD
ENDBRANCH   7  11
TORSDOF 1
ENDMDL
MODEL 6
REMARK VINA RESULT:      -7.2      1.641      6.046
REMARK  Name = 
REMARK  1 active torsions:
REMARK  status: ('A' for Active; 'I' for Inactive)
REMARK    1  A    between atoms: C_7  and  C_8
REMARK                            x       y       z     vdW  Elec       q    Type
REMARK                         _______ _______ _______ _____ _____    ______ ____
ROOT
ATOM      1  C   UNL     1       7.001   4.155  12.418  0.00  0.00    +0.000 A 
ATOM      2  C   UNL     1       7.919   5.045  12.941  0.00  0.00    +0.000 A 
ATOM      3  N   UNL     1       7.874   5.517  14.206  0.00  0.00    +0.000 NA
ATOM      4  C   UNL     1       6.879   5.087  15.002  0.00  0.00    +0.000 A 
ATOM      5  C   UNL     1       6.804   5.550  16.303  0.00  0.00    +0.000 A 
ATOM      6  C   UNL     1       5.793   5.126  17.171  0.00  0.00    +0.000 A 
ATOM      7  C   UNL     1       4.807   4.209  16.767  0.00  0.00    +0.000 A 
ATOM      8  C   UNL     1       4.872   3.754  15.444  0.00  0.00    +0.000 A 
ATOM      9  C   UNL     1       5.893   4.178  14.567  0.00  0.00    +0.000 A 
ATOM     10  C   UNL     1       5.970   3.721  13.243  0.00  0.00    +0.000 A 
ENDROOT
BRANCH   7  11
ATOM     11  C   UNL     1       3.733   3.780  17.736  0.00  0.00    +0.000 C 
ATOM     12  C   UNL     1       2.505   4.654  17.836  0.00  0.00    +0.000 C 
ATOM     13  N   UNL     1       1.363   3.718  17.715  0.00  0.00    +0.000 NA
ATOM     14  C   UNL     1       1.791   2.446  18.314  0.00  0.00    +0.000 C 
ATOM     15  C   UNL     1       3.245   2.387  17.964  0.00  0.00    +0.000 C 
ATOM     16  C   UNL     1       4.236   2.957  18.926  0.00  0.00    +0.000 C 
ATOM     17  H   UNL     1       1.219   3.545  16.720  0.00  0.00    +0.000 HD
ENDBRANCH   7  11
TORSDOF 1
ENDMDL
MODEL 7
REMARK VINA RESULT:      -7.2      1.923      5.932
REMARK  Name = 
REMARK  1 active torsions:
REMARK  status: ('A' for Active; 'I' for Inactive)
REMARK    1  A    between atoms: C_7  and  C_8
REMARK                            x       y       z     vdW  Elec       q    Type
REMARK                         _______ _______ _______ _____ _____    ______ ____
ROOT
ATOM      1  C   UNL     1       8.007   6.350  18.559  0.00  0.00    +0.000 A 
ATOM      2  C   UNL     1       7.642   7.069  17.438  0.00  0.00    +0.000 A 
ATOM      3  N   UNL     1       6.379   7.138  16.965  0.00  0.00    +0.000 NA
ATOM      4  C   UNL     1       5.422   6.472  17.632  0.00  0.00    +0.000 A 
ATOM      5  C   UNL     1       4.117   6.522  17.175  0.00  0.00    +0.000 A 
ATOM      6  C   UNL     1       3.085   5.852  17.840  0.00  0.00    +0.000 A 
ATOM      7  C   UNL     1       3.320   5.098  19.002  0.00  0.00    +0.000 A 
ATOM      8  C   UNL     1       4.644   5.032  19.455  0.00  0.00    +0.000 A 
ATOM      9  C   UNL     1       5.687   5.709  18.788  0.00  0.00    +0.000 A 
ATOM     10  C   UNL     1       7.014   5.656  19.240  0.00  0.00    +0.000 A 
ENDROOT
BRANCH   7  11
ATOM     11  C   UNL     1       2.177   4.389  19.687  0.00  0.00    +0.000 C 
ATOM     12  C   UNL     1       1.504   3.271  18.925  0.00  0.00    +0.000 C 
ATOM     13  N   UNL     1       1.455   2.139  19.880  0.00  0.00    +0.000 NA
ATOM     14  C   UNL     1       1.314   2.721  21.222  0.00  0.00    +0.000 C 
ATOM     15  C   UNL     1       2.113   3.983  21.123  0.00  0.00    +0.000 C 
ATOM     16  C   UNL     1       1.417   5.239  20.710  0.00  0.00    +0.000 C 
ATOM     17  H   UNL     1       2.365   1.679  19.848  0.00  0.00    +0.000 HD
ENDBRANCH   7  11
TORSDOF 1
ENDMDL
MODEL 8
REMARK VINA RESULT:      -7.1      1.894      5.901
REMARK  Name = 
REMARK  1 active torsions:
REMARK  status: ('A' for Active; 'I' for Inactive)
REMARK    1  A    between atoms: C_7  and  C_8
REMARK                            x       y       z     vdW  Elec       q    Type
REMARK                         _______ _______ _______ _____ _____    ______ ____
ROOT
ATOM      1  C   UNL     1       8.056   6.685  18.487  0.00  0.00    +0.000 A 
ATOM      2  C   UNL     1       7.504   7.339  17.402  0.00  0.00    +0.000 A 
ATOM      3  N   UNL     1       6.245   7.134  16.959  0.00  0.00    +0.000 NA
ATOM      4  C   UNL     1       5.484   6.244  17.620  0.00  0.00    +0.000 A 
ATOM      5  C   UNL     1       4.189   6.010  17.193  0.00  0.00    +0.000 A 
ATOM      6  C   UNL     1       3.357   5.101  17.854  0.00  0.00    +0.000 A 
ATOM      7  C   UNL     1       3.792   4.383  18.981  0.00  0.00    +0.000 A 
ATOM      8  C   UNL     1       5.109   4.606  19.402  0.00  0.00    +0.000 A 
ATOM      9  C   UNL     1       5.950   5.525  18.740  0.00  0.00    +0.000 A 
ATOM     10  C   UNL     1       7.268   5.761  19.161  0.00  0.00    +0.000 A 
ENDROOT
BRANCH   7  11
ATOM     11  C   UNL     1       2.861   3.410  19.662  0.00  0.00    +0.000 C 
ATOM     12  C   UNL     1       3.466   2.476  20.684  0.00  0.00    +0.000 C 
ATOM     13  N   UNL     1       2.587   2.594  21.871  0.00  0.00    +0.000 NA
ATOM     14  C   UNL     1       1.230   2.857  21.371  0.00  0.00    +0.000 C 
ATOM     15  C   UNL     1       1.481   3.696  20.157  0.00  0.00    +0.000 C 
ATOM     16  C   UNL     1       1.633   3.014  18.836  0.00  0.00    +0.000 C 
ATOM     17  H   UNL     1       2.883   3.426  22.383  0.00  0.00    +0.000 HD
ENDBRANCH   7  11
TORSDOF 1
ENDMDL
MODEL 9
REMARK VINA RESULT:      -7.0      1.227      5.708
REMARK  Name = 
REMARK  1 active torsions:
REMARK  status: ('A' for Active; 'I' for Inactive)
REMARK    1  A    between atoms: C_7  and  C_8
REMARK                            x       y       z     vdW  Elec       q    Type
REMARK                         _______ _______ _______ _____ _____    ______ ____
ROOT
ATOM      1  C   UNL     1       6.211   4.314  14.236  0.00  0.00    +0.000 A 
ATOM      2  C   UNL     1       7.206   5.138  14.724  0.00  0.00    +0.000 A 
ATOM      3  N   UNL     1       7.281   5.549  16.008  0.00  0.00    +0.000 NA
ATOM      4  C   UNL     1       6.333   5.123  16.861  0.00  0.00    +0.000 A 
ATOM      5  C   UNL     1       6.381   5.525  18.184  0.00  0.00    +0.000 A 
ATOM      6  C   UNL     1       5.423   5.102  19.110  0.00  0.00    +0.000 A 
ATOM      7  C   UNL     1       4.368   4.248  18.745  0.00  0.00    +0.000 A 
ATOM      8  C   UNL     1       4.309   3.856  17.402  0.00  0.00    +0.000 A 
ATOM      9  C   UNL     1       5.276   4.279  16.465  0.00  0.00    +0.000 A 
ATOM     10  C   UNL     1       5.229   3.883  15.120  0.00  0.00    +0.000 A 
ENDROOT
BRANCH   7  11
ATOM     11  C   UNL     1       3.354   3.817  19.777  0.00  0.00    +0.000 C 
ATOM     12  C   UNL     1       2.564   4.906  20.463  0.00  0.00    +0.000 C 
ATOM     13  N   UNL     1       1.151   4.471  20.359  0.00  0.00    +0.000 NA
ATOM     14  C   UNL     1       1.155   3.002  20.396  0.00  0.00    +0.000 C 
ATOM     15  C   UNL     1       2.421   2.655  19.677  0.00  0.00    +0.000 C 
ATOM     16  C   UNL     1       3.674   2.492  20.474  0.00  0.00    +0.000 C 
ATOM     17  H   UNL     1       0.819   4.745  19.434  0.00  0.00    +0.000 HD
ENDBRANCH   7  11
TORSDOF 1
ENDMDL
