MODEL 1
REMARK VINA RESULT:      -8.2      0.000      0.000
REMARK  Name = 
REMARK  4 active torsions:
REMARK  status: ('A' for Active; 'I' for Inactive)
REMARK    1  A    between atoms: C_2  and  C_18
REMARK    2  A    between atoms: N_3  and  C_4
REMARK    3  A    between atoms: N_8  and  C_9
REMARK    4  A    between atoms: C_9  and  C_10
REMARK                            x       y       z     vdW  Elec       q    Type
REMARK                         _______ _______ _______ _____ _____    ______ ____
ROOT
ATOM      1  C   UNL     1       3.615   2.332  19.313  0.00  0.00    +0.000 C 
ATOM      2  C   UNL     1       2.352   1.606  18.848  0.00  0.00    +0.000 C 
ATOM      3  C   UNL     1       1.283   2.601  18.396  0.00  0.00    +0.000 C 
ATOM      4  C   UNL     1       1.028   3.693  19.440  0.00  0.00    +0.000 C 
ATOM      5  N   UNL     1       2.269   4.364  19.872  0.00  0.00    +0.000 NA
ATOM      6  C   UNL     1       3.235   3.363  20.394  0.00  0.00    +0.000 C 
ENDROOT
BRANCH   1   9
ATOM      7  O   UNL     1       5.829   4.143  19.452  0.00  0.00    +0.000 OA
ATOM      8  C   UNL     1       5.356   3.845  18.361  0.00  0.00    +0.000 C 
ATOM      9  N   UNL     1       4.282   3.004  18.194  0.00  0.00    +0.000 N 
ATOM     10  H   UNL     1       3.860   2.852  17.288  0.00  0.00    +0.000 HD
BRANCH   8  11
ATOM     11  C   UNL     1       5.939   4.433  17.124  0.00  0.00    +0.000 A 
ATOM     12  C   UNL     1       6.742   5.568  17.240  0.00  0.00    +0.000 A 
ATOM     13  C   UNL     1       7.327   6.078  16.093  0.00  0.00    +0.000 A 
ATOM     14  N   UNL     1       7.164   5.529  14.870  0.00  0.00    +0.000 NA
ATOM     15  C   UNL     1       6.389   4.428  14.801  0.00  0.00    +0.000 A 
ATOM     16 CL   UNL     1       6.261   3.749  13.230  0.00  0.00    +0.000 Cl
ATOM     17  C   UNL     1       5.752   3.843  15.876  0.00  0.00    +0.000 A 
ENDBRANCH   8  11
ENDBRANCH   1   9
BRANCH   5  18
ATOM     18  C   UNL     1       1.950   5.385  20.898  0.00  0.00    +0.000 C 
BRANCH  18  19
ATOM     19  C   UNL     1       1.889   6.786  20.323  0.00  0.00    +0.000 A 
ATOM     20  C   UNL     1       1.224   7.808  21.019  0.00  0.00    +0.000 A 
ATOM     21  C   UNL     1       1.000   9.045  20.412  0.00  0.00    +0.000 A 
ATOM     22  C   UNL     1       1.464   9.274  19.118  0.00  0.00    +0.000 A 
ATOM     23 CL   UNL     1       1.117  10.767  18.338  0.00  0.00    +0.000 Cl
ATOM     24  C   UNL     1       2.183   8.292  18.440  0.00  0.00    +0.000 A 
ATOM     25  C   UNL     1       2.399   7.050  19.043  0.00  0.00    +0.000 A 
ENDBRANCH  18  19
ENDBRANCH   5  18
TORSDOF 4
ENDMDL
MODEL 2
REMARK VINA RESULT:      -8.0      0.197      1.007
REMARK  Name = 
REMARK  4 active torsions:
REMARK  status: ('A' for Active; 'I' for Inactive)
REMARK    1  A    between atoms: C_2  and  C_18
REMARK    2  A    between atoms: N_3  and  C_4
REMARK    3  A    between atoms: N_8  and  C_9
REMARK    4  A    between atoms: C_9  and  C_10
REMARK                            x       y       z     vdW  Elec       q    Type
REMARK                         _______ _______ _______ _____ _____    ______ ____
ROOT
ATOM      1  C   UNL     1       3.614   2.462  19.354  0.00  0.00    +0.000 C 
ATOM      2  C   UNL     1       2.336   1.737  18.928  0.00  0.00    +0.000 C 
ATOM      3  C   UNL     1       1.271   2.730  18.462  0.00  0.00    +0.000 C 
ATOM      4  C   UNL     1       1.044   3.856  19.478  0.00  0.00    +0.000 C 
ATOM      5  N   UNL     1       2.298   4.524  19.873  0.00  0.00    +0.000 NA
ATOM      6  C   UNL     1       3.261   3.528  20.409  0.00  0.00    +0.000 C 
ENDROOT
BRANCH   1   9
ATOM      7  O   UNL     1       5.946   4.122  19.393  0.00  0.00    +0.000 OA
ATOM      8  C   UNL     1       5.406   3.861  18.325  0.00  0.00    +0.000 C 
ATOM      9  N   UNL     1       4.272   3.093  18.206  0.00  0.00    +0.000 N 
ATOM     10  H   UNL     1       3.800   2.973  17.320  0.00  0.00    +0.000 HD
BRANCH   8  11
ATOM     11  C   UNL     1       5.969   4.415  17.063  0.00  0.00    +0.000 A 
ATOM     12  C   UNL     1       6.777   5.549  17.135  0.00  0.00    +0.000 A 
ATOM     13  C   UNL     1       7.344   6.027  15.966  0.00  0.00    +0.000 A 
ATOM     14  N   UNL     1       7.158   5.448  14.760  0.00  0.00    +0.000 NA
ATOM     15  C   UNL     1       6.379   4.348  14.734  0.00  0.00    +0.000 A 
ATOM     16 CL   UNL     1       6.221   3.629  13.182  0.00  0.00    +0.000 Cl
ATOM     17  C   UNL     1       5.758   3.793  15.835  0.00  0.00    +0.000 A 
ENDBRANCH   8  11
ENDBRANCH   1   9
BRANCH   5  18
ATOM     18  C   UNL     1       2.005   5.578  20.872  0.00  0.00    +0.000 C 
BRANCH  18  19
ATOM     19  C   UNL     1       1.715   6.921  20.232  0.00  0.00    +0.000 A 
ATOM     20  C   UNL     1       2.219   7.221  18.956  0.00  0.00    +0.000 A 
ATOM     21  C   UNL     1       2.118   8.515  18.443  0.00  0.00    +0.000 A 
ATOM     22  C   UNL     1       1.490   9.508  19.192  0.00  0.00    +0.000 A 
ATOM     23 CL   UNL     1       1.438  11.121  18.599  0.00  0.00    +0.000 Cl
ATOM     24  C   UNL     1       0.927   9.210  20.432  0.00  0.00    +0.000 A 
ATOM     25  C   UNL     1       1.036   7.917  20.950  0.00  0.00    +0.000 A 
ENDBRANCH  18  19
ENDBRANCH   5  18
TORSDOF 4
ENDMDL
MODEL 3
REMARK VINA RESULT:      -7.8      1.536      1.827
REMARK  Name = 
REMARK  4 active torsions:
REMARK  status: ('A' for Active; 'I' for Inactive)
REMARK    1  A    between atoms: C_2  and  C_18
REMARK    2  A    between atoms: N_3  and  C_4
REMARK    3  A    between atoms: N_8  and  C_9
REMARK    4  A    between atoms: C_9  and  C_10
REMARK                            x       y       z     vdW  Elec       q    Type
REMARK                         _______ _______ _______ _____ _____    ______ ____
ROOT
ATOM      1  C   UNL     1       3.987   2.341  19.404  0.00  0.00    +0.000 C 
ATOM      2  C   UNL     1       2.984   1.502  18.610  0.00  0.00    +0.000 C 
ATOM      3  C   UNL     1       1.904   2.385  17.984  0.00  0.00    +0.000 C 
ATOM      4  C   UNL     1       1.260   3.327  19.008  0.00  0.00    +0.000 C 
ATOM      5  N   UNL     1       2.258   4.112  19.760  0.00  0.00    +0.000 NA
ATOM      6  C   UNL     1       3.224   3.202  20.428  0.00  0.00    +0.000 C 
ENDROOT
BRANCH   1   9
ATOM      7  O   UNL     1       5.717   4.492  20.166  0.00  0.00    +0.000 OA
ATOM      8  C   UNL     1       5.598   4.200  18.982  0.00  0.00    +0.000 C 
ATOM      9  N   UNL     1       4.777   3.201  18.517  0.00  0.00    +0.000 N 
ATOM     10  H   UNL     1       4.632   3.047  17.528  0.00  0.00    +0.000 HD
BRANCH   8  11
ATOM     11  C   UNL     1       6.352   4.972  17.957  0.00  0.00    +0.000 A 
ATOM     12  C   UNL     1       6.461   4.443  16.671  0.00  0.00    +0.000 A 
ATOM     13  C   UNL     1       7.115   5.192  15.707  0.00  0.00    +0.000 A 
ATOM     14  N   UNL     1       7.648   6.409  15.947  0.00  0.00    +0.000 NA
ATOM     15  C   UNL     1       7.514   6.889  17.200  0.00  0.00    +0.000 A 
ATOM     16 CL   UNL     1       8.167   8.460  17.430  0.00  0.00    +0.000 Cl
ATOM     17  C   UNL     1       6.891   6.225  18.237  0.00  0.00    +0.000 A 
ENDBRANCH   8  11
ENDBRANCH   1   9
BRANCH   5  18
ATOM     18  C   UNL     1       1.567   4.977  20.746  0.00  0.00    +0.000 C 
BRANCH  18  19
ATOM     19  C   UNL     1       1.641   6.446  20.380  0.00  0.00    +0.000 A 
ATOM     20  C   UNL     1       0.986   7.405  21.169  0.00  0.00    +0.000 A 
ATOM     21  C   UNL     1       0.890   8.729  20.737  0.00  0.00    +0.000 A 
ATOM     22  C   UNL     1       1.470   9.104  19.527  0.00  0.00    +0.000 A 
ATOM     23 CL   UNL     1       1.281  10.714  18.952  0.00  0.00    +0.000 Cl
ATOM     24  C   UNL     1       2.179   8.178  18.764  0.00  0.00    +0.000 A 
ATOM     25  C   UNL     1       2.267   6.851  19.192  0.00  0.00    +0.000 A 
ENDBRANCH  18  19
ENDBRANCH   5  18
TORSDOF 4
ENDMDL
MODEL 4
REMARK VINA RESULT:      -7.4      3.223      5.018
REMARK  Name = 
REMARK  4 active torsions:
REMARK  status: ('A' for Active; 'I' for Inactive)
REMARK    1  A    between atoms: C_2  and  C_18
REMARK    2  A    between atoms: N_3  and  C_4
REMARK    3  A    between atoms: N_8  and  C_9
REMARK    4  A    between atoms: C_9  and  C_10
REMARK                            x       y       z     vdW  Elec       q    Type
REMARK                         _______ _______ _______ _____ _____    ______ ____
ROOT
ATOM      1  C   UNL     1       6.440   6.125  16.030  0.00  0.00    +0.000 C 
ATOM      2  C   UNL     1       7.230   5.402  17.123  0.00  0.00    +0.000 C 
ATOM      3  C   UNL     1       6.357   4.374  17.842  0.00  0.00    +0.000 C 
ATOM      4  C   UNL     1       5.030   4.973  18.321  0.00  0.00    +0.000 C 
ATOM      5  N   UNL     1       4.301   5.669  17.243  0.00  0.00    +0.000 NA
ATOM      6  C   UNL     1       5.161   6.723  16.645  0.00  0.00    +0.000 C 
ENDROOT
BRANCH   1   9
ATOM      7  O   UNL     1       8.002   5.522  13.708  0.00  0.00    +0.000 OA
ATOM      8  C   UNL     1       6.920   4.971  13.870  0.00  0.00    +0.000 C 
ATOM      9  N   UNL     1       6.090   5.210  14.938  0.00  0.00    +0.000 N 
ATOM     10  H   UNL     1       5.164   4.808  14.995  0.00  0.00    +0.000 HD
BRANCH   8  11
ATOM     11  C   UNL     1       6.433   3.998  12.854  0.00  0.00    +0.000 A 
ATOM     12  C   UNL     1       7.340   3.086  12.315  0.00  0.00    +0.000 A 
ATOM     13  C   UNL     1       6.870   2.147  11.412  0.00  0.00    +0.000 A 
ATOM     14  N   UNL     1       5.577   2.067  11.032  0.00  0.00    +0.000 NA
ATOM     15  C   UNL     1       4.730   2.959  11.582  0.00  0.00    +0.000 A 
ATOM     16 CL   UNL     1       3.093   2.775  11.097  0.00  0.00    +0.000 Cl
ATOM     17  C   UNL     1       5.092   3.941  12.482  0.00  0.00    +0.000 A 
ENDBRANCH   8  11
ENDBRANCH   1   9
BRANCH   5  18
ATOM     18  C   UNL     1       3.046   6.244  17.784  0.00  0.00    +0.000 C 
BRANCH  18  19
ATOM     19  C   UNL     1       2.402   5.353  18.827  0.00  0.00    +0.000 A 
ATOM     20  C   UNL     1       2.540   5.648  20.192  0.00  0.00    +0.000 A 
ATOM     21  C   UNL     1       2.114   4.736  21.159  0.00  0.00    +0.000 A 
ATOM     22  C   UNL     1       1.527   3.535  20.764  0.00  0.00    +0.000 A 
ATOM     23 CL   UNL     1       1.079   2.373  21.950  0.00  0.00    +0.000 Cl
ATOM     24  C   UNL     1       1.324   3.257  19.414  0.00  0.00    +0.000 A 
ATOM     25  C   UNL     1       1.758   4.166  18.446  0.00  0.00    +0.000 A 
ENDBRANCH  18  19
ENDBRANCH   5  18
TORSDOF 4
ENDMDL
MODEL 5
REMARK VINA RESULT:      -7.3      1.296      1.765
REMARK  Name = 
REMARK  4 active torsions:
REMARK  status: ('A' for Active; 'I' for Inactive)
REMARK    1  A    between atoms: C_2  and  C_18
REMARK    2  A    between atoms: N_3  and  C_4
REMARK    3  A    between atoms: N_8  and  C_9
REMARK    4  A    between atoms: C_9  and  C_10
REMARK                            x       y       z     vdW  Elec       q    Type
REMARK                         _______ _______ _______ _____ _____    ______ ____
ROOT
ATOM      1  C   UNL     1       3.919   2.828  18.444  0.00  0.00    +0.000 C 
ATOM      2  C   UNL     1       2.465   2.360  18.360  0.00  0.00    +0.000 C 
ATOM      3  C   UNL     1       1.540   3.513  17.973  0.00  0.00    +0.000 C 
ATOM      4  C   UNL     1       1.750   4.748  18.858  0.00  0.00    +0.000 C 
ATOM      5  N   UNL     1       3.164   5.163  18.923  0.00  0.00    +0.000 NA
ATOM      6  C   UNL     1       4.005   4.035  19.398  0.00  0.00    +0.000 C 
ENDROOT
BRANCH   1   9
ATOM      7  O   UNL     1       6.360   4.206  17.859  0.00  0.00    +0.000 OA
ATOM      8  C   UNL     1       5.633   3.843  16.942  0.00  0.00    +0.000 C 
ATOM      9  N   UNL     1       4.434   3.197  17.122  0.00  0.00    +0.000 N 
ATOM     10  H   UNL     1       3.815   2.995  16.348  0.00  0.00    +0.000 HD
BRANCH   8  11
ATOM     11  C   UNL     1       6.029   4.130  15.536  0.00  0.00    +0.000 A 
ATOM     12  C   UNL     1       7.152   4.926  15.308  0.00  0.00    +0.000 A 
ATOM     13  C   UNL     1       7.549   5.143  13.999  0.00  0.00    +0.000 A 
ATOM     14  N   UNL     1       6.907   4.619  12.933  0.00  0.00    +0.000 NA
ATOM     15  C   UNL     1       5.834   3.847  13.195  0.00  0.00    +0.000 A 
ATOM     16 CL   UNL     1       5.092   3.170  11.802  0.00  0.00    +0.000 Cl
ATOM     17  C   UNL     1       5.346   3.574  14.457  0.00  0.00    +0.000 A 
ENDBRANCH   8  11
ENDBRANCH   1   9
BRANCH   5  18
ATOM     18  C   UNL     1       3.294   6.341  19.813  0.00  0.00    +0.000 C 
BRANCH  18  19
ATOM     19  C   UNL     1       2.323   7.449  19.455  0.00  0.00    +0.000 A 
ATOM     20  C   UNL     1       2.289   7.965  18.150  0.00  0.00    +0.000 A 
ATOM     21  C   UNL     1       1.538   9.106  17.862  0.00  0.00    +0.000 A 
ATOM     22  C   UNL     1       0.800   9.721  18.872  0.00  0.00    +0.000 A 
ATOM     23 CL   UNL     1      -0.058  11.174  18.539  0.00  0.00    +0.000 Cl
ATOM     24  C   UNL     1       0.772   9.182  20.157  0.00  0.00    +0.000 A 
ATOM     25  C   UNL     1       1.531   8.045  20.448  0.00  0.00    +0.000 A 
ENDBRANCH  18  19
ENDBRANCH   5  18
TORSDOF 4
ENDMDL
MODEL 6
REMARK VINA RESULT:      -7.0      3.154      4.935
REMARK  Name = 
REMARK  4 active torsions:
REMARK  status: ('A' for Active; 'I' for Inactive)
REMARK    1  A    between atoms: C_2  and  C_18
REMARK    2  A    between atoms: N_3  and  C_4
REMARK    3  A    between atoms: N_8  and  C_9
REMARK    4  A    between atoms: C_9  and  C_10
REMARK                            x       y       z     vdW  Elec       q    Type
REMARK                         _______ _______ _______ _____ _____    ______ ____
ROOT
ATOM      1  C   UNL     1       6.253   6.406  16.235  0.00  0.00    +0.000 C 
ATOM      2  C   UNL     1       7.134   5.748  17.298  0.00  0.00    +0.000 C 
ATOM      3  C   UNL     1       6.355   4.687  18.076  0.00  0.00    +0.000 C 
ATOM      4  C   UNL     1       5.022   5.223  18.611  0.00  0.00    +0.000 C 
ATOM      5  N   UNL     1       4.205   5.858  17.560  0.00  0.00    +0.000 NA
ATOM      6  C   UNL     1       4.975   6.946  16.904  0.00  0.00    +0.000 C 
ENDROOT
BRANCH   1   9
ATOM      7  O   UNL     1       7.901   5.551  14.055  0.00  0.00    +0.000 OA
ATOM      8  C   UNL     1       6.773   5.090  14.179  0.00  0.00    +0.000 C 
ATOM      9  N   UNL     1       5.900   5.454  15.176  0.00  0.00    +0.000 N 
ATOM     10  H   UNL     1       4.945   5.123  15.196  0.00  0.00    +0.000 HD
BRANCH   8  11
ATOM     11  C   UNL     1       6.274   4.095  13.190  0.00  0.00    +0.000 A 
ATOM     12  C   UNL     1       4.901   4.018  12.956  0.00  0.00    +0.000 A 
ATOM     13  C   UNL     1       4.448   3.130  11.995  0.00  0.00    +0.000 A 
ATOM     14  N   UNL     1       5.268   2.339  11.270  0.00  0.00    +0.000 NA
ATOM     15  C   UNL     1       6.588   2.450  11.519  0.00  0.00    +0.000 A 
ATOM     16 CL   UNL     1       7.581   1.456  10.532  0.00  0.00    +0.000 Cl
ATOM     17  C   UNL     1       7.146   3.293  12.459  0.00  0.00    +0.000 A 
ENDBRANCH   8  11
ENDBRANCH   1   9
BRANCH   5  18
ATOM     18  C   UNL     1       2.948   6.374  18.153  0.00  0.00    +0.000 C 
BRANCH  18  19
ATOM     19  C   UNL     1       2.324   5.398  19.131  0.00  0.00    +0.000 A 
ATOM     20  C   UNL     1       2.494   5.575  20.513  0.00  0.00    +0.000 A 
ATOM     21  C   UNL     1       2.087   4.583  21.407  0.00  0.00    +0.000 A 
ATOM     22  C   UNL     1       1.486   3.423  20.924  0.00  0.00    +0.000 A 
ATOM     23 CL   UNL     1       1.060   2.164  22.016  0.00  0.00    +0.000 Cl
ATOM     24  C   UNL     1       1.251   3.262  19.560  0.00  0.00    +0.000 A 
ATOM     25  C   UNL     1       1.666   4.250  18.664  0.00  0.00    +0.000 A 
ENDBRANCH  18  19
ENDBRANCH   5  18
TORSDOF 4
ENDMDL
MODEL 7
REMARK VINA RESULT:      -7.0      7.703     10.081
REMARK  Name = 
REMARK  4 active torsions:
REMARK  status: ('A' for Active; 'I' for Inactive)
REMARK    1  A    between atoms: C_2  and  C_18
REMARK    2  A    between atoms: N_3  and  C_4
REMARK    3  A    between atoms: N_8  and  C_9
REMARK    4  A    between atoms: C_9  and  C_10
REMARK                            x       y       z     vdW  Elec       q    Type
REMARK                         _______ _______ _______ _____ _____    ______ ____
ROOT
ATOM      1  C   UNL     1       0.231  11.348  20.536  0.00  0.00    +0.000 C 
ATOM      2  C   UNL     1       0.767  10.073  21.190  0.00  0.00    +0.000 C 
ATOM      3  C   UNL     1      -0.288   9.437  22.096  0.00  0.00    +0.000 C 
ATOM      4  C   UNL     1      -0.888  10.444  23.084  0.00  0.00    +0.000 C 
ATOM      5  N   UNL     1      -1.384  11.663  22.418  0.00  0.00    +0.000 NA
ATOM      6  C   UNL     1      -0.293  12.295  21.632  0.00  0.00    +0.000 C 
ENDROOT
BRANCH   1   9
ATOM      7  O   UNL     1      -0.674  12.985  18.368  0.00  0.00    +0.000 OA
ATOM      8  C   UNL     1      -1.190  11.890  18.558  0.00  0.00    +0.000 C 
ATOM      9  N   UNL     1      -0.840  11.044  19.583  0.00  0.00    +0.000 N 
ATOM     10  H   UNL     1      -1.349  10.188  19.766  0.00  0.00    +0.000 HD
BRANCH   8  11
ATOM     11  C   UNL     1      -2.284  11.429  17.659  0.00  0.00    +0.000 A 
ATOM     12  C   UNL     1      -3.603  11.575  18.087  0.00  0.00    +0.000 A 
ATOM     13  C   UNL     1      -4.618  11.197  17.224  0.00  0.00    +0.000 A 
ATOM     14  N   UNL     1      -4.395  10.698  15.989  0.00  0.00    +0.000 NA
ATOM     15  C   UNL     1      -3.107  10.582  15.609  0.00  0.00    +0.000 A 
ATOM     16 CL   UNL     1      -2.890   9.989  14.012  0.00  0.00    +0.000 Cl
ATOM     17  C   UNL     1      -2.020  10.918  16.390  0.00  0.00    +0.000 A 
ENDBRANCH   8  11
ENDBRANCH   1   9
BRANCH   5  18
ATOM     18  C   UNL     1      -1.923  12.598  23.434  0.00  0.00    +0.000 C 
BRANCH  18  19
ATOM     19  C   UNL     1      -3.438  12.627  23.451  0.00  0.00    +0.000 A 
ATOM     20  C   UNL     1      -4.151  13.032  22.311  0.00  0.00    +0.000 A 
ATOM     21  C   UNL     1      -5.529  13.242  22.378  0.00  0.00    +0.000 A 
ATOM     22  C   UNL     1      -6.204  13.024  23.578  0.00  0.00    +0.000 A 
ATOM     23 CL   UNL     1      -7.887  13.362  23.685  0.00  0.00    +0.000 Cl
ATOM     24  C   UNL     1      -5.521  12.559  24.700  0.00  0.00    +0.000 A 
ATOM     25  C   UNL     1      -4.140  12.357  24.636  0.00  0.00    +0.000 A 
ENDBRANCH  18  19
ENDBRANCH   5  18
TORSDOF 4
ENDMDL
MODEL 8
REMARK VINA RESULT:      -6.9      1.084      1.143
REMARK  Name = 
REMARK  4 active torsions:
REMARK  status: ('A' for Active; 'I' for Inactive)
REMARK    1  A    between atoms: C_2  and  C_18
REMARK    2  A    between atoms: N_3  and  C_4
REMARK    3  A    between atoms: N_8  and  C_9
REMARK    4  A    between atoms: C_9  and  C_10
REMARK                            x       y       z     vdW  Elec       q    Type
REMARK                         _______ _______ _______ _____ _____    ______ ____
ROOT
ATOM      1  C   UNL     1       3.900   2.484  19.669  0.00  0.00    +0.000 C 
ATOM      2  C   UNL     1       2.840   1.446  19.296  0.00  0.00    +0.000 C 
ATOM      3  C   UNL     1       1.578   2.120  18.758  0.00  0.00    +0.000 C 
ATOM      4  C   UNL     1       1.070   3.228  19.688  0.00  0.00    +0.000 C 
ATOM      5  N   UNL     1       2.122   4.204  20.033  0.00  0.00    +0.000 NA
ATOM      6  C   UNL     1       3.284   3.506  20.643  0.00  0.00    +0.000 C 
ENDROOT
BRANCH   1   9
ATOM      7  O   UNL     1       5.965   4.464  19.564  0.00  0.00    +0.000 OA
ATOM      8  C   UNL     1       5.424   4.097  18.528  0.00  0.00    +0.000 C 
ATOM      9  N   UNL     1       4.410   3.170  18.478  0.00  0.00    +0.000 N 
ATOM     10  H   UNL     1       3.923   2.958  17.618  0.00  0.00    +0.000 HD
BRANCH   8  11
ATOM     11  C   UNL     1       5.847   4.690  17.230  0.00  0.00    +0.000 A 
ATOM     12  C   UNL     1       7.028   4.236  16.642  0.00  0.00    +0.000 A 
ATOM     13  C   UNL     1       7.386   4.750  15.408  0.00  0.00    +0.000 A 
ATOM     14  N   UNL     1       6.649   5.665  14.742  0.00  0.00    +0.000 NA
ATOM     15  C   UNL     1       5.510   6.071  15.338  0.00  0.00    +0.000 A 
ATOM     16 CL   UNL     1       4.593   7.196  14.421  0.00  0.00    +0.000 Cl
ATOM     17  C   UNL     1       5.063   5.632  16.568  0.00  0.00    +0.000 A 
ENDBRANCH   8  11
ENDBRANCH   1   9
BRANCH   5  18
ATOM     18  C   UNL     1       1.568   5.226  20.952  0.00  0.00    +0.000 C 
BRANCH  18  19
ATOM     19  C   UNL     1       1.697   6.632  20.402  0.00  0.00    +0.000 A 
ATOM     20  C   UNL     1       1.153   7.719  21.105  0.00  0.00    +0.000 A 
ATOM     21  C   UNL     1       1.101   8.984  20.517  0.00  0.00    +0.000 A 
ATOM     22  C   UNL     1       1.614   9.172  19.236  0.00  0.00    +0.000 A 
ATOM     23 CL   UNL     1       1.474  10.710  18.477  0.00  0.00    +0.000 Cl
ATOM     24  C   UNL     1       2.215   8.118  18.552  0.00  0.00    +0.000 A 
ATOM     25  C   UNL     1       2.260   6.849  19.135  0.00  0.00    +0.000 A 
ENDBRANCH  18  19
ENDBRANCH   5  18
TORSDOF 4
ENDMDL
MODEL 9
REMARK VINA RESULT:      -6.9      2.127      2.925
REMARK  Name = 
REMARK  4 active torsions:
REMARK  status: ('A' for Active; 'I' for Inactive)
REMARK    1  A    between atoms: C_2  and  C_18
REMARK    2  A    between atoms: N_3  and  C_4
REMARK    3  A    between atoms: N_8  and  C_9
REMARK    4  A    between atoms: C_9  and  C_10
REMARK                            x       y       z     vdW  Elec       q    Type
REMARK                         _______ _______ _______ _____ _____    ______ ____
ROOT
ATOM      1  C   UNL     1       5.035   4.558  18.013  0.00  0.00    +0.000 C 
ATOM      2  C   UNL     1       3.845   3.693  18.434  0.00  0.00    +0.000 C 
ATOM      3  C   UNL     1       2.558   4.165  17.758  0.00  0.00    +0.000 C 
ATOM      4  C   UNL     1       2.329   5.670  17.933  0.00  0.00    +0.000 C 
ATOM      5  N   UNL     1       3.500   6.471  17.527  0.00  0.00    +0.000 NA
ATOM      6  C   UNL     1       4.702   6.037  18.284  0.00  0.00    +0.000 C 
ENDROOT
BRANCH   1   9
ATOM      7  O   UNL     1       7.015   5.946  16.480  0.00  0.00    +0.000 OA
ATOM      8  C   UNL     1       6.339   5.072  15.949  0.00  0.00    +0.000 C 
ATOM      9  N   UNL     1       5.351   4.368  16.594  0.00  0.00    +0.000 N 
ATOM     10  H   UNL     1       4.751   3.719  16.102  0.00  0.00    +0.000 HD
BRANCH   8  11
ATOM     11  C   UNL     1       6.556   4.750  14.512  0.00  0.00    +0.000 A 
ATOM     12  C   UNL     1       7.569   5.418  13.825  0.00  0.00    +0.000 A 
ATOM     13  C   UNL     1       7.804   5.073  12.504  0.00  0.00    +0.000 A 
ATOM     14  N   UNL     1       7.105   4.121  11.850  0.00  0.00    +0.000 NA
ATOM     15  C   UNL     1       6.141   3.492  12.552  0.00  0.00    +0.000 A 
ATOM     16 CL   UNL     1       5.321   2.259  11.682  0.00  0.00    +0.000 Cl
ATOM     17  C   UNL     1       5.817   3.762  13.866  0.00  0.00    +0.000 A 
ENDBRANCH   8  11
ENDBRANCH   1   9
BRANCH   5  18
ATOM     18  C   UNL     1       3.218   7.909  17.747  0.00  0.00    +0.000 C 
BRANCH  18  19
ATOM     19  C   UNL     1       2.184   8.138  18.832  0.00  0.00    +0.000 A 
ATOM     20  C   UNL     1       1.287   9.214  18.738  0.00  0.00    +0.000 A 
ATOM     21  C   UNL     1       0.464   9.542  19.816  0.00  0.00    +0.000 A 
ATOM     22  C   UNL     1       0.516   8.782  20.983  0.00  0.00    +0.000 A 
ATOM     23 CL   UNL     1      -0.436   9.235  22.342  0.00  0.00    +0.000 Cl
ATOM     24  C   UNL     1       1.354   7.672  21.067  0.00  0.00    +0.000 A 
ATOM     25  C   UNL     1       2.185   7.348  19.991  0.00  0.00    +0.000 A 
ENDBRANCH  18  19
ENDBRANCH   5  18
TORSDOF 4
ENDMDL
