MODEL 1
REMARK VINA RESULT:      -9.0      0.000      0.000
REMARK  Name = 
REMARK  6 active torsions:
REMARK  status: ('A' for Active; 'I' for Inactive)
REMARK    1  A    between atoms: C_6  and  C_7
REMARK    2  A    between atoms: C_7  and  O_8
REMARK    3  A    between atoms: C_7  and  C_17
REMARK    4  A    between atoms: O_8  and  C_9
REMARK    5  A    between atoms: C_9  and  C_11
REMARK    6  A    between atoms: C_23  and  O_24
REMARK                            x       y       z     vdW  Elec       q    Type
REMARK                         _______ _______ _______ _____ _____    ______ ____
ROOT
ATOM      1  C   UNL     1       3.396   5.431  17.839  0.00  0.00    +0.000 C 
ENDROOT
BRANCH   1   7
ATOM      2  O   UNL     1       8.299   8.288  18.235  0.00  0.00    +0.000 OA
ATOM      3  C   UNL     1       7.873   7.187  17.927  0.00  0.00    +0.000 C 
ATOM      4  C   UNL     1       7.643   6.061  18.880  0.00  0.00    +0.000 C 
ATOM      5  C   UNL     1       7.011   4.990  18.027  0.00  0.00    +0.000 C 
ATOM      6  O   UNL     1       5.677   4.699  18.457  0.00  0.00    +0.000 OA
ATOM      7  C   UNL     1       4.767   4.885  17.355  0.00  0.00    +0.000 C 
ATOM      8  C   UNL     1       5.483   5.723  16.300  0.00  0.00    +0.000 C 
ATOM      9  C   UNL     1       6.962   5.545  16.627  0.00  0.00    +0.000 C 
ATOM     10  O   UNL     1       7.622   6.808  16.645  0.00  0.00    +0.000 OA
BRANCH   8  11
ATOM     11  O   UNL     1       5.190   5.275  14.973  0.00  0.00    +0.000 OA
ATOM     12  H   UNL     1       5.501   5.940  14.334  0.00  0.00    +0.000 HD
ENDBRANCH   8  11
ENDBRANCH   1   7
BRANCH   1  13
ATOM     13  C   UNL     1       2.599   4.451  18.700  0.00  0.00    +0.000 A 
ATOM     14  C   UNL     1       1.705   3.557  18.082  0.00  0.00    +0.000 A 
ATOM     15  C   UNL     1       0.873   2.733  18.843  0.00  0.00    +0.000 A 
ATOM     16  C   UNL     1       0.924   2.784  20.232  0.00  0.00    +0.000 A 
ATOM     17  C   UNL     1       1.831   3.635  20.861  0.00  0.00    +0.000 A 
ATOM     18  C   UNL     1       2.669   4.456  20.101  0.00  0.00    +0.000 A 
ENDBRANCH   1  13
BRANCH   1  19
ATOM     19  O   UNL     1       3.583   6.693  18.528  0.00  0.00    +0.000 OA
BRANCH  19  20
ATOM     20  C   UNL     1       2.858   7.737  18.038  0.00  0.00    +0.000 C 
ATOM     21  O   UNL     1       2.914   8.170  16.898  0.00  0.00    +0.000 OA
BRANCH  20  22
ATOM     22  C   UNL     1       1.931   8.304  19.060  0.00  0.00    +0.000 A 
ATOM     23  C   UNL     1       1.149   9.416  18.699  0.00  0.00    +0.000 A 
ATOM     24  C   UNL     1       0.255   9.986  19.606  0.00  0.00    +0.000 A 
ATOM     25  C   UNL     1       0.131   9.450  20.886  0.00  0.00    +0.000 A 
ATOM     26  C   UNL     1       0.903   8.350  21.259  0.00  0.00    +0.000 A 
ATOM     27  C   UNL     1       1.803   7.774  20.350  0.00  0.00    +0.000 A 
ENDBRANCH  20  22
ENDBRANCH  19  20
ENDBRANCH   1  19
TORSDOF 6
ENDMDL
MODEL 2
REMARK VINA RESULT:      -8.9      0.180      1.350
REMARK  Name = 
REMARK  6 active torsions:
REMARK  status: ('A' for Active; 'I' for Inactive)
REMARK    1  A    between atoms: C_6  and  C_7
REMARK    2  A    between atoms: C_7  and  O_8
REMARK    3  A    between atoms: C_7  and  C_17
REMARK    4  A    between atoms: O_8  and  C_9
REMARK    5  A    between atoms: C_9  and  C_11
REMARK    6  A    between atoms: C_23  and  O_24
REMARK                            x       y       z     vdW  Elec       q    Type
REMARK                         _______ _______ _______ _____ _____    ______ ____
ROOT
ATOM      1  C   UNL     1       3.301   5.413  17.883  0.00  0.00    +0.000 C 
ENDROOT
BRANCH   1   7
ATOM      2  O   UNL     1       8.194   8.313  17.925  0.00  0.00    +0.000 OA
ATOM      3  C   UNL     1       7.772   7.180  17.754  0.00  0.00    +0.000 C 
ATOM      4  C   UNL     1       7.545   6.180  18.840  0.00  0.00    +0.000 C 
ATOM      5  C   UNL     1       6.916   5.010  18.126  0.00  0.00    +0.000 C 
ATOM      6  O   UNL     1       5.584   4.770  18.588  0.00  0.00    +0.000 OA
ATOM      7  C   UNL     1       4.673   4.816  17.471  0.00  0.00    +0.000 C 
ATOM      8  C   UNL     1       5.389   5.519  16.321  0.00  0.00    +0.000 C 
ATOM      9  C   UNL     1       6.867   5.387  16.668  0.00  0.00    +0.000 C 
ATOM     10  O   UNL     1       7.524   6.645  16.529  0.00  0.00    +0.000 OA
BRANCH   8  11
ATOM     11  O   UNL     1       5.098   4.909  15.059  0.00  0.00    +0.000 OA
ATOM     12  H   UNL     1       5.277   3.954  15.116  0.00  0.00    +0.000 HD
ENDBRANCH   8  11
ENDBRANCH   1   7
BRANCH   1  13
ATOM     13  C   UNL     1       2.430   4.471  18.715  0.00  0.00    +0.000 A 
ATOM     14  C   UNL     1       2.493   4.533  20.119  0.00  0.00    +0.000 A 
ATOM     15  C   UNL     1       1.805   3.609  20.910  0.00  0.00    +0.000 A 
ATOM     16  C   UNL     1       1.041   2.613  20.311  0.00  0.00    +0.000 A 
ATOM     17  C   UNL     1       0.936   2.561  18.923  0.00  0.00    +0.000 A 
ATOM     18  C   UNL     1       1.617   3.489  18.130  0.00  0.00    +0.000 A 
ENDBRANCH   1  13
BRANCH   1  19
ATOM     19  O   UNL     1       3.497   6.676  18.566  0.00  0.00    +0.000 OA
BRANCH  19  20
ATOM     20  C   UNL     1       2.870   7.746  18.004  0.00  0.00    +0.000 C 
ATOM     21  O   UNL     1       3.033   8.150  16.863  0.00  0.00    +0.000 OA
BRANCH  20  22
ATOM     22  C   UNL     1       1.904   8.386  18.944  0.00  0.00    +0.000 A 
ATOM     23  C   UNL     1       1.813   7.874  20.250  0.00  0.00    +0.000 A 
ATOM     24  C   UNL     1       0.937   8.436  21.180  0.00  0.00    +0.000 A 
ATOM     25  C   UNL     1       0.141   9.519  20.814  0.00  0.00    +0.000 A 
ATOM     26  C   UNL     1       0.219  10.036  19.520  0.00  0.00    +0.000 A 
ATOM     27  C   UNL     1       1.098   9.474  18.584  0.00  0.00    +0.000 A 
ENDBRANCH  20  22
ENDBRANCH  19  20
ENDBRANCH   1  19
TORSDOF 6
ENDMDL
MODEL 3
REMARK VINA RESULT:      -8.7      1.429      2.767
REMARK  Name = 
REMARK  6 active torsions:
REMARK  status: ('A' for Active; 'I' for Inactive)
REMARK    1  A    between atoms: C_6  and  C_7
REMARK    2  A    between atoms: C_7  and  O_8
REMARK    3  A    between atoms: C_7  and  C_17
REMARK    4  A    between atoms: O_8  and  C_9
REMARK    5  A    between atoms: C_9  and  C_11
REMARK    6  A    between atoms: C_23  and  O_24
REMARK                            x       y       z     vdW  Elec       q    Type
REMARK                         _______ _______ _______ _____ _____    ______ ____
ROOT
ATOM      1  C   UNL     1       3.156   5.988  18.464  0.00  0.00    +0.000 C 
ENDROOT
BRANCH   1   7
ATOM      2  O   UNL     1       5.266   3.938  13.596  0.00  0.00    +0.000 OA
ATOM      3  C   UNL     1       5.636   4.345  14.685  0.00  0.00    +0.000 C 
ATOM      4  C   UNL     1       5.909   5.776  15.015  0.00  0.00    +0.000 C 
ATOM      5  C   UNL     1       6.214   5.752  16.492  0.00  0.00    +0.000 C 
ATOM      6  O   UNL     1       5.244   6.495  17.238  0.00  0.00    +0.000 OA
ATOM      7  C   UNL     1       4.653   5.641  18.238  0.00  0.00    +0.000 C 
ATOM      8  C   UNL     1       4.952   4.197  17.848  0.00  0.00    +0.000 C 
ATOM      9  C   UNL     1       6.149   4.306  16.910  0.00  0.00    +0.000 C 
ATOM     10  O   UNL     1       5.930   3.531  15.734  0.00  0.00    +0.000 OA
BRANCH   8  11
ATOM     11  O   UNL     1       5.262   3.390  18.988  0.00  0.00    +0.000 OA
ATOM     12  H   UNL     1       5.207   2.450  18.741  0.00  0.00    +0.000 HD
ENDBRANCH   8  11
ENDBRANCH   1   7
BRANCH   1  13
ATOM     13  C   UNL     1       2.361   4.897  19.183  0.00  0.00    +0.000 A 
ATOM     14  C   UNL     1       2.471   4.769  20.580  0.00  0.00    +0.000 A 
ATOM     15  C   UNL     1       1.855   3.712  21.255  0.00  0.00    +0.000 A 
ATOM     16  C   UNL     1       1.118   2.769  20.545  0.00  0.00    +0.000 A 
ATOM     17  C   UNL     1       0.966   2.903  19.167  0.00  0.00    +0.000 A 
ATOM     18  C   UNL     1       1.575   3.964  18.491  0.00  0.00    +0.000 A 
ENDBRANCH   1  13
BRANCH   1  19
ATOM     19  O   UNL     1       3.042   7.255  19.159  0.00  0.00    +0.000 OA
BRANCH  19  20
ATOM     20  C   UNL     1       2.263   8.187  18.544  0.00  0.00    +0.000 C 
ATOM     21  O   UNL     1       2.284   8.461  17.354  0.00  0.00    +0.000 OA
BRANCH  20  22
ATOM     22  C   UNL     1       1.324   8.849  19.496  0.00  0.00    +0.000 A 
ATOM     23  C   UNL     1       1.254   8.352  20.810  0.00  0.00    +0.000 A 
ATOM     24  C   UNL     1       0.404   8.934  21.751  0.00  0.00    +0.000 A 
ATOM     25  C   UNL     1      -0.386  10.023  21.389  0.00  0.00    +0.000 A 
ATOM     26  C   UNL     1      -0.329  10.525  20.089  0.00  0.00    +0.000 A 
ATOM     27  C   UNL     1       0.524   9.943  19.141  0.00  0.00    +0.000 A 
ENDBRANCH  20  22
ENDBRANCH  19  20
ENDBRANCH   1  19
TORSDOF 6
ENDMDL
MODEL 4
REMARK VINA RESULT:      -8.5      1.416      2.418
REMARK  Name = 
REMARK  6 active torsions:
REMARK  status: ('A' for Active; 'I' for Inactive)
REMARK    1  A    between atoms: C_6  and  C_7
REMARK    2  A    between atoms: C_7  and  O_8
REMARK    3  A    between atoms: C_7  and  C_17
REMARK    4  A    between atoms: O_8  and  C_9
REMARK    5  A    between atoms: C_9  and  C_11
REMARK    6  A    between atoms: C_23  and  O_24
REMARK                            x       y       z     vdW  Elec       q    Type
REMARK                         _______ _______ _______ _____ _____    ______ ____
ROOT
ATOM      1  C   UNL     1       3.240   5.967  18.424  0.00  0.00    +0.000 C 
ENDROOT
BRANCH   1   7
ATOM      2  O   UNL     1       5.308   3.883  13.552  0.00  0.00    +0.000 OA
ATOM      3  C   UNL     1       5.689   4.332  14.621  0.00  0.00    +0.000 C 
ATOM      4  C   UNL     1       5.911   5.780  14.910  0.00  0.00    +0.000 C 
ATOM      5  C   UNL     1       6.254   5.805  16.379  0.00  0.00    +0.000 C 
ATOM      6  O   UNL     1       5.275   6.526  17.132  0.00  0.00    +0.000 OA
ATOM      7  C   UNL     1       4.744   5.675  18.167  0.00  0.00    +0.000 C 
ATOM      8  C   UNL     1       5.091   4.234  17.804  0.00  0.00    +0.000 C 
ATOM      9  C   UNL     1       6.258   4.368  16.833  0.00  0.00    +0.000 C 
ATOM     10  O   UNL     1       6.042   3.556  15.681  0.00  0.00    +0.000 OA
BRANCH   8  11
ATOM     11  O   UNL     1       5.462   3.469  18.954  0.00  0.00    +0.000 OA
ATOM     12  H   UNL     1       5.678   4.074  19.686  0.00  0.00    +0.000 HD
ENDBRANCH   8  11
ENDBRANCH   1   7
BRANCH   1  13
ATOM     13  C   UNL     1       2.496   4.841  19.143  0.00  0.00    +0.000 A 
ATOM     14  C   UNL     1       1.690   3.960  18.399  0.00  0.00    +0.000 A 
ATOM     15  C   UNL     1       0.902   2.997  19.034  0.00  0.00    +0.000 A 
ATOM     16  C   UNL     1       0.911   2.896  20.421  0.00  0.00    +0.000 A 
ATOM     17  C   UNL     1       1.734   3.733  21.172  0.00  0.00    +0.000 A 
ATOM     18  C   UNL     1       2.528   4.693  20.537  0.00  0.00    +0.000 A 
ENDBRANCH   1  13
BRANCH   1  19
ATOM     19  O   UNL     1       3.095   7.221  19.136  0.00  0.00    +0.000 OA
BRANCH  19  20
ATOM     20  C   UNL     1       2.325   8.157  18.516  0.00  0.00    +0.000 C 
ATOM     21  O   UNL     1       2.356   8.431  17.326  0.00  0.00    +0.000 OA
BRANCH  20  22
ATOM     22  C   UNL     1       1.382   8.823  19.461  0.00  0.00    +0.000 A 
ATOM     23  C   UNL     1       0.617   9.902  18.982  0.00  0.00    +0.000 A 
ATOM     24  C   UNL     1      -0.291  10.559  19.813  0.00  0.00    +0.000 A 
ATOM     25  C   UNL     1      -0.446  10.144  21.134  0.00  0.00    +0.000 A 
ATOM     26  C   UNL     1       0.309   9.078  21.623  0.00  0.00    +0.000 A 
ATOM     27  C   UNL     1       1.222   8.415  20.791  0.00  0.00    +0.000 A 
ENDBRANCH  20  22
ENDBRANCH  19  20
ENDBRANCH   1  19
TORSDOF 6
ENDMDL
MODEL 5
REMARK VINA RESULT:      -8.5      2.118      6.081
REMARK  Name = 
REMARK  6 active torsions:
REMARK  status: ('A' for Active; 'I' for Inactive)
REMARK    1  A    between atoms: C_6  and  C_7
REMARK    2  A    between atoms: C_7  and  O_8
REMARK    3  A    between atoms: C_7  and  C_17
REMARK    4  A    between atoms: O_8  and  C_9
REMARK    5  A    between atoms: C_9  and  C_11
REMARK    6  A    between atoms: C_23  and  O_24
REMARK                            x       y       z     vdW  Elec       q    Type
REMARK                         _______ _______ _______ _____ _____    ______ ____
ROOT
ATOM      1  C   UNL     1       3.801   4.447  17.229  0.00  0.00    +0.000 C 
ENDROOT
BRANCH   1   7
ATOM      2  O   UNL     1       1.431   3.005  22.195  0.00  0.00    +0.000 OA
ATOM      3  C   UNL     1       1.411   2.691  21.015  0.00  0.00    +0.000 C 
ATOM      4  C   UNL     1       0.535   3.315  19.979  0.00  0.00    +0.000 C 
ATOM      5  C   UNL     1       0.978   2.663  18.693  0.00  0.00    +0.000 C 
ATOM      6  O   UNL     1       1.537   3.621  17.789  0.00  0.00    +0.000 OA
ATOM      7  C   UNL     1       2.874   3.218  17.430  0.00  0.00    +0.000 C 
ATOM      8  C   UNL     1       3.339   2.193  18.460  0.00  0.00    +0.000 C 
ATOM      9  C   UNL     1       2.046   1.670  19.073  0.00  0.00    +0.000 C 
ATOM     10  O   UNL     1       2.137   1.665  20.496  0.00  0.00    +0.000 OA
BRANCH   8  11
ATOM     11  O   UNL     1       4.090   1.134  17.857  0.00  0.00    +0.000 OA
ATOM     12  H   UNL     1       4.227   1.335  16.915  0.00  0.00    +0.000 HD
ENDBRANCH   8  11
ENDBRANCH   1   7
BRANCH   1  13
ATOM     13  C   UNL     1       3.324   5.715  17.938  0.00  0.00    +0.000 A 
ATOM     14  C   UNL     1       2.991   5.659  19.303  0.00  0.00    +0.000 A 
ATOM     15  C   UNL     1       2.438   6.765  19.954  0.00  0.00    +0.000 A 
ATOM     16  C   UNL     1       2.216   7.945  19.252  0.00  0.00    +0.000 A 
ATOM     17  C   UNL     1       2.577   8.031  17.910  0.00  0.00    +0.000 A 
ATOM     18  C   UNL     1       3.136   6.928  17.259  0.00  0.00    +0.000 A 
ENDBRANCH   1  13
BRANCH   1  19
ATOM     19  O   UNL     1       5.156   4.113  17.620  0.00  0.00    +0.000 OA
BRANCH  19  20
ATOM     20  C   UNL     1       6.133   4.579  16.793  0.00  0.00    +0.000 C 
ATOM     21  O   UNL     1       6.387   4.152  15.678  0.00  0.00    +0.000 OA
BRANCH  20  22
ATOM     22  C   UNL     1       6.874   5.727  17.393  0.00  0.00    +0.000 A 
ATOM     23  C   UNL     1       7.589   5.504  18.583  0.00  0.00    +0.000 A 
ATOM     24  C   UNL     1       8.311   6.533  19.187  0.00  0.00    +0.000 A 
ATOM     25  C   UNL     1       8.328   7.800  18.607  0.00  0.00    +0.000 A 
ATOM     26  C   UNL     1       7.621   8.036  17.429  0.00  0.00    +0.000 A 
ATOM     27  C   UNL     1       6.894   7.004  16.818  0.00  0.00    +0.000 A 
ENDBRANCH  20  22
ENDBRANCH  19  20
ENDBRANCH   1  19
TORSDOF 6
ENDMDL
MODEL 6
REMARK VINA RESULT:      -8.5      1.601      4.613
REMARK  Name = 
REMARK  6 active torsions:
REMARK  status: ('A' for Active; 'I' for Inactive)
REMARK    1  A    between atoms: C_6  and  C_7
REMARK    2  A    between atoms: C_7  and  O_8
REMARK    3  A    between atoms: C_7  and  C_17
REMARK    4  A    between atoms: O_8  and  C_9
REMARK    5  A    between atoms: C_9  and  C_11
REMARK    6  A    between atoms: C_23  and  O_24
REMARK                            x       y       z     vdW  Elec       q    Type
REMARK                         _______ _______ _______ _____ _____    ______ ____
ROOT
ATOM      1  C   UNL     1       3.347   5.982  18.614  0.00  0.00    +0.000 C 
ENDROOT
BRANCH   1   7
ATOM      2  O   UNL     1       6.457   3.499  14.550  0.00  0.00    +0.000 OA
ATOM      3  C   UNL     1       6.519   4.411  15.358  0.00  0.00    +0.000 C 
ATOM      4  C   UNL     1       6.038   5.804  15.115  0.00  0.00    +0.000 C 
ATOM      5  C   UNL     1       6.233   6.489  16.444  0.00  0.00    +0.000 C 
ATOM      6  O   UNL     1       4.984   6.906  17.005  0.00  0.00    +0.000 OA
ATOM      7  C   UNL     1       4.831   6.327  18.317  0.00  0.00    +0.000 C 
ATOM      8  C   UNL     1       5.820   5.171  18.430  0.00  0.00    +0.000 C 
ATOM      9  C   UNL     1       6.860   5.466  17.355  0.00  0.00    +0.000 C 
ATOM     10  O   UNL     1       7.115   4.300  16.576  0.00  0.00    +0.000 OA
BRANCH   8  11
ATOM     11  O   UNL     1       6.421   5.107  19.726  0.00  0.00    +0.000 OA
ATOM     12  H   UNL     1       7.378   5.266  19.644  0.00  0.00    +0.000 HD
ENDBRANCH   8  11
ENDBRANCH   1   7
BRANCH   1  13
ATOM     13  C   UNL     1       2.461   7.199  18.883  0.00  0.00    +0.000 A 
ATOM     14  C   UNL     1       2.193   8.102  17.838  0.00  0.00    +0.000 A 
ATOM     15  C   UNL     1       1.489   9.286  18.075  0.00  0.00    +0.000 A 
ATOM     16  C   UNL     1       1.039   9.583  19.357  0.00  0.00    +0.000 A 
ATOM     17  C   UNL     1       1.261   8.681  20.396  0.00  0.00    +0.000 A 
ATOM     18  C   UNL     1       1.958   7.493  20.159  0.00  0.00    +0.000 A 
ENDBRANCH   1  13
BRANCH   1  19
ATOM     19  O   UNL     1       2.804   5.173  17.541  0.00  0.00    +0.000 OA
BRANCH  19  20
ATOM     20  C   UNL     1       1.767   4.363  17.890  0.00  0.00    +0.000 C 
ATOM     21  O   UNL     1       0.771   4.149  17.216  0.00  0.00    +0.000 OA
BRANCH  20  22
ATOM     22  C   UNL     1       1.984   3.712  19.215  0.00  0.00    +0.000 A 
ATOM     23  C   UNL     1       3.172   2.985  19.408  0.00  0.00    +0.000 A 
ATOM     24  C   UNL     1       3.440   2.364  20.628  0.00  0.00    +0.000 A 
ATOM     25  C   UNL     1       2.522   2.462  21.671  0.00  0.00    +0.000 A 
ATOM     26  C   UNL     1       1.338   3.177  21.493  0.00  0.00    +0.000 A 
ATOM     27  C   UNL     1       1.065   3.804  20.268  0.00  0.00    +0.000 A 
ENDBRANCH  20  22
ENDBRANCH  19  20
ENDBRANCH   1  19
TORSDOF 6
ENDMDL
MODEL 7
REMARK VINA RESULT:      -8.4      1.274      2.297
REMARK  Name = 
REMARK  6 active torsions:
REMARK  status: ('A' for Active; 'I' for Inactive)
REMARK    1  A    between atoms: C_6  and  C_7
REMARK    2  A    between atoms: C_7  and  O_8
REMARK    3  A    between atoms: C_7  and  C_17
REMARK    4  A    between atoms: O_8  and  C_9
REMARK    5  A    between atoms: C_9  and  C_11
REMARK    6  A    between atoms: C_23  and  O_24
REMARK                            x       y       z     vdW  Elec       q    Type
REMARK                         _______ _______ _______ _____ _____    ______ ____
ROOT
ATOM      1  C   UNL     1       3.386   5.870  18.769  0.00  0.00    +0.000 C 
ENDROOT
BRANCH   1   7
ATOM      2  O   UNL     1       7.360   5.406  14.726  0.00  0.00    +0.000 OA
ATOM      3  C   UNL     1       7.245   5.377  15.940  0.00  0.00    +0.000 C 
ATOM      4  C   UNL     1       7.295   6.573  16.833  0.00  0.00    +0.000 C 
ATOM      5  C   UNL     1       6.985   6.015  18.200  0.00  0.00    +0.000 C 
ATOM      6  O   UNL     1       5.764   6.551  18.719  0.00  0.00    +0.000 OA
ATOM      7  C   UNL     1       4.863   5.472  19.038  0.00  0.00    +0.000 C 
ATOM      8  C   UNL     1       5.361   4.226  18.312  0.00  0.00    +0.000 C 
ATOM      9  C   UNL     1       6.826   4.528  18.019  0.00  0.00    +0.000 C 
ATOM     10  O   UNL     1       7.133   4.228  16.659  0.00  0.00    +0.000 OA
BRANCH   8  11
ATOM     11  O   UNL     1       5.227   3.051  19.117  0.00  0.00    +0.000 OA
ATOM     12  H   UNL     1       4.873   2.327  18.571  0.00  0.00    +0.000 HD
ENDBRANCH   8  11
ENDBRANCH   1   7
BRANCH   1  13
ATOM     13  C   UNL     1       2.371   4.778  19.109  0.00  0.00    +0.000 A 
ATOM     14  C   UNL     1       2.037   4.540  20.454  0.00  0.00    +0.000 A 
ATOM     15  C   UNL     1       1.206   3.475  20.811  0.00  0.00    +0.000 A 
ATOM     16  C   UNL     1       0.693   2.634  19.828  0.00  0.00    +0.000 A 
ATOM     17  C   UNL     1       0.982   2.879  18.487  0.00  0.00    +0.000 A 
ATOM     18  C   UNL     1       1.806   3.949  18.128  0.00  0.00    +0.000 A 
ENDBRANCH   1  13
BRANCH   1  19
ATOM     19  O   UNL     1       3.073   7.103  19.463  0.00  0.00    +0.000 OA
BRANCH  19  20
ATOM     20  C   UNL     1       2.223   7.941  18.807  0.00  0.00    +0.000 C 
ATOM     21  O   UNL     1       2.142   8.069  17.595  0.00  0.00    +0.000 OA
BRANCH  20  22
ATOM     22  C   UNL     1       1.344   8.696  19.747  0.00  0.00    +0.000 A 
ATOM     23  C   UNL     1       1.231   8.227  21.068  0.00  0.00    +0.000 A 
ATOM     24  C   UNL     1       0.434   8.896  21.998  0.00  0.00    +0.000 A 
ATOM     25  C   UNL     1      -0.260  10.043  21.618  0.00  0.00    +0.000 A 
ATOM     26  C   UNL     1      -0.159  10.517  20.310  0.00  0.00    +0.000 A 
ATOM     27  C   UNL     1       0.641   9.848  19.373  0.00  0.00    +0.000 A 
ENDBRANCH  20  22
ENDBRANCH  19  20
ENDBRANCH   1  19
TORSDOF 6
ENDMDL
MODEL 8
REMARK VINA RESULT:      -8.4      1.590      4.644
REMARK  Name = 
REMARK  6 active torsions:
REMARK  status: ('A' for Active; 'I' for Inactive)
REMARK    1  A    between atoms: C_6  and  C_7
REMARK    2  A    between atoms: C_7  and  O_8
REMARK    3  A    between atoms: C_7  and  C_17
REMARK    4  A    between atoms: O_8  and  C_9
REMARK    5  A    between atoms: C_9  and  C_11
REMARK    6  A    between atoms: C_23  and  O_24
REMARK                            x       y       z     vdW  Elec       q    Type
REMARK                         _______ _______ _______ _____ _____    ______ ____
ROOT
ATOM      1  C   UNL     1       3.336   6.080  18.585  0.00  0.00    +0.000 C 
ENDROOT
BRANCH   1   7
ATOM      2  O   UNL     1       6.362   3.464  14.541  0.00  0.00    +0.000 OA
ATOM      3  C   UNL     1       6.465   4.362  15.361  0.00  0.00    +0.000 C 
ATOM      4  C   UNL     1       6.069   5.783  15.127  0.00  0.00    +0.000 C 
ATOM      5  C   UNL     1       6.282   6.441  16.467  0.00  0.00    +0.000 C 
ATOM      6  O   UNL     1       5.051   6.923  17.014  0.00  0.00    +0.000 OA
ATOM      7  C   UNL     1       4.843   6.340  18.316  0.00  0.00    +0.000 C 
ATOM      8  C   UNL     1       5.761   5.126  18.430  0.00  0.00    +0.000 C 
ATOM      9  C   UNL     1       6.834   5.372  17.376  0.00  0.00    +0.000 C 
ATOM     10  O   UNL     1       7.033   4.202  16.586  0.00  0.00    +0.000 OA
BRANCH   8  11
ATOM     11  O   UNL     1       6.336   5.013  19.735  0.00  0.00    +0.000 OA
ATOM     12  H   UNL     1       7.002   4.304  19.732  0.00  0.00    +0.000 HD
ENDBRANCH   8  11
ENDBRANCH   1   7
BRANCH   1  13
ATOM     13  C   UNL     1       2.519   7.343  18.856  0.00  0.00    +0.000 A 
ATOM     14  C   UNL     1       2.012   7.574  20.148  0.00  0.00    +0.000 A 
ATOM     15  C   UNL     1       1.162   8.653  20.403  0.00  0.00    +0.000 A 
ATOM     16  C   UNL     1       0.811   9.521  19.374  0.00  0.00    +0.000 A 
ATOM     17  C   UNL     1       1.336   9.330  18.098  0.00  0.00    +0.000 A 
ATOM     18  C   UNL     1       2.192   8.255  17.842  0.00  0.00    +0.000 A 
ENDBRANCH   1  13
BRANCH   1  19
ATOM     19  O   UNL     1       2.765   5.316  17.494  0.00  0.00    +0.000 OA
BRANCH  19  20
ATOM     20  C   UNL     1       1.788   4.436  17.847  0.00  0.00    +0.000 C 
ATOM     21  O   UNL     1       0.789   4.180  17.194  0.00  0.00    +0.000 OA
BRANCH  20  22
ATOM     22  C   UNL     1       2.082   3.766  19.148  0.00  0.00    +0.000 A 
ATOM     23  C   UNL     1       1.149   3.908  20.191  0.00  0.00    +0.000 A 
ATOM     24  C   UNL     1       1.360   3.297  21.427  0.00  0.00    +0.000 A 
ATOM     25  C   UNL     1       2.507   2.534  21.635  0.00  0.00    +0.000 A 
ATOM     26  C   UNL     1       3.442   2.387  20.611  0.00  0.00    +0.000 A 
ATOM     27  C   UNL     1       3.234   2.999  19.367  0.00  0.00    +0.000 A 
ENDBRANCH  20  22
ENDBRANCH  19  20
ENDBRANCH   1  19
TORSDOF 6
ENDMDL
MODEL 9
REMARK VINA RESULT:      -8.4      2.214      5.401
REMARK  Name = 
REMARK  6 active torsions:
REMARK  status: ('A' for Active; 'I' for Inactive)
REMARK    1  A    between atoms: C_6  and  C_7
REMARK    2  A    between atoms: C_7  and  O_8
REMARK    3  A    between atoms: C_7  and  C_17
REMARK    4  A    between atoms: O_8  and  C_9
REMARK    5  A    between atoms: C_9  and  C_11
REMARK    6  A    between atoms: C_23  and  O_24
REMARK                            x       y       z     vdW  Elec       q    Type
REMARK                         _______ _______ _______ _____ _____    ______ ____
ROOT
ATOM      1  C   UNL     1       4.292   4.619  17.582  0.00  0.00    +0.000 C 
ENDROOT
BRANCH   1   7
ATOM      2  O   UNL     1       1.363   2.924  22.154  0.00  0.00    +0.000 OA
ATOM      3  C   UNL     1       1.412   2.745  20.948  0.00  0.00    +0.000 C 
ATOM      4  C   UNL     1       0.699   3.575  19.931  0.00  0.00    +0.000 C 
ATOM      5  C   UNL     1       1.181   3.021  18.613  0.00  0.00    +0.000 C 
ATOM      6  O   UNL     1       1.914   4.001  17.872  0.00  0.00    +0.000 OA
ATOM      7  C   UNL     1       3.227   3.489  17.567  0.00  0.00    +0.000 C 
ATOM      8  C   UNL     1       3.490   2.311  18.501  0.00  0.00    +0.000 C 
ATOM      9  C   UNL     1       2.101   1.876  18.951  0.00  0.00    +0.000 C 
ATOM     10  O   UNL     1       2.068   1.706  20.366  0.00  0.00    +0.000 OA
BRANCH   8  11
ATOM     11  O   UNL     1       4.174   1.245  17.834  0.00  0.00    +0.000 OA
ATOM     12  H   UNL     1       5.086   1.522  17.640  0.00  0.00    +0.000 HD
ENDBRANCH   8  11
ENDBRANCH   1   7
BRANCH   1  13
ATOM     13  C   UNL     1       5.255   4.589  16.395  0.00  0.00    +0.000 A 
ATOM     14  C   UNL     1       6.507   5.221  16.505  0.00  0.00    +0.000 A 
ATOM     15  C   UNL     1       7.362   5.318  15.404  0.00  0.00    +0.000 A 
ATOM     16  C   UNL     1       6.981   4.782  14.178  0.00  0.00    +0.000 A 
ATOM     17  C   UNL     1       5.762   4.118  14.061  0.00  0.00    +0.000 A 
ATOM     18  C   UNL     1       4.909   4.014  15.163  0.00  0.00    +0.000 A 
ENDBRANCH   1  13
BRANCH   1  19
ATOM     19  O   UNL     1       3.642   5.910  17.690  0.00  0.00    +0.000 OA
BRANCH  19  20
ATOM     20  C   UNL     1       3.305   6.289  18.954  0.00  0.00    +0.000 C 
ATOM     21  O   UNL     1       3.662   5.735  19.982  0.00  0.00    +0.000 OA
BRANCH  20  22
ATOM     22  C   UNL     1       2.448   7.510  18.963  0.00  0.00    +0.000 A 
ATOM     23  C   UNL     1       1.830   7.874  20.173  0.00  0.00    +0.000 A 
ATOM     24  C   UNL     1       1.025   9.012  20.250  0.00  0.00    +0.000 A 
ATOM     25  C   UNL     1       0.830   9.800  19.118  0.00  0.00    +0.000 A 
ATOM     26  C   UNL     1       1.434   9.448  17.911  0.00  0.00    +0.000 A 
ATOM     27  C   UNL     1       2.244   8.306  17.829  0.00  0.00    +0.000 A 
ENDBRANCH  20  22
ENDBRANCH  19  20
ENDBRANCH   1  19
TORSDOF 6
ENDMDL
