MODEL 1
REMARK VINA RESULT:      -8.6      0.000      0.000
REMARK  Name = 
REMARK  5 active torsions:
REMARK  status: ('A' for Active; 'I' for Inactive)
REMARK    1  A    between atoms: C_1  and  C_2
REMARK    2  A    between atoms: C_5  and  N_6
REMARK    3  A    between atoms: C_11  and  O_12
REMARK    4  A    between atoms: O_12  and  C_13
REMARK    5  A    between atoms: N_21  and  C_22
REMARK                            x       y       z     vdW  Elec       q    Type
REMARK                         _______ _______ _______ _____ _____    ______ ____
ROOT
ATOM      1  N   UNL     1       3.092   5.864  18.741  0.00  0.00    +0.000 N 
ATOM      2  C   UNL     1       2.441   7.009  19.014  0.00  0.00    +0.000 A 
ATOM      3  N   UNL     1       2.146   8.052  18.262  0.00  0.00    +0.000 NA
ATOM      4  C   UNL     1       1.533   8.923  19.122  0.00  0.00    +0.000 A 
ATOM      5  C   UNL     1       0.998  10.200  18.912  0.00  0.00    +0.000 A 
ATOM      6  C   UNL     1       0.438  10.863  20.015  0.00  0.00    +0.000 A 
ATOM      7  C   UNL     1       0.384  10.250  21.277  0.00  0.00    +0.000 A 
ATOM      8  C   UNL     1       0.927   8.980  21.500  0.00  0.00    +0.000 A 
ATOM      9  C   UNL     1       1.478   8.364  20.385  0.00  0.00    +0.000 A 
ATOM     10  O   UNL     1       2.045   7.128  20.322  0.00  0.00    +0.000 OA
ATOM     11  H   UNL     1       3.232   5.248  19.529  0.00  0.00    +0.000 HD
ENDROOT
BRANCH   1  16
ATOM     12  C   UNL     1       6.685   4.648  14.437  0.00  0.00    +0.000 C 
ATOM     13  C   UNL     1       5.713   4.975  15.531  0.00  0.00    +0.000 A 
ATOM     14  C   UNL     1       4.899   3.991  16.096  0.00  0.00    +0.000 A 
ATOM     15  C   UNL     1       4.021   4.313  17.136  0.00  0.00    +0.000 A 
ATOM     16  C   UNL     1       3.944   5.617  17.649  0.00  0.00    +0.000 A 
ATOM     17  C   UNL     1       4.735   6.600  17.046  0.00  0.00    +0.000 A 
ATOM     18  C   UNL     1       5.613   6.285  16.004  0.00  0.00    +0.000 A 
ENDBRANCH   1  16
BRANCH   6  19
ATOM     19  O   UNL     1      -0.127  12.095  19.753  0.00  0.00    +0.000 OA
BRANCH  19  20
ATOM     20  C   UNL     1      -1.504  12.223  19.865  0.00  0.00    +0.000 A 
ATOM     21  N   UNL     1      -2.062  12.724  20.995  0.00  0.00    +0.000 NA
ATOM     22  C   UNL     1      -3.403  12.826  21.048  0.00  0.00    +0.000 A 
ATOM     23  N   UNL     1      -4.294  12.510  20.092  0.00  0.00    +0.000 NA
ATOM     24  C   UNL     1      -3.684  12.050  18.985  0.00  0.00    +0.000 A 
ATOM     25  C   UNL     1      -2.325  11.880  18.797  0.00  0.00    +0.000 A 
ATOM     26  C   UNL     1      -2.207  11.370  17.490  0.00  0.00    +0.000 A 
ATOM     27  N   UNL     1      -3.392  11.233  16.880  0.00  0.00    +0.000 NA
ATOM     28  N   UNL     1      -4.273  11.666  17.811  0.00  0.00    +0.000 N 
ATOM     29  C   UNL     1      -5.683  11.727  17.516  0.00  0.00    +0.000 C 
ENDBRANCH  19  20
ENDBRANCH   6  19
TORSDOF 3
ENDMDL
MODEL 2
REMARK VINA RESULT:      -8.5      0.465      1.010
REMARK  Name = 
REMARK  5 active torsions:
REMARK  status: ('A' for Active; 'I' for Inactive)
REMARK    1  A    between atoms: C_1  and  C_2
REMARK    2  A    between atoms: C_5  and  N_6
REMARK    3  A    between atoms: C_11  and  O_12
REMARK    4  A    between atoms: O_12  and  C_13
REMARK    5  A    between atoms: N_21  and  C_22
REMARK                            x       y       z     vdW  Elec       q    Type
REMARK                         _______ _______ _______ _____ _____    ______ ____
ROOT
ATOM      1  N   UNL     1       3.270   5.882  18.790  0.00  0.00    +0.000 N 
ATOM      2  C   UNL     1       2.553   7.014  18.907  0.00  0.00    +0.000 A 
ATOM      3  N   UNL     1       2.209   7.931  18.023  0.00  0.00    +0.000 NA
ATOM      4  C   UNL     1       1.538   8.871  18.758  0.00  0.00    +0.000 A 
ATOM      5  C   UNL     1       0.934  10.076  18.380  0.00  0.00    +0.000 A 
ATOM      6  C   UNL     1       0.324  10.845  19.383  0.00  0.00    +0.000 A 
ATOM      7  C   UNL     1       0.288  10.400  20.714  0.00  0.00    +0.000 A 
ATOM      8  C   UNL     1       0.899   9.203  21.105  0.00  0.00    +0.000 A 
ATOM      9  C   UNL     1       1.497   8.479  20.083  0.00  0.00    +0.000 A 
ATOM     10  O   UNL     1       2.134   7.280  20.186  0.00  0.00    +0.000 OA
ATOM     11  H   UNL     1       3.435   5.384  19.653  0.00  0.00    +0.000 HD
ENDROOT
BRANCH   1  16
ATOM     12  C   UNL     1       6.780   4.744  14.398  0.00  0.00    +0.000 C 
ATOM     13  C   UNL     1       5.894   5.023  15.574  0.00  0.00    +0.000 A 
ATOM     14  C   UNL     1       5.981   6.224  16.280  0.00  0.00    +0.000 A 
ATOM     15  C   UNL     1       5.123   6.475  17.357  0.00  0.00    +0.000 A 
ATOM     16  C   UNL     1       4.148   5.543  17.744  0.00  0.00    +0.000 A 
ATOM     17  C   UNL     1       4.099   4.328  17.054  0.00  0.00    +0.000 A 
ATOM     18  C   UNL     1       4.956   4.070  15.979  0.00  0.00    +0.000 A 
ENDBRANCH   1  16
BRANCH   6  19
ATOM     19  O   UNL     1      -0.306  11.997  18.958  0.00  0.00    +0.000 OA
BRANCH  19  20
ATOM     20  C   UNL     1      -1.640  12.177  19.292  0.00  0.00    +0.000 A 
ATOM     21  N   UNL     1      -1.987  12.856  20.415  0.00  0.00    +0.000 NA
ATOM     22  C   UNL     1      -3.296  13.001  20.689  0.00  0.00    +0.000 A 
ATOM     23  N   UNL     1      -4.345  12.569  19.964  0.00  0.00    +0.000 NA
ATOM     24  C   UNL     1      -3.943  11.934  18.849  0.00  0.00    +0.000 A 
ATOM     25  C   UNL     1      -2.640  11.701  18.452  0.00  0.00    +0.000 A 
ATOM     26  C   UNL     1      -2.758  10.999  17.237  0.00  0.00    +0.000 A 
ATOM     27  N   UNL     1      -4.032  10.804  16.874  0.00  0.00    +0.000 NA
ATOM     28  N   UNL     1      -4.733  11.394  17.871  0.00  0.00    +0.000 N 
ATOM     29  C   UNL     1      -6.172  11.448  17.825  0.00  0.00    +0.000 C 
ENDBRANCH  19  20
ENDBRANCH   6  19
TORSDOF 3
ENDMDL
MODEL 3
REMARK VINA RESULT:      -8.5      0.845      2.058
REMARK  Name = 
REMARK  5 active torsions:
REMARK  status: ('A' for Active; 'I' for Inactive)
REMARK    1  A    between atoms: C_1  and  C_2
REMARK    2  A    between atoms: C_5  and  N_6
REMARK    3  A    between atoms: C_11  and  O_12
REMARK    4  A    between atoms: O_12  and  C_13
REMARK    5  A    between atoms: N_21  and  C_22
REMARK                            x       y       z     vdW  Elec       q    Type
REMARK                         _______ _______ _______ _____ _____    ______ ____
ROOT
ATOM      1  N   UNL     1       3.316   5.959  18.859  0.00  0.00    +0.000 N 
ATOM      2  C   UNL     1       2.563   7.073  18.918  0.00  0.00    +0.000 A 
ATOM      3  N   UNL     1       2.176   7.920  17.984  0.00  0.00    +0.000 NA
ATOM      4  C   UNL     1       1.484   8.882  18.670  0.00  0.00    +0.000 A 
ATOM      5  C   UNL     1       0.835  10.041  18.228  0.00  0.00    +0.000 A 
ATOM      6  C   UNL     1       0.213  10.850  19.192  0.00  0.00    +0.000 A 
ATOM      7  C   UNL     1       0.211  10.488  20.548  0.00  0.00    +0.000 A 
ATOM      8  C   UNL     1       0.868   9.338  21.002  0.00  0.00    +0.000 A 
ATOM      9  C   UNL     1       1.476   8.573  20.018  0.00  0.00    +0.000 A 
ATOM     10  O   UNL     1       2.154   7.404  20.184  0.00  0.00    +0.000 OA
ATOM     11  H   UNL     1       3.510   5.522  19.748  0.00  0.00    +0.000 HD
ENDROOT
BRANCH   1  16
ATOM     12  C   UNL     1       6.826   4.682  14.505  0.00  0.00    +0.000 C 
ATOM     13  C   UNL     1       5.939   4.995  15.672  0.00  0.00    +0.000 A 
ATOM     14  C   UNL     1       6.083   6.180  16.396  0.00  0.00    +0.000 A 
ATOM     15  C   UNL     1       5.224   6.464  17.463  0.00  0.00    +0.000 A 
ATOM     16  C   UNL     1       4.191   5.585  17.822  0.00  0.00    +0.000 A 
ATOM     17  C   UNL     1       4.084   4.384  17.113  0.00  0.00    +0.000 A 
ATOM     18  C   UNL     1       4.942   4.092  16.048  0.00  0.00    +0.000 A 
ENDBRANCH   1  16
BRANCH   6  19
ATOM     19  O   UNL     1      -0.461  11.953  18.707  0.00  0.00    +0.000 OA
BRANCH  19  20
ATOM     20  C   UNL     1      -1.805  11.814  18.392  0.00  0.00    +0.000 A 
ATOM     21  N   UNL     1      -2.186  11.313  17.190  0.00  0.00    +0.000 NA
ATOM     22  C   UNL     1      -3.503  11.200  16.939  0.00  0.00    +0.000 A 
ATOM     23  N   UNL     1      -4.529  11.505  17.755  0.00  0.00    +0.000 NA
ATOM     24  C   UNL     1      -4.093  11.965  18.941  0.00  0.00    +0.000 A 
ATOM     25  C   UNL     1      -2.778  12.146  19.328  0.00  0.00    +0.000 A 
ATOM     26  C   UNL     1      -2.859  12.652  20.639  0.00  0.00    +0.000 A 
ATOM     27  N   UNL     1      -4.122  12.777  21.068  0.00  0.00    +0.000 NA
ATOM     28  N   UNL     1      -4.852  12.341  20.015  0.00  0.00    +0.000 N 
ATOM     29  C   UNL     1      -6.289  12.267  20.099  0.00  0.00    +0.000 C 
ENDBRANCH  19  20
ENDBRANCH   6  19
TORSDOF 3
ENDMDL
MODEL 4
REMARK VINA RESULT:      -8.4      0.996      1.906
REMARK  Name = 
REMARK  5 active torsions:
REMARK  status: ('A' for Active; 'I' for Inactive)
REMARK    1  A    between atoms: C_1  and  C_2
REMARK    2  A    between atoms: C_5  and  N_6
REMARK    3  A    between atoms: C_11  and  O_12
REMARK    4  A    between atoms: O_12  and  C_13
REMARK    5  A    between atoms: N_21  and  C_22
REMARK                            x       y       z     vdW  Elec       q    Type
REMARK                         _______ _______ _______ _____ _____    ______ ____
ROOT
ATOM      1  N   UNL     1       3.322   6.163  18.831  0.00  0.00    +0.000 N 
ATOM      2  C   UNL     1       2.503   7.229  18.888  0.00  0.00    +0.000 A 
ATOM      3  N   UNL     1       2.036   8.028  17.948  0.00  0.00    +0.000 NA
ATOM      4  C   UNL     1       1.305   8.961  18.634  0.00  0.00    +0.000 A 
ATOM      5  C   UNL     1       0.573  10.067  18.186  0.00  0.00    +0.000 A 
ATOM      6  C   UNL     1      -0.070  10.859  19.150  0.00  0.00    +0.000 A 
ATOM      7  C   UNL     1      -0.009  10.531  20.514  0.00  0.00    +0.000 A 
ATOM      8  C   UNL     1       0.731   9.435  20.973  0.00  0.00    +0.000 A 
ATOM      9  C   UNL     1       1.357   8.685  19.987  0.00  0.00    +0.000 A 
ATOM     10  O   UNL     1       2.111   7.565  20.159  0.00  0.00    +0.000 OA
ATOM     11  H   UNL     1       3.569   5.760  19.723  0.00  0.00    +0.000 HD
ENDROOT
BRANCH   1  16
ATOM     12  C   UNL     1       6.894   4.511  14.657  0.00  0.00    +0.000 C 
ATOM     13  C   UNL     1       5.934   4.964  15.716  0.00  0.00    +0.000 A 
ATOM     14  C   UNL     1       4.841   4.179  16.089  0.00  0.00    +0.000 A 
ATOM     15  C   UNL     1       3.975   4.607  17.100  0.00  0.00    +0.000 A 
ATOM     16  C   UNL     1       4.187   5.819  17.776  0.00  0.00    +0.000 A 
ATOM     17  C   UNL     1       5.262   6.613  17.365  0.00  0.00    +0.000 A 
ATOM     18  C   UNL     1       6.129   6.192  16.352  0.00  0.00    +0.000 A 
ENDBRANCH   1  16
BRANCH   6  19
ATOM     19  O   UNL     1      -0.826  11.906  18.662  0.00  0.00    +0.000 OA
BRANCH  19  20
ATOM     20  C   UNL     1      -2.050  11.615  18.077  0.00  0.00    +0.000 A 
ATOM     21  N   UNL     1      -2.110  10.997  16.871  0.00  0.00    +0.000 NA
ATOM     22  C   UNL     1      -3.325  10.739  16.352  0.00  0.00    +0.000 A 
ATOM     23  N   UNL     1      -4.528  10.997  16.896  0.00  0.00    +0.000 NA
ATOM     24  C   UNL     1      -4.407  11.578  18.102  0.00  0.00    +0.000 A 
ATOM     25  C   UNL     1      -3.231  11.913  18.747  0.00  0.00    +0.000 A 
ATOM     26  C   UNL     1      -3.643  12.498  19.960  0.00  0.00    +0.000 A 
ATOM     27  N   UNL     1      -4.976  12.527  20.093  0.00  0.00    +0.000 NA
ATOM     28  N   UNL     1      -5.415  11.950  18.950  0.00  0.00    +0.000 N 
ATOM     29  C   UNL     1      -6.823  11.742  18.726  0.00  0.00    +0.000 C 
ENDBRANCH  19  20
ENDBRANCH   6  19
TORSDOF 3
ENDMDL
MODEL 5
REMARK VINA RESULT:      -8.4      2.184      9.770
REMARK  Name = 
REMARK  5 active torsions:
REMARK  status: ('A' for Active; 'I' for Inactive)
REMARK    1  A    between atoms: C_1  and  C_2
REMARK    2  A    between atoms: C_5  and  N_6
REMARK    3  A    between atoms: C_11  and  O_12
REMARK    4  A    between atoms: O_12  and  C_13
REMARK    5  A    between atoms: N_21  and  C_22
REMARK                            x       y       z     vdW  Elec       q    Type
REMARK                         _______ _______ _______ _____ _____    ______ ____
ROOT
ATOM      1  N   UNL     1      -1.435  12.128  20.338  0.00  0.00    +0.000 N 
ATOM      2  C   UNL     1      -0.631  11.066  20.148  0.00  0.00    +0.000 A 
ATOM      3  N   UNL     1      -0.208  10.127  20.972  0.00  0.00    +0.000 NA
ATOM      4  C   UNL     1       0.633   9.364  20.208  0.00  0.00    +0.000 A 
ATOM      5  C   UNL     1       1.385   8.225  20.523  0.00  0.00    +0.000 A 
ATOM      6  C   UNL     1       2.178   7.664  19.510  0.00  0.00    +0.000 A 
ATOM      7  C   UNL     1       2.186   8.206  18.214  0.00  0.00    +0.000 A 
ATOM      8  C   UNL     1       1.448   9.350  17.892  0.00  0.00    +0.000 A 
ATOM      9  C   UNL     1       0.686   9.877  18.925  0.00  0.00    +0.000 A 
ATOM     10  O   UNL     1      -0.135  10.962  18.874  0.00  0.00    +0.000 OA
ATOM     11  H   UNL     1      -1.553  12.729  19.536  0.00  0.00    +0.000 HD
ENDROOT
BRANCH   1  16
ATOM     12  C   UNL     1      -2.993  14.712  25.218  0.00  0.00    +0.000 C 
ATOM     13  C   UNL     1      -2.579  13.997  23.966  0.00  0.00    +0.000 A 
ATOM     14  C   UNL     1      -3.513  13.341  23.162  0.00  0.00    +0.000 A 
ATOM     15  C   UNL     1      -3.109  12.706  21.983  0.00  0.00    +0.000 A 
ATOM     16  C   UNL     1      -1.769  12.725  21.568  0.00  0.00    +0.000 A 
ATOM     17  C   UNL     1      -0.838  13.351  22.403  0.00  0.00    +0.000 A 
ATOM     18  C   UNL     1      -1.235  13.984  23.585  0.00  0.00    +0.000 A 
ENDBRANCH   1  16
BRANCH   6  19
ATOM     19  O   UNL     1       2.859   6.512  19.848  0.00  0.00    +0.000 OA
BRANCH  19  20
ATOM     20  C   UNL     1       2.987   5.520  18.887  0.00  0.00    +0.000 A 
ATOM     21  N   UNL     1       1.961   4.671  18.627  0.00  0.00    +0.000 NA
ATOM     22  C   UNL     1       2.141   3.729  17.684  0.00  0.00    +0.000 A 
ATOM     23  N   UNL     1       3.230   3.520  16.921  0.00  0.00    +0.000 NA
ATOM     24  C   UNL     1       4.201   4.409  17.198  0.00  0.00    +0.000 A 
ATOM     25  C   UNL     1       4.158   5.415  18.145  0.00  0.00    +0.000 A 
ATOM     26  C   UNL     1       5.412   6.049  18.048  0.00  0.00    +0.000 A 
ATOM     27  N   UNL     1       6.195   5.505  17.107  0.00  0.00    +0.000 NA
ATOM     28  N   UNL     1       5.426   4.514  16.598  0.00  0.00    +0.000 N 
ATOM     29  C   UNL     1       5.899   3.707  15.502  0.00  0.00    +0.000 C 
ENDBRANCH  19  20
ENDBRANCH   6  19
TORSDOF 3
ENDMDL
MODEL 6
REMARK VINA RESULT:      -8.3      6.369      9.222
REMARK  Name = 
REMARK  5 active torsions:
REMARK  status: ('A' for Active; 'I' for Inactive)
REMARK    1  A    between atoms: C_1  and  C_2
REMARK    2  A    between atoms: C_5  and  N_6
REMARK    3  A    between atoms: C_11  and  O_12
REMARK    4  A    between atoms: O_12  and  C_13
REMARK    5  A    between atoms: N_21  and  C_22
REMARK                            x       y       z     vdW  Elec       q    Type
REMARK                         _______ _______ _______ _____ _____    ______ ____
ROOT
ATOM      1  N   UNL     1       9.294  10.067  18.386  0.00  0.00    +0.000 N 
ATOM      2  C   UNL     1       8.455   9.043  18.145  0.00  0.00    +0.000 A 
ATOM      3  N   UNL     1       7.356   8.961  17.420  0.00  0.00    +0.000 NA
ATOM      4  C   UNL     1       6.919   7.679  17.619  0.00  0.00    +0.000 A 
ATOM      5  C   UNL     1       5.803   6.999  17.117  0.00  0.00    +0.000 A 
ATOM      6  C   UNL     1       5.611   5.669  17.521  0.00  0.00    +0.000 A 
ATOM      7  C   UNL     1       6.529   5.031  18.371  0.00  0.00    +0.000 A 
ATOM      8  C   UNL     1       7.641   5.706  18.888  0.00  0.00    +0.000 A 
ATOM      9  C   UNL     1       7.787   7.020  18.469  0.00  0.00    +0.000 A 
ATOM     10  O   UNL     1       8.786   7.885  18.800  0.00  0.00    +0.000 OA
ATOM     11  H   UNL     1      10.042   9.870  19.035  0.00  0.00    +0.000 HD
ENDROOT
BRANCH   1  16
ATOM     12  C   UNL     1       8.223  15.684  17.914  0.00  0.00    +0.000 C 
ATOM     13  C   UNL     1       8.528  14.218  17.999  0.00  0.00    +0.000 A 
ATOM     14  C   UNL     1       9.642  13.748  18.698  0.00  0.00    +0.000 A 
ATOM     15  C   UNL     1       9.891  12.374  18.789  0.00  0.00    +0.000 A 
ATOM     16  C   UNL     1       9.028  11.437  18.201  0.00  0.00    +0.000 A 
ATOM     17  C   UNL     1       7.939  11.923  17.471  0.00  0.00    +0.000 A 
ATOM     18  C   UNL     1       7.687  13.295  17.373  0.00  0.00    +0.000 A 
ENDBRANCH   1  16
BRANCH   6  19
ATOM     19  O   UNL     1       4.530   5.019  16.960  0.00  0.00    +0.000 OA
BRANCH  19  20
ATOM     20  C   UNL     1       3.925   4.003  17.685  0.00  0.00    +0.000 A 
ATOM     21  N   UNL     1       4.054   2.708  17.302  0.00  0.00    +0.000 NA
ATOM     22  C   UNL     1       3.447   1.764  18.044  0.00  0.00    +0.000 A 
ATOM     23  N   UNL     1       2.723   1.933  19.165  0.00  0.00    +0.000 NA
ATOM     24  C   UNL     1       2.656   3.230  19.516  0.00  0.00    +0.000 A 
ATOM     25  C   UNL     1       3.216   4.300  18.843  0.00  0.00    +0.000 A 
ATOM     26  C   UNL     1       2.853   5.428  19.604  0.00  0.00    +0.000 A 
ATOM     27  N   UNL     1       2.128   5.111  20.685  0.00  0.00    +0.000 NA
ATOM     28  N   UNL     1       2.033   3.763  20.611  0.00  0.00    +0.000 N 
ATOM     29  C   UNL     1       1.358   3.016  21.642  0.00  0.00    +0.000 C 
ENDBRANCH  19  20
ENDBRANCH   6  19
TORSDOF 3
ENDMDL
MODEL 7
REMARK VINA RESULT:      -8.3      0.977      1.181
REMARK  Name = 
REMARK  5 active torsions:
REMARK  status: ('A' for Active; 'I' for Inactive)
REMARK    1  A    between atoms: C_1  and  C_2
REMARK    2  A    between atoms: C_5  and  N_6
REMARK    3  A    between atoms: C_11  and  O_12
REMARK    4  A    between atoms: O_12  and  C_13
REMARK    5  A    between atoms: N_21  and  C_22
REMARK                            x       y       z     vdW  Elec       q    Type
REMARK                         _______ _______ _______ _____ _____    ______ ____
ROOT
ATOM      1  N   UNL     1       2.928   5.787  19.821  0.00  0.00    +0.000 N 
ATOM      2  C   UNL     1       2.258   6.953  19.843  0.00  0.00    +0.000 A 
ATOM      3  N   UNL     1       2.073   7.876  18.918  0.00  0.00    +0.000 NA
ATOM      4  C   UNL     1       1.361   8.854  19.559  0.00  0.00    +0.000 A 
ATOM      5  C   UNL     1       0.870  10.083  19.103  0.00  0.00    +0.000 A 
ATOM      6  C   UNL     1       0.176  10.890  20.018  0.00  0.00    +0.000 A 
ATOM      7  C   UNL     1      -0.049  10.460  21.336  0.00  0.00    +0.000 A 
ATOM      8  C   UNL     1       0.449   9.240  21.805  0.00  0.00    +0.000 A 
ATOM      9  C   UNL     1       1.135   8.478  20.870  0.00  0.00    +0.000 A 
ATOM     10  O   UNL     1       1.695   7.251  21.057  0.00  0.00    +0.000 OA
ATOM     11  H   UNL     1       2.959   5.290  20.700  0.00  0.00    +0.000 HD
ENDROOT
BRANCH   1  16
ATOM     12  C   UNL     1       7.083   4.440  16.101  0.00  0.00    +0.000 C 
ATOM     13  C   UNL     1       5.995   4.747  17.086  0.00  0.00    +0.000 A 
ATOM     14  C   UNL     1       6.289   5.102  18.404  0.00  0.00    +0.000 A 
ATOM     15  C   UNL     1       5.259   5.414  19.298  0.00  0.00    +0.000 A 
ATOM     16  C   UNL     1       3.915   5.397  18.896  0.00  0.00    +0.000 A 
ATOM     17  C   UNL     1       3.633   5.001  17.584  0.00  0.00    +0.000 A 
ATOM     18  C   UNL     1       4.658   4.684  16.687  0.00  0.00    +0.000 A 
ENDBRANCH   1  16
BRANCH   6  19
ATOM     19  O   UNL     1      -0.339  12.067  19.513  0.00  0.00    +0.000 OA
BRANCH  19  20
ATOM     20  C   UNL     1      -1.696  12.311  19.669  0.00  0.00    +0.000 A 
ATOM     21  N   UNL     1      -2.138  13.184  20.608  0.00  0.00    +0.000 NA
ATOM     22  C   UNL     1      -3.465  13.381  20.714  0.00  0.00    +0.000 A 
ATOM     23  N   UNL     1      -4.445  12.830  19.974  0.00  0.00    +0.000 NA
ATOM     24  C   UNL     1      -3.947  12.000  19.040  0.00  0.00    +0.000 A 
ATOM     25  C   UNL     1      -2.615  11.694  18.828  0.00  0.00    +0.000 A 
ATOM     26  C   UNL     1      -2.626  10.783  17.755  0.00  0.00    +0.000 A 
ATOM     27  N   UNL     1      -3.862  10.531  17.303  0.00  0.00    +0.000 NA
ATOM     28  N   UNL     1      -4.645  11.295  18.099  0.00  0.00    +0.000 N 
ATOM     29  C   UNL     1      -6.071  11.346  17.894  0.00  0.00    +0.000 C 
ENDBRANCH  19  20
ENDBRANCH   6  19
TORSDOF 3
ENDMDL
MODEL 8
REMARK VINA RESULT:      -8.2      3.142      9.425
REMARK  Name = 
REMARK  5 active torsions:
REMARK  status: ('A' for Active; 'I' for Inactive)
REMARK    1  A    between atoms: C_1  and  C_2
REMARK    2  A    between atoms: C_5  and  N_6
REMARK    3  A    between atoms: C_11  and  O_12
REMARK    4  A    between atoms: O_12  and  C_13
REMARK    5  A    between atoms: N_21  and  C_22
REMARK                            x       y       z     vdW  Elec       q    Type
REMARK                         _______ _______ _______ _____ _____    ______ ____
ROOT
ATOM      1  N   UNL     1       0.771   8.779  21.091  0.00  0.00    +0.000 N 
ATOM      2  C   UNL     1       1.477   7.762  20.565  0.00  0.00    +0.000 A 
ATOM      3  N   UNL     1       2.313   7.710  19.545  0.00  0.00    +0.000 NA
ATOM      4  C   UNL     1       2.660   6.388  19.464  0.00  0.00    +0.000 A 
ATOM      5  C   UNL     1       3.514   5.713  18.583  0.00  0.00    +0.000 A 
ATOM      6  C   UNL     1       3.659   4.327  18.746  0.00  0.00    +0.000 A 
ATOM      7  C   UNL     1       2.998   3.647  19.782  0.00  0.00    +0.000 A 
ATOM      8  C   UNL     1       2.132   4.310  20.659  0.00  0.00    +0.000 A 
ATOM      9  C   UNL     1       2.012   5.677  20.457  0.00  0.00    +0.000 A 
ATOM     10  O   UNL     1       1.262   6.555  21.178  0.00  0.00    +0.000 OA
ATOM     11  H   UNL     1       0.153   8.528  21.849  0.00  0.00    +0.000 HD
ENDROOT
BRANCH   1  16
ATOM     12  C   UNL     1      -0.417  13.658  18.317  0.00  0.00    +0.000 C 
ATOM     13  C   UNL     1      -0.141  12.392  19.072  0.00  0.00    +0.000 A 
ATOM     14  C   UNL     1      -0.782  11.196  18.744  0.00  0.00    +0.000 A 
ATOM     15  C   UNL     1      -0.487  10.021  19.443  0.00  0.00    +0.000 A 
ATOM     16  C   UNL     1       0.466  10.005  20.472  0.00  0.00    +0.000 A 
ATOM     17  C   UNL     1       1.072  11.218  20.817  0.00  0.00    +0.000 A 
ATOM     18  C   UNL     1       0.778  12.397  20.124  0.00  0.00    +0.000 A 
ENDBRANCH   1  16
BRANCH   6  19
ATOM     19  O   UNL     1       4.552   3.710  17.893  0.00  0.00    +0.000 OA
BRANCH  19  20
ATOM     20  C   UNL     1       5.553   4.482  17.322  0.00  0.00    +0.000 A 
ATOM     21  N   UNL     1       6.298   5.323  18.083  0.00  0.00    +0.000 NA
ATOM     22  C   UNL     1       7.256   6.046  17.475  0.00  0.00    +0.000 A 
ATOM     23  N   UNL     1       7.604   6.032  16.176  0.00  0.00    +0.000 NA
ATOM     24  C   UNL     1       6.856   5.159  15.477  0.00  0.00    +0.000 A 
ATOM     25  C   UNL     1       5.835   4.366  15.965  0.00  0.00    +0.000 A 
ATOM     26  C   UNL     1       5.372   3.650  14.844  0.00  0.00    +0.000 A 
ATOM     27  N   UNL     1       6.048   3.948  13.726  0.00  0.00    +0.000 NA
ATOM     28  N   UNL     1       6.953   4.863  14.145  0.00  0.00    +0.000 N 
ATOM     29  C   UNL     1       7.925   5.406  13.230  0.00  0.00    +0.000 C 
ENDBRANCH  19  20
ENDBRANCH   6  19
TORSDOF 3
ENDMDL
MODEL 9
REMARK VINA RESULT:      -8.0      2.587      3.464
REMARK  Name = 
REMARK  5 active torsions:
REMARK  status: ('A' for Active; 'I' for Inactive)
REMARK    1  A    between atoms: C_1  and  C_2
REMARK    2  A    between atoms: C_5  and  N_6
REMARK    3  A    between atoms: C_11  and  O_12
REMARK    4  A    between atoms: O_12  and  C_13
REMARK    5  A    between atoms: N_21  and  C_22
REMARK                            x       y       z     vdW  Elec       q    Type
REMARK                         _______ _______ _______ _____ _____    ______ ____
ROOT
ATOM      1  N   UNL     1       3.509   5.312  18.675  0.00  0.00    +0.000 N 
ATOM      2  C   UNL     1       2.812   6.429  18.954  0.00  0.00    +0.000 A 
ATOM      3  N   UNL     1       2.506   7.480  18.217  0.00  0.00    +0.000 NA
ATOM      4  C   UNL     1       1.837   8.308  19.077  0.00  0.00    +0.000 A 
ATOM      5  C   UNL     1       1.266   9.571  18.881  0.00  0.00    +0.000 A 
ATOM      6  C   UNL     1       0.647  10.188  19.979  0.00  0.00    +0.000 A 
ATOM      7  C   UNL     1       0.572   9.541  21.224  0.00  0.00    +0.000 A 
ATOM      8  C   UNL     1       1.150   8.284  21.434  0.00  0.00    +0.000 A 
ATOM      9  C   UNL     1       1.758   7.716  20.324  0.00  0.00    +0.000 A 
ATOM     10  O   UNL     1       2.369   6.501  20.250  0.00  0.00    +0.000 OA
ATOM     11  H   UNL     1       3.645   4.682  19.452  0.00  0.00    +0.000 HD
ENDROOT
BRANCH   1  16
ATOM     12  C   UNL     1       7.104   4.798  14.234  0.00  0.00    +0.000 C 
ATOM     13  C   UNL     1       6.194   4.908  15.420  0.00  0.00    +0.000 A 
ATOM     14  C   UNL     1       6.308   5.963  16.328  0.00  0.00    +0.000 A 
ATOM     15  C   UNL     1       5.429   6.061  17.411  0.00  0.00    +0.000 A 
ATOM     16  C   UNL     1       4.405   5.122  17.606  0.00  0.00    +0.000 A 
ATOM     17  C   UNL     1       4.328   4.049  16.713  0.00  0.00    +0.000 A 
ATOM     18  C   UNL     1       5.206   3.943  15.630  0.00  0.00    +0.000 A 
ENDBRANCH   1  16
BRANCH   6  19
ATOM     19  O   UNL     1       0.050  11.406  19.728  0.00  0.00    +0.000 OA
BRANCH  19  20
ATOM     20  C   UNL     1       0.313  12.458  20.594  0.00  0.00    +0.000 A 
ATOM     21  N   UNL     1       1.410  13.237  20.421  0.00  0.00    +0.000 NA
ATOM     22  C   UNL     1       1.615  14.244  21.291  0.00  0.00    +0.000 A 
ATOM     23  N   UNL     1       0.842  14.609  22.330  0.00  0.00    +0.000 NA
ATOM     24  C   UNL     1      -0.245  13.824  22.433  0.00  0.00    +0.000 A 
ATOM     25  C   UNL     1      -0.573  12.752  21.623  0.00  0.00    +0.000 A 
ATOM     26  C   UNL     1      -1.786  12.266  22.149  0.00  0.00    +0.000 A 
ATOM     27  N   UNL     1      -2.212  12.974  23.204  0.00  0.00    +0.000 NA
ATOM     28  N   UNL     1      -1.258  13.923  23.347  0.00  0.00    +0.000 N 
ATOM     29  C   UNL     1      -1.378  14.938  24.364  0.00  0.00    +0.000 C 
ENDBRANCH  19  20
ENDBRANCH   6  19
TORSDOF 3
ENDMDL
