MODEL 1
REMARK VINA RESULT:      -7.8      0.000      0.000
REMARK  Name = 
REMARK  6 active torsions:
REMARK  status: ('A' for Active; 'I' for Inactive)
REMARK    1  A    between atoms: C_1  and  O_2
REMARK    2  A    between atoms: O_2  and  C_3
REMARK    3  A    between atoms: C_4  and  N_5
REMARK    4  A    between atoms: C_6  and  C_8
REMARK    5  A    between atoms: N_22  and  C_23
REMARK    6  A    between atoms: C_23  and  C_24
REMARK                            x       y       z     vdW  Elec       q    Type
REMARK                         _______ _______ _______ _____ _____    ______ ____
ROOT
ATOM      1  C   UNL     1      -0.590  11.659  19.766  0.00  0.00    +0.000 C 
ATOM      2  C   UNL     1      -1.963  12.360  19.505  0.00  0.00    +0.000 C 
ATOM      3  C   UNL     1      -2.548  11.597  18.359  0.00  0.00    +0.000 A 
ATOM      4  C   UNL     1      -3.761  11.856  17.727  0.00  0.00    +0.000 A 
ATOM      5  C   UNL     1      -4.173  11.025  16.686  0.00  0.00    +0.000 A 
ATOM      6  C   UNL     1      -3.376   9.946  16.290  0.00  0.00    +0.000 A 
ATOM      7  C   UNL     1      -2.153   9.702  16.919  0.00  0.00    +0.000 A 
ATOM      8  C   UNL     1      -1.737  10.541  17.950  0.00  0.00    +0.000 A 
ATOM      9  C   UNL     1      -0.440  10.475  18.731  0.00  0.00    +0.000 C 
ATOM     10  C   UNL     1      -0.346   9.138  19.500  0.00  0.00    +0.000 C 
ATOM     11  C   UNL     1       1.040   8.951  20.121  0.00  0.00    +0.000 C 
ATOM     12  N   UNL     1       2.124   8.982  19.131  0.00  0.00    +0.000 NA
ATOM     13  C   UNL     1       2.116  10.283  18.436  0.00  0.00    +0.000 C 
ATOM     14  C   UNL     1       0.771  10.630  17.778  0.00  0.00    +0.000 C 
ENDROOT
BRANCH   2  15
ATOM     15  N   UNL     1      -2.821  12.242  20.671  0.00  0.00    +0.000 N 
ATOM     16  C   UNL     1      -3.351  13.332  21.316  0.00  0.00    +0.000 C 
ATOM     17  O   UNL     1      -3.219  14.480  20.919  0.00  0.00    +0.000 OA
ATOM     18  H   UNL     1      -3.131  11.318  20.934  0.00  0.00    +0.000 HD
BRANCH  16  19
ATOM     19  C   UNL     1      -4.097  13.002  22.530  0.00  0.00    +0.000 A 
ATOM     20  C   UNL     1      -3.571  12.529  23.783  0.00  0.00    +0.000 A 
ATOM     21  C   UNL     1      -4.544  12.372  24.746  0.00  0.00    +0.000 A 
ATOM     22  S   UNL     1      -6.098  12.755  24.153  0.00  0.00    +0.000 S 
ATOM     23  C   UNL     1      -5.469  13.167  22.617  0.00  0.00    +0.000 A 
ENDBRANCH  16  19
ENDBRANCH   2  15
BRANCH   1  25
ATOM     24  C   UNL     1       0.674  13.367  20.842  0.00  0.00    +0.000 C 
ATOM     25  O   UNL     1       0.493  12.592  19.661  0.00  0.00    +0.000 OA
ENDBRANCH   1  25
BRANCH  12  26
ATOM     26  C   UNL     1       2.099   7.871  18.166  0.00  0.00    +0.000 C 
BRANCH  26  27
ATOM     27  C   UNL     1       3.235   6.879  18.306  0.00  0.00    +0.000 A 
ATOM     28  C   UNL     1       3.238   5.927  19.350  0.00  0.00    +0.000 A 
ATOM     29  C   UNL     1       4.299   5.025  19.497  0.00  0.00    +0.000 A 
ATOM     30  C   UNL     1       5.329   5.089  18.583  0.00  0.00    +0.000 A 
ATOM     31  C   UNL     1       5.328   6.001  17.557  0.00  0.00    +0.000 A 
ATOM     32  C   UNL     1       4.304   6.908  17.392  0.00  0.00    +0.000 A 
ATOM     33  O   UNL     1       6.426   5.896  16.762  0.00  0.00    +0.000 OA
ATOM     34  C   UNL     1       7.114   4.800  17.399  0.00  0.00    +0.000 C 
ATOM     35  O   UNL     1       6.434   4.297  18.569  0.00  0.00    +0.000 OA
ENDBRANCH  26  27
ENDBRANCH  12  26
TORSDOF 5
ENDMDL
MODEL 2
REMARK VINA RESULT:      -7.7      0.960      1.558
REMARK  Name = 
REMARK  6 active torsions:
REMARK  status: ('A' for Active; 'I' for Inactive)
REMARK    1  A    between atoms: C_1  and  O_2
REMARK    2  A    between atoms: O_2  and  C_3
REMARK    3  A    between atoms: C_4  and  N_5
REMARK    4  A    between atoms: C_6  and  C_8
REMARK    5  A    between atoms: N_22  and  C_23
REMARK    6  A    between atoms: C_23  and  C_24
REMARK                            x       y       z     vdW  Elec       q    Type
REMARK                         _______ _______ _______ _____ _____    ______ ____
ROOT
ATOM      1  C   UNL     1      -0.555  11.650  19.752  0.00  0.00    +0.000 C 
ATOM      2  C   UNL     1      -1.927  12.362  19.524  0.00  0.00    +0.000 C 
ATOM      3  C   UNL     1      -2.541  11.613  18.384  0.00  0.00    +0.000 A 
ATOM      4  C   UNL     1      -3.764  11.885  17.779  0.00  0.00    +0.000 A 
ATOM      5  C   UNL     1      -4.203  11.066  16.740  0.00  0.00    +0.000 A 
ATOM      6  C   UNL     1      -3.423   9.984  16.320  0.00  0.00    +0.000 A 
ATOM      7  C   UNL     1      -2.189   9.726  16.922  0.00  0.00    +0.000 A 
ATOM      8  C   UNL     1      -1.747  10.554  17.951  0.00  0.00    +0.000 A 
ATOM      9  C   UNL     1      -0.434  10.473  18.705  0.00  0.00    +0.000 C 
ATOM     10  C   UNL     1      -0.335   9.129  19.461  0.00  0.00    +0.000 C 
ATOM     11  C   UNL     1       1.062   8.926  20.053  0.00  0.00    +0.000 C 
ATOM     12  N   UNL     1       2.126   8.957  19.042  0.00  0.00    +0.000 NA
ATOM     13  C   UNL     1       2.114  10.264  18.357  0.00  0.00    +0.000 C 
ATOM     14  C   UNL     1       0.758  10.625  17.729  0.00  0.00    +0.000 C 
ENDROOT
BRANCH   2  15
ATOM     15  N   UNL     1      -2.762  12.242  20.707  0.00  0.00    +0.000 N 
ATOM     16  C   UNL     1      -3.390  13.316  21.285  0.00  0.00    +0.000 C 
ATOM     17  O   UNL     1      -3.370  14.443  20.812  0.00  0.00    +0.000 OA
ATOM     18  H   UNL     1      -2.981  11.311  21.034  0.00  0.00    +0.000 HD
BRANCH  16  19
ATOM     19  C   UNL     1      -4.093  12.999  22.528  0.00  0.00    +0.000 A 
ATOM     20  C   UNL     1      -3.522  12.549  23.770  0.00  0.00    +0.000 A 
ATOM     21  C   UNL     1      -4.461  12.399  24.766  0.00  0.00    +0.000 A 
ATOM     22  S   UNL     1      -6.037  12.761  24.219  0.00  0.00    +0.000 S 
ATOM     23  C   UNL     1      -5.462  13.154  22.657  0.00  0.00    +0.000 A 
ENDBRANCH  16  19
ENDBRANCH   2  15
BRANCH   1  25
ATOM     24  C   UNL     1       0.102  13.907  19.371  0.00  0.00    +0.000 C 
ATOM     25  O   UNL     1       0.533  12.575  19.633  0.00  0.00    +0.000 OA
ENDBRANCH   1  25
BRANCH  12  26
ATOM     26  C   UNL     1       2.073   7.854  18.069  0.00  0.00    +0.000 C 
BRANCH  26  27
ATOM     27  C   UNL     1       2.951   6.665  18.403  0.00  0.00    +0.000 A 
ATOM     28  C   UNL     1       4.286   6.602  17.946  0.00  0.00    +0.000 A 
ATOM     29  C   UNL     1       5.091   5.494  18.232  0.00  0.00    +0.000 A 
ATOM     30  C   UNL     1       4.543   4.477  18.984  0.00  0.00    +0.000 A 
ATOM     31  C   UNL     1       3.251   4.536  19.445  0.00  0.00    +0.000 A 
ATOM     32  C   UNL     1       2.430   5.608  19.171  0.00  0.00    +0.000 A 
ATOM     33  O   UNL     1       2.904   3.442  20.173  0.00  0.00    +0.000 OA
ATOM     34  C   UNL     1       4.135   2.690  20.130  0.00  0.00    +0.000 C 
ATOM     35  O   UNL     1       5.173   3.331  19.359  0.00  0.00    +0.000 OA
ENDBRANCH  26  27
ENDBRANCH  12  26
TORSDOF 5
ENDMDL
MODEL 3
REMARK VINA RESULT:      -7.4      4.429     10.699
REMARK  Name = 
REMARK  6 active torsions:
REMARK  status: ('A' for Active; 'I' for Inactive)
REMARK    1  A    between atoms: C_1  and  O_2
REMARK    2  A    between atoms: O_2  and  C_3
REMARK    3  A    between atoms: C_4  and  N_5
REMARK    4  A    between atoms: C_6  and  C_8
REMARK    5  A    between atoms: N_22  and  C_23
REMARK    6  A    between atoms: C_23  and  C_24
REMARK                            x       y       z     vdW  Elec       q    Type
REMARK                         _______ _______ _______ _____ _____    ______ ____
ROOT
ATOM      1  C   UNL     1       4.269   5.716  18.099  0.00  0.00    +0.000 C 
ATOM      2  C   UNL     1       4.620   4.226  17.781  0.00  0.00    +0.000 C 
ATOM      3  C   UNL     1       3.359   3.483  18.090  0.00  0.00    +0.000 A 
ATOM      4  C   UNL     1       3.167   2.107  17.998  0.00  0.00    +0.000 A 
ATOM      5  C   UNL     1       1.914   1.577  18.298  0.00  0.00    +0.000 A 
ATOM      6  C   UNL     1       0.866   2.421  18.682  0.00  0.00    +0.000 A 
ATOM      7  C   UNL     1       1.070   3.798  18.786  0.00  0.00    +0.000 A 
ATOM      8  C   UNL     1       2.328   4.325  18.498  0.00  0.00    +0.000 A 
ATOM      9  C   UNL     1       2.767   5.773  18.585  0.00  0.00    +0.000 C 
ATOM     10  C   UNL     1       1.948   6.640  17.602  0.00  0.00    +0.000 C 
ATOM     11  C   UNL     1       2.217   8.130  17.820  0.00  0.00    +0.000 C 
ATOM     12  N   UNL     1       1.909   8.578  19.184  0.00  0.00    +0.000 NA
ATOM     13  C   UNL     1       2.739   7.827  20.145  0.00  0.00    +0.000 C 
ATOM     14  C   UNL     1       2.599   6.301  20.031  0.00  0.00    +0.000 C 
ENDROOT
BRANCH   2  15
ATOM     15  N   UNL     1       4.956   4.074  16.376  0.00  0.00    +0.000 N 
ATOM     16  C   UNL     1       6.238   4.197  15.902  0.00  0.00    +0.000 C 
ATOM     17  O   UNL     1       7.211   4.359  16.624  0.00  0.00    +0.000 OA
ATOM     18  H   UNL     1       4.232   3.745  15.753  0.00  0.00    +0.000 HD
BRANCH  16  19
ATOM     19  C   UNL     1       6.346   4.116  14.446  0.00  0.00    +0.000 A 
ATOM     20  C   UNL     1       5.483   3.407  13.539  0.00  0.00    +0.000 A 
ATOM     21  C   UNL     1       5.831   3.587  12.219  0.00  0.00    +0.000 A 
ATOM     22  S   UNL     1       7.211   4.577  12.050  0.00  0.00    +0.000 S 
ATOM     23  C   UNL     1       7.325   4.797  13.743  0.00  0.00    +0.000 A 
ENDBRANCH  16  19
ENDBRANCH   2  15
BRANCH   1  25
ATOM     24  C   UNL     1       6.207   5.358  19.437  0.00  0.00    +0.000 C 
ATOM     25  O   UNL     1       5.162   6.257  19.080  0.00  0.00    +0.000 OA
ENDBRANCH   1  25
BRANCH  12  26
ATOM     26  C   UNL     1       0.484   8.496  19.545  0.00  0.00    +0.000 C 
BRANCH  26  27
ATOM     27  C   UNL     1       0.050   9.440  20.648  0.00  0.00    +0.000 A 
ATOM     28  C   UNL     1      -0.226   8.955  21.946  0.00  0.00    +0.000 A 
ATOM     29  C   UNL     1      -0.652   9.820  22.960  0.00  0.00    +0.000 A 
ATOM     30  C   UNL     1      -0.778  11.158  22.654  0.00  0.00    +0.000 A 
ATOM     31  C   UNL     1      -0.498  11.640  21.399  0.00  0.00    +0.000 A 
ATOM     32  C   UNL     1      -0.088  10.813  20.378  0.00  0.00    +0.000 A 
ATOM     33  O   UNL     1      -0.676  12.985  21.304  0.00  0.00    +0.000 OA
ATOM     34  C   UNL     1      -1.087  13.297  22.651  0.00  0.00    +0.000 C 
ATOM     35  O   UNL     1      -1.175  12.139  23.508  0.00  0.00    +0.000 OA
ENDBRANCH  26  27
ENDBRANCH  12  26
TORSDOF 5
ENDMDL
MODEL 4
REMARK VINA RESULT:      -7.4      1.553      2.079
REMARK  Name = 
REMARK  6 active torsions:
REMARK  status: ('A' for Active; 'I' for Inactive)
REMARK    1  A    between atoms: C_1  and  O_2
REMARK    2  A    between atoms: O_2  and  C_3
REMARK    3  A    between atoms: C_4  and  N_5
REMARK    4  A    between atoms: C_6  and  C_8
REMARK    5  A    between atoms: N_22  and  C_23
REMARK    6  A    between atoms: C_23  and  C_24
REMARK                            x       y       z     vdW  Elec       q    Type
REMARK                         _______ _______ _______ _____ _____    ______ ____
ROOT
ATOM      1  C   UNL     1      -0.027  11.804  19.732  0.00  0.00    +0.000 C 
ATOM      2  C   UNL     1      -1.338  12.648  19.621  0.00  0.00    +0.000 C 
ATOM      3  C   UNL     1      -2.263  11.779  18.828  0.00  0.00    +0.000 A 
ATOM      4  C   UNL     1      -3.557  12.098  18.429  0.00  0.00    +0.000 A 
ATOM      5  C   UNL     1      -4.297  11.157  17.714  0.00  0.00    +0.000 A 
ATOM      6  C   UNL     1      -3.741   9.910  17.409  0.00  0.00    +0.000 A 
ATOM      7  C   UNL     1      -2.436   9.603  17.800  0.00  0.00    +0.000 A 
ATOM      8  C   UNL     1      -1.694  10.550  18.503  0.00  0.00    +0.000 A 
ATOM      9  C   UNL     1      -0.261  10.433  18.982  0.00  0.00    +0.000 C 
ATOM     10  C   UNL     1      -0.129   9.272  19.993  0.00  0.00    +0.000 C 
ATOM     11  C   UNL     1       1.338   8.993  20.328  0.00  0.00    +0.000 C 
ATOM     12  N   UNL     1       2.146   8.662  19.149  0.00  0.00    +0.000 NA
ATOM     13  C   UNL     1       2.110   9.789  18.197  0.00  0.00    +0.000 C 
ATOM     14  C   UNL     1       0.692  10.208  17.782  0.00  0.00    +0.000 C 
ENDROOT
BRANCH   2  15
ATOM     15  N   UNL     1      -1.895  12.894  20.940  0.00  0.00    +0.000 N 
ATOM     16  C   UNL     1      -2.280  14.141  21.363  0.00  0.00    +0.000 C 
ATOM     17  O   UNL     1      -2.269  15.130  20.644  0.00  0.00    +0.000 OA
ATOM     18  H   UNL     1      -2.116  12.092  21.513  0.00  0.00    +0.000 HD
BRANCH  16  19
ATOM     19  C   UNL     1      -2.713  14.191  22.759  0.00  0.00    +0.000 A 
ATOM     20  C   UNL     1      -3.587  13.273  23.441  0.00  0.00    +0.000 A 
ATOM     21  C   UNL     1      -3.742  13.576  24.776  0.00  0.00    +0.000 A 
ATOM     22  S   UNL     1      -2.874  14.978  25.219  0.00  0.00    +0.000 S 
ATOM     23  C   UNL     1      -2.258  15.162  23.634  0.00  0.00    +0.000 A 
ENDBRANCH  16  19
ENDBRANCH   2  15
BRANCH   1  25
ATOM     24  C   UNL     1       1.809  13.254  20.177  0.00  0.00    +0.000 C 
ATOM     25  O   UNL     1       1.092  12.517  19.192  0.00  0.00    +0.000 OA
ENDBRANCH   1  25
BRANCH  12  26
ATOM     26  C   UNL     1       1.769   7.403  18.485  0.00  0.00    +0.000 C 
BRANCH  26  27
ATOM     27  C   UNL     1       2.702   6.239  18.746  0.00  0.00    +0.000 A 
ATOM     28  C   UNL     1       3.982   6.192  18.149  0.00  0.00    +0.000 A 
ATOM     29  C   UNL     1       4.837   5.106  18.368  0.00  0.00    +0.000 A 
ATOM     30  C   UNL     1       4.395   4.094  19.193  0.00  0.00    +0.000 A 
ATOM     31  C   UNL     1       3.158   4.138  19.789  0.00  0.00    +0.000 A 
ATOM     32  C   UNL     1       2.290   5.187  19.585  0.00  0.00    +0.000 A 
ATOM     33  O   UNL     1       2.915   3.052  20.570  0.00  0.00    +0.000 OA
ATOM     34  C   UNL     1       4.150   2.324  20.409  0.00  0.00    +0.000 C 
ATOM     35  O   UNL     1       5.086   2.970  19.519  0.00  0.00    +0.000 OA
ENDBRANCH  26  27
ENDBRANCH  12  26
TORSDOF 5
ENDMDL
MODEL 5
REMARK VINA RESULT:      -7.4      1.246      1.619
REMARK  Name = 
REMARK  6 active torsions:
REMARK  status: ('A' for Active; 'I' for Inactive)
REMARK    1  A    between atoms: C_1  and  O_2
REMARK    2  A    between atoms: O_2  and  C_3
REMARK    3  A    between atoms: C_4  and  N_5
REMARK    4  A    between atoms: C_6  and  C_8
REMARK    5  A    between atoms: N_22  and  C_23
REMARK    6  A    between atoms: C_23  and  C_24
REMARK                            x       y       z     vdW  Elec       q    Type
REMARK                         _______ _______ _______ _____ _____    ______ ____
ROOT
ATOM      1  C   UNL     1      -0.594  11.583  19.945  0.00  0.00    +0.000 C 
ATOM      2  C   UNL     1      -1.926  12.317  19.583  0.00  0.00    +0.000 C 
ATOM      3  C   UNL     1      -2.464  11.541  18.423  0.00  0.00    +0.000 A 
ATOM      4  C   UNL     1      -3.628  11.819  17.712  0.00  0.00    +0.000 A 
ATOM      5  C   UNL     1      -4.002  10.974  16.669  0.00  0.00    +0.000 A 
ATOM      6  C   UNL     1      -3.217   9.862  16.348  0.00  0.00    +0.000 A 
ATOM      7  C   UNL     1      -2.043   9.598  17.056  0.00  0.00    +0.000 A 
ATOM      8  C   UNL     1      -1.664  10.452  18.090  0.00  0.00    +0.000 A 
ATOM      9  C   UNL     1      -0.418  10.368  18.950  0.00  0.00    +0.000 C 
ATOM     10  C   UNL     1      -0.413   9.049  19.756  0.00  0.00    +0.000 C 
ATOM     11  C   UNL     1       0.926   8.837  20.465  0.00  0.00    +0.000 C 
ATOM     12  N   UNL     1       2.069   8.810  19.543  0.00  0.00    +0.000 NA
ATOM     13  C   UNL     1       2.143  10.092  18.817  0.00  0.00    +0.000 C 
ATOM     14  C   UNL     1       0.852  10.461  18.069  0.00  0.00    +0.000 C 
ENDROOT
BRANCH   2  15
ATOM     15  N   UNL     1      -2.855  12.255  20.698  0.00  0.00    +0.000 N 
ATOM     16  C   UNL     1      -3.129  13.337  21.497  0.00  0.00    +0.000 C 
ATOM     17  O   UNL     1      -2.685  14.457  21.291  0.00  0.00    +0.000 OA
ATOM     18  H   UNL     1      -3.407  11.415  20.803  0.00  0.00    +0.000 HD
BRANCH  16  19
ATOM     19  C   UNL     1      -4.008  13.037  22.626  0.00  0.00    +0.000 A 
ATOM     20  C   UNL     1      -3.636  12.509  23.913  0.00  0.00    +0.000 A 
ATOM     21  C   UNL     1      -4.705  12.401  24.775  0.00  0.00    +0.000 A 
ATOM     22  S   UNL     1      -6.167  12.896  24.047  0.00  0.00    +0.000 S 
ATOM     23  C   UNL     1      -5.368  13.291  22.587  0.00  0.00    +0.000 A 
ENDBRANCH  16  19
ENDBRANCH   2  15
BRANCH   1  25
ATOM     24  C   UNL     1       0.646  13.291  21.047  0.00  0.00    +0.000 C 
ATOM     25  O   UNL     1       0.522  12.480  19.884  0.00  0.00    +0.000 OA
ENDBRANCH   1  25
BRANCH  12  26
ATOM     26  C   UNL     1       2.068   7.675  18.605  0.00  0.00    +0.000 C 
BRANCH  26  27
ATOM     27  C   UNL     1       2.372   6.330  19.231  0.00  0.00    +0.000 A 
ATOM     28  C   UNL     1       1.630   5.865  20.341  0.00  0.00    +0.000 A 
ATOM     29  C   UNL     1       1.926   4.634  20.937  0.00  0.00    +0.000 A 
ATOM     30  C   UNL     1       2.951   3.887  20.398  0.00  0.00    +0.000 A 
ATOM     31  C   UNL     1       3.669   4.324  19.312  0.00  0.00    +0.000 A 
ATOM     32  C   UNL     1       3.409   5.536  18.710  0.00  0.00    +0.000 A 
ATOM     33  O   UNL     1       4.629   3.441  18.929  0.00  0.00    +0.000 OA
ATOM     34  C   UNL     1       4.424   2.389  19.893  0.00  0.00    +0.000 C 
ATOM     35  O   UNL     1       3.375   2.674  20.843  0.00  0.00    +0.000 OA
ENDBRANCH  26  27
ENDBRANCH  12  26
TORSDOF 5
ENDMDL
MODEL 6
REMARK VINA RESULT:      -7.3      1.797      2.236
REMARK  Name = 
REMARK  6 active torsions:
REMARK  status: ('A' for Active; 'I' for Inactive)
REMARK    1  A    between atoms: C_1  and  O_2
REMARK    2  A    between atoms: O_2  and  C_3
REMARK    3  A    between atoms: C_4  and  N_5
REMARK    4  A    between atoms: C_6  and  C_8
REMARK    5  A    between atoms: N_22  and  C_23
REMARK    6  A    between atoms: C_23  and  C_24
REMARK                            x       y       z     vdW  Elec       q    Type
REMARK                         _______ _______ _______ _____ _____    ______ ____
ROOT
ATOM      1  C   UNL     1       0.255  11.508  19.876  0.00  0.00    +0.000 C 
ATOM      2  C   UNL     1      -0.967  12.462  19.677  0.00  0.00    +0.000 C 
ATOM      3  C   UNL     1      -1.904  11.677  18.814  0.00  0.00    +0.000 A 
ATOM      4  C   UNL     1      -3.134  12.108  18.326  0.00  0.00    +0.000 A 
ATOM      5  C   UNL     1      -3.899  11.235  17.553  0.00  0.00    +0.000 A 
ATOM      6  C   UNL     1      -3.433   9.945  17.280  0.00  0.00    +0.000 A 
ATOM      7  C   UNL     1      -2.191   9.526  17.761  0.00  0.00    +0.000 A 
ATOM      8  C   UNL     1      -1.422  10.404  18.522  0.00  0.00    +0.000 A 
ATOM      9  C   UNL     1      -0.042  10.163  19.101  0.00  0.00    +0.000 C 
ATOM     10  C   UNL     1      -0.084   8.994  20.111  0.00  0.00    +0.000 C 
ATOM     11  C   UNL     1       1.325   8.589  20.548  0.00  0.00    +0.000 C 
ATOM     12  N   UNL     1       2.185   8.189  19.427  0.00  0.00    +0.000 NA
ATOM     13  C   UNL     1       2.315   9.316  18.484  0.00  0.00    +0.000 C 
ATOM     14  C   UNL     1       0.971   9.857  17.971  0.00  0.00    +0.000 C 
ENDROOT
BRANCH   2  15
ATOM     15  N   UNL     1      -1.593  12.755  20.954  0.00  0.00    +0.000 N 
ATOM     16  C   UNL     1      -1.919  14.029  21.347  0.00  0.00    +0.000 C 
ATOM     17  O   UNL     1      -1.789  15.010  20.629  0.00  0.00    +0.000 OA
ATOM     18  H   UNL     1      -1.908  11.974  21.512  0.00  0.00    +0.000 HD
BRANCH  16  19
ATOM     19  C   UNL     1      -2.440  14.118  22.711  0.00  0.00    +0.000 A 
ATOM     20  C   UNL     1      -3.331  13.201  23.372  0.00  0.00    +0.000 A 
ATOM     21  C   UNL     1      -3.579  13.548  24.681  0.00  0.00    +0.000 A 
ATOM     22  S   UNL     1      -2.778  14.989  25.124  0.00  0.00    +0.000 S 
ATOM     23  C   UNL     1      -2.068  15.133  23.575  0.00  0.00    +0.000 A 
ENDBRANCH  16  19
ENDBRANCH   2  15
BRANCH   1  25
ATOM     24  C   UNL     1       1.939  13.137  20.301  0.00  0.00    +0.000 C 
ATOM     25  O   UNL     1       1.467  12.122  19.421  0.00  0.00    +0.000 OA
ENDBRANCH   1  25
BRANCH  12  26
ATOM     26  C   UNL     1       1.748   6.968  18.730  0.00  0.00    +0.000 C 
BRANCH  26  27
ATOM     27  C   UNL     1       2.168   5.671  19.390  0.00  0.00    +0.000 A 
ATOM     28  C   UNL     1       1.350   5.059  20.366  0.00  0.00    +0.000 A 
ATOM     29  C   UNL     1       1.748   3.875  20.996  0.00  0.00    +0.000 A 
ATOM     30  C   UNL     1       2.953   3.320  20.623  0.00  0.00    +0.000 A 
ATOM     31  C   UNL     1       3.749   3.901  19.665  0.00  0.00    +0.000 A 
ATOM     32  C   UNL     1       3.390   5.072  19.035  0.00  0.00    +0.000 A 
ATOM     33  O   UNL     1       4.888   3.196  19.435  0.00  0.00    +0.000 OA
ATOM     34  C   UNL     1       4.713   2.096  20.350  0.00  0.00    +0.000 C 
ATOM     35  O   UNL     1       3.497   2.179  21.123  0.00  0.00    +0.000 OA
ENDBRANCH  26  27
ENDBRANCH  12  26
TORSDOF 5
ENDMDL
MODEL 7
REMARK VINA RESULT:      -7.3      1.531      1.667
REMARK  Name = 
REMARK  6 active torsions:
REMARK  status: ('A' for Active; 'I' for Inactive)
REMARK    1  A    between atoms: C_1  and  O_2
REMARK    2  A    between atoms: O_2  and  C_3
REMARK    3  A    between atoms: C_4  and  N_5
REMARK    4  A    between atoms: C_6  and  C_8
REMARK    5  A    between atoms: N_22  and  C_23
REMARK    6  A    between atoms: C_23  and  C_24
REMARK                            x       y       z     vdW  Elec       q    Type
REMARK                         _______ _______ _______ _____ _____    ______ ____
ROOT
ATOM      1  C   UNL     1       0.210  11.672  19.737  0.00  0.00    +0.000 C 
ATOM      2  C   UNL     1      -1.051  12.588  19.613  0.00  0.00    +0.000 C 
ATOM      3  C   UNL     1      -2.034  11.750  18.857  0.00  0.00    +0.000 A 
ATOM      4  C   UNL     1      -3.312  12.132  18.462  0.00  0.00    +0.000 A 
ATOM      5  C   UNL     1      -4.114  11.215  17.785  0.00  0.00    +0.000 A 
ATOM      6  C   UNL     1      -3.635   9.929  17.513  0.00  0.00    +0.000 A 
ATOM      7  C   UNL     1      -2.346   9.558  17.900  0.00  0.00    +0.000 A 
ATOM      8  C   UNL     1      -1.542  10.481  18.565  0.00  0.00    +0.000 A 
ATOM      9  C   UNL     1      -0.112  10.296  19.033  0.00  0.00    +0.000 C 
ATOM     10  C   UNL     1      -0.035   9.160  20.078  0.00  0.00    +0.000 C 
ATOM     11  C   UNL     1       1.417   8.806  20.407  0.00  0.00    +0.000 C 
ATOM     12  N   UNL     1       2.190   8.392  19.230  0.00  0.00    +0.000 NA
ATOM     13  C   UNL     1       2.208   9.489  18.244  0.00  0.00    +0.000 C 
ATOM     14  C   UNL     1       0.811   9.978  17.831  0.00  0.00    +0.000 C 
ENDROOT
BRANCH   2  15
ATOM     15  N   UNL     1      -1.576  12.907  20.929  0.00  0.00    +0.000 N 
ATOM     16  C   UNL     1      -1.991  14.167  21.278  0.00  0.00    +0.000 C 
ATOM     17  O   UNL     1      -2.034  15.104  20.493  0.00  0.00    +0.000 OA
ATOM     18  H   UNL     1      -1.752  12.140  21.562  0.00  0.00    +0.000 HD
BRANCH  16  19
ATOM     19  C   UNL     1      -2.383  14.300  22.680  0.00  0.00    +0.000 A 
ATOM     20  C   UNL     1      -3.408  13.570  23.379  0.00  0.00    +0.000 A 
ATOM     21  C   UNL     1      -3.480  13.897  24.715  0.00  0.00    +0.000 A 
ATOM     22  S   UNL     1      -2.348  15.101  25.141  0.00  0.00    +0.000 S 
ATOM     23  C   UNL     1      -1.734  15.163  23.546  0.00  0.00    +0.000 A 
ENDBRANCH  16  19
ENDBRANCH   2  15
BRANCH   1  25
ATOM     24  C   UNL     1       1.103  13.626  18.708  0.00  0.00    +0.000 C 
ATOM     25  O   UNL     1       1.363  12.302  19.163  0.00  0.00    +0.000 OA
ENDBRANCH   1  25
BRANCH  12  26
ATOM     26  C   UNL     1       1.732   7.137  18.611  0.00  0.00    +0.000 C 
BRANCH  26  27
ATOM     27  C   UNL     1       2.824   6.304  17.974  0.00  0.00    +0.000 A 
ATOM     28  C   UNL     1       2.690   4.901  17.862  0.00  0.00    +0.000 A 
ATOM     29  C   UNL     1       3.708   4.125  17.297  0.00  0.00    +0.000 A 
ATOM     30  C   UNL     1       4.836   4.775  16.843  0.00  0.00    +0.000 A 
ATOM     31  C   UNL     1       4.969   6.139  16.934  0.00  0.00    +0.000 A 
ATOM     32  C   UNL     1       3.989   6.928  17.495  0.00  0.00    +0.000 A 
ATOM     33  O   UNL     1       6.147   6.585  16.423  0.00  0.00    +0.000 OA
ATOM     34  C   UNL     1       6.736   5.343  15.985  0.00  0.00    +0.000 C 
ATOM     35  O   UNL     1       5.919   4.188  16.267  0.00  0.00    +0.000 OA
ENDBRANCH  26  27
ENDBRANCH  12  26
TORSDOF 5
ENDMDL
MODEL 8
REMARK VINA RESULT:      -7.2      2.318      2.985
REMARK  Name = 
REMARK  6 active torsions:
REMARK  status: ('A' for Active; 'I' for Inactive)
REMARK    1  A    between atoms: C_1  and  O_2
REMARK    2  A    between atoms: O_2  and  C_3
REMARK    3  A    between atoms: C_4  and  N_5
REMARK    4  A    between atoms: C_6  and  C_8
REMARK    5  A    between atoms: N_22  and  C_23
REMARK    6  A    between atoms: C_23  and  C_24
REMARK                            x       y       z     vdW  Elec       q    Type
REMARK                         _______ _______ _______ _____ _____    ______ ____
ROOT
ATOM      1  C   UNL     1       1.075  11.379  19.260  0.00  0.00    +0.000 C 
ATOM      2  C   UNL     1      -0.028  12.473  19.096  0.00  0.00    +0.000 C 
ATOM      3  C   UNL     1      -1.214  11.719  18.582  0.00  0.00    +0.000 A 
ATOM      4  C   UNL     1      -2.452  12.258  18.243  0.00  0.00    +0.000 A 
ATOM      5  C   UNL     1      -3.463  11.405  17.804  0.00  0.00    +0.000 A 
ATOM      6  C   UNL     1      -3.232  10.028  17.712  0.00  0.00    +0.000 A 
ATOM      7  C   UNL     1      -1.983   9.498  18.040  0.00  0.00    +0.000 A 
ATOM      8  C   UNL     1      -0.969  10.354  18.466  0.00  0.00    +0.000 A 
ATOM      9  C   UNL     1       0.457   9.990  18.829  0.00  0.00    +0.000 C 
ATOM     10  C   UNL     1       0.471   9.030  20.040  0.00  0.00    +0.000 C 
ATOM     11  C   UNL     1       1.876   8.479  20.294  0.00  0.00    +0.000 C 
ATOM     12  N   UNL     1       2.430   7.761  19.140  0.00  0.00    +0.000 NA
ATOM     13  C   UNL     1       2.510   8.676  17.986  0.00  0.00    +0.000 C 
ATOM     14  C   UNL     1       1.171   9.336  17.621  0.00  0.00    +0.000 C 
ENDROOT
BRANCH   2  15
ATOM     15  N   UNL     1      -0.338  13.075  20.380  0.00  0.00    +0.000 N 
ATOM     16  C   UNL     1      -0.620  14.411  20.526  0.00  0.00    +0.000 C 
ATOM     17  O   UNL     1      -0.717  15.186  19.586  0.00  0.00    +0.000 OA
ATOM     18  H   UNL     1      -0.470  12.457  21.169  0.00  0.00    +0.000 HD
BRANCH  16  19
ATOM     19  C   UNL     1      -0.799  14.835  21.914  0.00  0.00    +0.000 A 
ATOM     20  C   UNL     1      -0.091  15.875  22.613  0.00  0.00    +0.000 A 
ATOM     21  C   UNL     1      -0.548  16.060  23.899  0.00  0.00    +0.000 A 
ATOM     22  S   UNL     1      -1.801  14.972  24.297  0.00  0.00    +0.000 S 
ATOM     23  C   UNL     1      -1.761  14.274  22.736  0.00  0.00    +0.000 A 
ENDBRANCH  16  19
ENDBRANCH   2  15
BRANCH   1  25
ATOM     24  C   UNL     1       2.535  13.093  18.482  0.00  0.00    +0.000 C 
ATOM     25  O   UNL     1       2.239  11.700  18.488  0.00  0.00    +0.000 OA
ENDBRANCH   1  25
BRANCH  12  26
ATOM     26  C   UNL     1       1.708   6.528  18.784  0.00  0.00    +0.000 C 
BRANCH  26  27
ATOM     27  C   UNL     1       2.165   5.285  19.519  0.00  0.00    +0.000 A 
ATOM     28  C   UNL     1       1.389   4.738  20.565  0.00  0.00    +0.000 A 
ATOM     29  C   UNL     1       1.822   3.604  21.262  0.00  0.00    +0.000 A 
ATOM     30  C   UNL     1       3.019   3.035  20.886  0.00  0.00    +0.000 A 
ATOM     31  C   UNL     1       3.773   3.552  19.861  0.00  0.00    +0.000 A 
ATOM     32  C   UNL     1       3.380   4.672  19.163  0.00  0.00    +0.000 A 
ATOM     33  O   UNL     1       4.911   2.842  19.640  0.00  0.00    +0.000 OA
ATOM     34  C   UNL     1       4.780   1.808  20.636  0.00  0.00    +0.000 C 
ATOM     35  O   UNL     1       3.592   1.936  21.446  0.00  0.00    +0.000 OA
ENDBRANCH  26  27
ENDBRANCH  12  26
TORSDOF 5
ENDMDL
MODEL 9
REMARK VINA RESULT:      -7.2      5.729      7.377
REMARK  Name = 
REMARK  6 active torsions:
REMARK  status: ('A' for Active; 'I' for Inactive)
REMARK    1  A    between atoms: C_1  and  O_2
REMARK    2  A    between atoms: O_2  and  C_3
REMARK    3  A    between atoms: C_4  and  N_5
REMARK    4  A    between atoms: C_6  and  C_8
REMARK    5  A    between atoms: N_22  and  C_23
REMARK    6  A    between atoms: C_23  and  C_24
REMARK                            x       y       z     vdW  Elec       q    Type
REMARK                         _______ _______ _______ _____ _____    ______ ____
ROOT
ATOM      1  C   UNL     1       1.455  14.926  19.786  0.00  0.00    +0.000 C 
ATOM      2  C   UNL     1      -0.009  15.416  19.540  0.00  0.00    +0.000 C 
ATOM      3  C   UNL     1       0.145  16.546  18.572  0.00  0.00    +0.000 A 
ATOM      4  C   UNL     1      -0.876  17.342  18.061  0.00  0.00    +0.000 A 
ATOM      5  C   UNL     1      -0.561  18.341  17.142  0.00  0.00    +0.000 A 
ATOM      6  C   UNL     1       0.765  18.533  16.739  0.00  0.00    +0.000 A 
ATOM      7  C   UNL     1       1.786  17.741  17.267  0.00  0.00    +0.000 A 
ATOM      8  C   UNL     1       1.470  16.751  18.196  0.00  0.00    +0.000 A 
ATOM      9  C   UNL     1       2.424  15.817  18.913  0.00  0.00    +0.000 C 
ATOM     10  C   UNL     1       3.159  14.919  17.893  0.00  0.00    +0.000 C 
ATOM     11  C   UNL     1       4.279  14.120  18.564  0.00  0.00    +0.000 C 
ATOM     12  N   UNL     1       5.278  14.969  19.223  0.00  0.00    +0.000 NA
ATOM     13  C   UNL     1       4.621  15.781  20.265  0.00  0.00    +0.000 C 
ATOM     14  C   UNL     1       3.447  16.627  19.747  0.00  0.00    +0.000 C 
ENDROOT
BRANCH   2  15
ATOM     15  N   UNL     1      -0.804  14.356  18.945  0.00  0.00    +0.000 N 
ATOM     16  C   UNL     1      -1.462  13.412  19.693  0.00  0.00    +0.000 C 
ATOM     17  O   UNL     1      -1.505  13.430  20.915  0.00  0.00    +0.000 OA
ATOM     18  H   UNL     1      -0.973  14.398  17.950  0.00  0.00    +0.000 HD
BRANCH  16  19
ATOM     19  C   UNL     1      -2.115  12.372  18.900  0.00  0.00    +0.000 A 
ATOM     20  C   UNL     1      -3.493  11.958  18.958  0.00  0.00    +0.000 A 
ATOM     21  C   UNL     1      -3.798  10.988  18.029  0.00  0.00    +0.000 A 
ATOM     22  S   UNL     1      -2.438  10.538  17.102  0.00  0.00    +0.000 S 
ATOM     23  C   UNL     1      -1.443  11.666  17.917  0.00  0.00    +0.000 A 
ENDBRANCH  16  19
ENDBRANCH   2  15
BRANCH   1  25
ATOM     24  C   UNL     1       0.799  15.643  21.960  0.00  0.00    +0.000 C 
ATOM     25  O   UNL     1       1.792  14.987  21.178  0.00  0.00    +0.000 OA
ENDBRANCH   1  25
BRANCH  12  26
ATOM     26  C   UNL     1       6.055  15.820  18.306  0.00  0.00    +0.000 C 
BRANCH  26  27
ATOM     27  C   UNL     1       7.503  15.414  18.131  0.00  0.00    +0.000 A 
ATOM     28  C   UNL     1       8.523  16.390  18.060  0.00  0.00    +0.000 A 
ATOM     29  C   UNL     1       9.859  16.019  17.873  0.00  0.00    +0.000 A 
ATOM     30  C   UNL     1      10.147  14.675  17.775  0.00  0.00    +0.000 A 
ATOM     31  C   UNL     1       9.164  13.718  17.858  0.00  0.00    +0.000 A 
ATOM     32  C   UNL     1       7.839  14.052  18.031  0.00  0.00    +0.000 A 
ATOM     33  O   UNL     1       9.653  12.455  17.747  0.00  0.00    +0.000 OA
ATOM     34  C   UNL     1      11.062  12.725  17.600  0.00  0.00    +0.000 C 
ATOM     35  O   UNL     1      11.381  14.132  17.595  0.00  0.00    +0.000 OA
ENDBRANCH  26  27
ENDBRANCH  12  26
TORSDOF 5
ENDMDL
