MODEL 1
REMARK VINA RESULT:      -8.9      0.000      0.000
REMARK  Name = 
REMARK  0 active torsions:
REMARK  status: ('A' for Active; 'I' for Inactive)
REMARK                            x       y       z     vdW  Elec       q    Type
REMARK                         _______ _______ _______ _____ _____    ______ ____
ROOT
ATOM      1  C   UNL     1       7.455   4.420  11.927  0.00  0.00    +0.000 A 
ATOM      2  C   UNL     1       6.331   3.607  11.895  0.00  0.00    +0.000 A 
ATOM      3  C   UNL     1       5.542   3.470  13.038  0.00  0.00    +0.000 A 
ATOM      4  C   UNL     1       5.901   4.072  14.233  0.00  0.00    +0.000 A 
ATOM      5  N   UNL     1       5.162   3.819  15.333  0.00  0.00    +0.000 NA
ATOM      6  C   UNL     1       5.608   4.443  16.439  0.00  0.00    +0.000 A 
ATOM      7  C   UNL     1       6.701   5.304  16.473  0.00  0.00    +0.000 A 
ATOM      8  N   UNL     1       7.452   5.553  15.392  0.00  0.00    +0.000 NA
ATOM      9  C   UNL     1       7.055   4.922  14.266  0.00  0.00    +0.000 A 
ATOM     10  C   UNL     1       7.795   5.093  13.102  0.00  0.00    +0.000 A 
ATOM     11  S   UNL     1       6.955   6.069  18.076  0.00  0.00    +0.000 S 
ATOM     12  C   UNL     1       5.525   5.254  18.619  0.00  0.00    +0.000 A 
ATOM     13  N   UNL     1       4.805   5.328  19.704  0.00  0.00    +0.000 NA
ATOM     14  C   UNL     1       3.844   4.351  19.511  0.00  0.00    +0.000 A 
ATOM     15  C   UNL     1       2.821   3.942  20.373  0.00  0.00    +0.000 A 
ATOM     16  C   UNL     1       2.086   2.793  20.049  0.00  0.00    +0.000 A 
ATOM     17  C   UNL     1       2.326   2.102  18.858  0.00  0.00    +0.000 A 
ATOM     18  C   UNL     1       3.252   2.566  17.918  0.00  0.00    +0.000 A 
ATOM     19  C   UNL     1       4.002   3.694  18.280  0.00  0.00    +0.000 A 
ATOM     20  N   UNL     1       5.011   4.401  17.689  0.00  0.00    +0.000 N 
ENDROOT
TORSDOF 0
ENDMDL
MODEL 2
REMARK VINA RESULT:      -8.9      0.833      6.077
REMARK  Name = 
REMARK  0 active torsions:
REMARK  status: ('A' for Active; 'I' for Inactive)
REMARK                            x       y       z     vdW  Elec       q    Type
REMARK                         _______ _______ _______ _____ _____    ______ ____
ROOT
ATOM      1  C   UNL     1       1.413   3.255  20.231  0.00  0.00    +0.000 A 
ATOM      2  C   UNL     1       1.206   2.421  19.143  0.00  0.00    +0.000 A 
ATOM      3  C   UNL     1       2.059   2.492  18.041  0.00  0.00    +0.000 A 
ATOM      4  C   UNL     1       3.070   3.436  17.977  0.00  0.00    +0.000 A 
ATOM      5  N   UNL     1       3.797   3.533  16.845  0.00  0.00    +0.000 NA
ATOM      6  C   UNL     1       4.740   4.491  16.887  0.00  0.00    +0.000 A 
ATOM      7  C   UNL     1       4.995   5.299  17.991  0.00  0.00    +0.000 A 
ATOM      8  N   UNL     1       4.273   5.224  19.118  0.00  0.00    +0.000 NA
ATOM      9  C   UNL     1       3.295   4.293  19.105  0.00  0.00    +0.000 A 
ATOM     10  C   UNL     1       2.471   4.167  20.217  0.00  0.00    +0.000 A 
ATOM     11  S   UNL     1       6.402   6.390  17.766  0.00  0.00    +0.000 S 
ATOM     12  C   UNL     1       6.639   5.656  16.214  0.00  0.00    +0.000 A 
ATOM     13  N   UNL     1       7.587   5.727  15.321  0.00  0.00    +0.000 NA
ATOM     14  C   UNL     1       7.107   4.940  14.288  0.00  0.00    +0.000 A 
ATOM     15  C   UNL     1       7.681   4.682  13.040  0.00  0.00    +0.000 A 
ATOM     16  C   UNL     1       6.919   4.013  12.073  0.00  0.00    +0.000 A 
ATOM     17  C   UNL     1       5.632   3.555  12.367  0.00  0.00    +0.000 A 
ATOM     18  C   UNL     1       5.086   3.683  13.649  0.00  0.00    +0.000 A 
ATOM     19  C   UNL     1       5.850   4.389  14.588  0.00  0.00    +0.000 A 
ATOM     20  N   UNL     1       5.656   4.770  15.886  0.00  0.00    +0.000 N 
ENDROOT
TORSDOF 0
ENDMDL
MODEL 3
REMARK VINA RESULT:      -7.9      4.807      8.056
REMARK  Name = 
REMARK  0 active torsions:
REMARK  status: ('A' for Active; 'I' for Inactive)
REMARK                            x       y       z     vdW  Elec       q    Type
REMARK                         _______ _______ _______ _____ _____    ______ ____
ROOT
ATOM      1  C   UNL     1      -0.774  11.456  22.109  0.00  0.00    +0.000 A 
ATOM      2  C   UNL     1      -0.777  10.453  23.067  0.00  0.00    +0.000 A 
ATOM      3  C   UNL     1      -0.092   9.261  22.826  0.00  0.00    +0.000 A 
ATOM      4  C   UNL     1       0.530   9.025  21.611  0.00  0.00    +0.000 A 
ATOM      5  N   UNL     1       1.085   7.815  21.391  0.00  0.00    +0.000 NA
ATOM      6  C   UNL     1       1.648   7.692  20.175  0.00  0.00    +0.000 A 
ATOM      7  C   UNL     1       1.706   8.707  19.225  0.00  0.00    +0.000 A 
ATOM      8  N   UNL     1       1.148   9.909  19.424  0.00  0.00    +0.000 NA
ATOM      9  C   UNL     1       0.545  10.065  20.623  0.00  0.00    +0.000 A 
ATOM     10  C   UNL     1      -0.092  11.267  20.905  0.00  0.00    +0.000 A 
ATOM     11  S   UNL     1       2.636   8.257  17.759  0.00  0.00    +0.000 S 
ATOM     12  C   UNL     1       2.978   6.739  18.520  0.00  0.00    +0.000 A 
ATOM     13  N   UNL     1       3.768   5.744  18.227  0.00  0.00    +0.000 NA
ATOM     14  C   UNL     1       3.498   4.823  19.225  0.00  0.00    +0.000 A 
ATOM     15  C   UNL     1       4.020   3.537  19.399  0.00  0.00    +0.000 A 
ATOM     16  C   UNL     1       3.451   2.705  20.373  0.00  0.00    +0.000 A 
ATOM     17  C   UNL     1       2.424   3.169  21.200  0.00  0.00    +0.000 A 
ATOM     18  C   UNL     1       1.976   4.493  21.135  0.00  0.00    +0.000 A 
ATOM     19  C   UNL     1       2.532   5.295  20.128  0.00  0.00    +0.000 A 
ATOM     20  N   UNL     1       2.329   6.579  19.708  0.00  0.00    +0.000 N 
ENDROOT
TORSDOF 0
ENDMDL
MODEL 4
REMARK VINA RESULT:      -7.7      3.687      6.801
REMARK  Name = 
REMARK  0 active torsions:
REMARK  status: ('A' for Active; 'I' for Inactive)
REMARK                            x       y       z     vdW  Elec       q    Type
REMARK                         _______ _______ _______ _____ _____    ______ ____
ROOT
ATOM      1  C   UNL     1       0.582  10.304  20.224  0.00  0.00    +0.000 A 
ATOM      2  C   UNL     1       1.066  10.682  18.981  0.00  0.00    +0.000 A 
ATOM      3  C   UNL     1       1.774   9.765  18.203  0.00  0.00    +0.000 A 
ATOM      4  C   UNL     1       2.072   8.499  18.682  0.00  0.00    +0.000 A 
ATOM      5  N   UNL     1       2.851   7.690  17.934  0.00  0.00    +0.000 NA
ATOM      6  C   UNL     1       3.087   6.493  18.501  0.00  0.00    +0.000 A 
ATOM      7  C   UNL     1       2.564   6.080  19.722  0.00  0.00    +0.000 A 
ATOM      8  N   UNL     1       1.801   6.877  20.482  0.00  0.00    +0.000 NA
ATOM      9  C   UNL     1       1.563   8.101  19.962  0.00  0.00    +0.000 A 
ATOM     10  C   UNL     1       0.810   9.010  20.696  0.00  0.00    +0.000 A 
ATOM     11  S   UNL     1       2.969   4.381  20.133  0.00  0.00    +0.000 S 
ATOM     12  C   UNL     1       3.767   4.269  18.599  0.00  0.00    +0.000 A 
ATOM     13  N   UNL     1       4.282   3.280  17.923  0.00  0.00    +0.000 NA
ATOM     14  C   UNL     1       4.817   3.903  16.809  0.00  0.00    +0.000 A 
ATOM     15  C   UNL     1       5.539   3.344  15.751  0.00  0.00    +0.000 A 
ATOM     16  C   UNL     1       6.156   4.200  14.828  0.00  0.00    +0.000 A 
ATOM     17  C   UNL     1       6.003   5.586  14.925  0.00  0.00    +0.000 A 
ATOM     18  C   UNL     1       5.177   6.164  15.896  0.00  0.00    +0.000 A 
ATOM     19  C   UNL     1       4.602   5.291  16.830  0.00  0.00    +0.000 A 
ATOM     20  N   UNL     1       3.809   5.457  17.931  0.00  0.00    +0.000 N 
ENDROOT
TORSDOF 0
ENDMDL
MODEL 5
REMARK VINA RESULT:      -7.7      4.884      7.401
REMARK  Name = 
REMARK  0 active torsions:
REMARK  status: ('A' for Active; 'I' for Inactive)
REMARK                            x       y       z     vdW  Elec       q    Type
REMARK                         _______ _______ _______ _____ _____    ______ ____
ROOT
ATOM      1  C   UNL     1       3.505   2.648  19.841  0.00  0.00    +0.000 A 
ATOM      2  C   UNL     1       2.765   2.741  21.010  0.00  0.00    +0.000 A 
ATOM      3  C   UNL     1       2.085   3.923  21.308  0.00  0.00    +0.000 A 
ATOM      4  C   UNL     1       2.196   5.038  20.495  0.00  0.00    +0.000 A 
ATOM      5  N   UNL     1       1.606   6.187  20.886  0.00  0.00    +0.000 NA
ATOM      6  C   UNL     1       1.790   7.208  20.029  0.00  0.00    +0.000 A 
ATOM      7  C   UNL     1       2.485   7.114  18.827  0.00  0.00    +0.000 A 
ATOM      8  N   UNL     1       3.087   5.985  18.432  0.00  0.00    +0.000 NA
ATOM      9  C   UNL     1       2.952   4.942  19.279  0.00  0.00    +0.000 A 
ATOM     10  C   UNL     1       3.573   3.738  18.971  0.00  0.00    +0.000 A 
ATOM     11  S   UNL     1       2.438   8.624  17.859  0.00  0.00    +0.000 S 
ATOM     12  C   UNL     1       1.415   9.301  19.083  0.00  0.00    +0.000 A 
ATOM     13  N   UNL     1       0.720  10.401  19.167  0.00  0.00    +0.000 NA
ATOM     14  C   UNL     1       0.192  10.343  20.445  0.00  0.00    +0.000 A 
ATOM     15  C   UNL     1      -0.604  11.281  21.110  0.00  0.00    +0.000 A 
ATOM     16  C   UNL     1      -0.860  11.100  22.476  0.00  0.00    +0.000 A 
ATOM     17  C   UNL     1      -0.382   9.973  23.150  0.00  0.00    +0.000 A 
ATOM     18  C   UNL     1       0.304   8.955  22.478  0.00  0.00    +0.000 A 
ATOM     19  C   UNL     1       0.580   9.176  21.122  0.00  0.00    +0.000 A 
ATOM     20  N   UNL     1       1.254   8.479  20.158  0.00  0.00    +0.000 N 
ENDROOT
TORSDOF 0
ENDMDL
MODEL 6
REMARK VINA RESULT:      -7.6      4.123      5.332
REMARK  Name = 
REMARK  0 active torsions:
REMARK  status: ('A' for Active; 'I' for Inactive)
REMARK                            x       y       z     vdW  Elec       q    Type
REMARK                         _______ _______ _______ _____ _____    ______ ____
ROOT
ATOM      1  C   UNL     1       5.946   4.018  15.573  0.00  0.00    +0.000 A 
ATOM      2  C   UNL     1       5.946   5.316  15.084  0.00  0.00    +0.000 A 
ATOM      3  C   UNL     1       5.246   6.314  15.763  0.00  0.00    +0.000 A 
ATOM      4  C   UNL     1       4.483   6.019  16.881  0.00  0.00    +0.000 A 
ATOM      5  N   UNL     1       3.741   7.000  17.435  0.00  0.00    +0.000 NA
ATOM      6  C   UNL     1       3.029   6.600  18.505  0.00  0.00    +0.000 A 
ATOM      7  C   UNL     1       3.061   5.315  19.039  0.00  0.00    +0.000 A 
ATOM      8  N   UNL     1       3.782   4.328  18.491  0.00  0.00    +0.000 NA
ATOM      9  C   UNL     1       4.490   4.681  17.396  0.00  0.00    +0.000 A 
ATOM     10  C   UNL     1       5.240   3.714  16.739  0.00  0.00    +0.000 A 
ATOM     11  S   UNL     1       2.095   5.144  20.541  0.00  0.00    +0.000 S 
ATOM     12  C   UNL     1       1.746   6.838  20.432  0.00  0.00    +0.000 A 
ATOM     13  N   UNL     1       1.175   7.693  21.236  0.00  0.00    +0.000 NA
ATOM     14  C   UNL     1       1.163   8.862  20.495  0.00  0.00    +0.000 A 
ATOM     15  C   UNL     1       0.628  10.110  20.831  0.00  0.00    +0.000 A 
ATOM     16  C   UNL     1       0.555  11.100  19.843  0.00  0.00    +0.000 A 
ATOM     17  C   UNL     1       1.063  10.871  18.561  0.00  0.00    +0.000 A 
ATOM     18  C   UNL     1       1.722   9.679  18.239  0.00  0.00    +0.000 A 
ATOM     19  C   UNL     1       1.749   8.689  19.231  0.00  0.00    +0.000 A 
ATOM     20  N   UNL     1       2.226   7.410  19.292  0.00  0.00    +0.000 N 
ENDROOT
TORSDOF 0
ENDMDL
MODEL 7
REMARK VINA RESULT:      -7.4      4.382      7.229
REMARK  Name = 
REMARK  0 active torsions:
REMARK  status: ('A' for Active; 'I' for Inactive)
REMARK                            x       y       z     vdW  Elec       q    Type
REMARK                         _______ _______ _______ _____ _____    ______ ____
ROOT
ATOM      1  C   UNL     1       0.361  11.383  20.307  0.00  0.00    +0.000 A 
ATOM      2  C   UNL     1       0.934  11.634  19.070  0.00  0.00    +0.000 A 
ATOM      3  C   UNL     1       1.578  10.604  18.382  0.00  0.00    +0.000 A 
ATOM      4  C   UNL     1       1.724   9.347  18.946  0.00  0.00    +0.000 A 
ATOM      5  N   UNL     1       2.447   8.420  18.285  0.00  0.00    +0.000 NA
ATOM      6  C   UNL     1       2.536   7.242  18.930  0.00  0.00    +0.000 A 
ATOM      7  C   UNL     1       1.922   6.960  20.146  0.00  0.00    +0.000 A 
ATOM      8  N   UNL     1       1.212   7.875  20.821  0.00  0.00    +0.000 NA
ATOM      9  C   UNL     1       1.123   9.082  20.221  0.00  0.00    +0.000 A 
ATOM     10  C   UNL     1       0.436  10.105  20.863  0.00  0.00    +0.000 A 
ATOM     11  S   UNL     1       2.133   5.259  20.673  0.00  0.00    +0.000 S 
ATOM     12  C   UNL     1       2.981   4.973  19.189  0.00  0.00    +0.000 A 
ATOM     13  N   UNL     1       3.420   3.897  18.597  0.00  0.00    +0.000 NA
ATOM     14  C   UNL     1       4.063   4.394  17.476  0.00  0.00    +0.000 A 
ATOM     15  C   UNL     1       4.769   3.701  16.488  0.00  0.00    +0.000 A 
ATOM     16  C   UNL     1       5.509   4.433  15.550  0.00  0.00    +0.000 A 
ATOM     17  C   UNL     1       5.494   5.830  15.559  0.00  0.00    +0.000 A 
ATOM     18  C   UNL     1       4.691   6.546  16.454  0.00  0.00    +0.000 A 
ATOM     19  C   UNL     1       3.990   5.795  17.407  0.00  0.00    +0.000 A 
ATOM     20  N   UNL     1       3.172   6.106  18.457  0.00  0.00    +0.000 N 
ENDROOT
TORSDOF 0
ENDMDL
MODEL 8
REMARK VINA RESULT:      -7.1      4.478      6.932
REMARK  Name = 
REMARK  0 active torsions:
REMARK  status: ('A' for Active; 'I' for Inactive)
REMARK                            x       y       z     vdW  Elec       q    Type
REMARK                         _______ _______ _______ _____ _____    ______ ____
ROOT
ATOM      1  C   UNL     1       0.114  11.801  19.460  0.00  0.00    +0.000 A 
ATOM      2  C   UNL     1      -0.290  11.106  20.590  0.00  0.00    +0.000 A 
ATOM      3  C   UNL     1       0.212   9.826  20.834  0.00  0.00    +0.000 A 
ATOM      4  C   UNL     1       1.050   9.200  19.926  0.00  0.00    +0.000 A 
ATOM      5  N   UNL     1       1.419   7.924  20.159  0.00  0.00    +0.000 NA
ATOM      6  C   UNL     1       2.220   7.411  19.207  0.00  0.00    +0.000 A 
ATOM      7  C   UNL     1       2.676   8.113  18.096  0.00  0.00    +0.000 A 
ATOM      8  N   UNL     1       2.307   9.377  17.845  0.00  0.00    +0.000 NA
ATOM      9  C   UNL     1       1.478   9.920  18.762  0.00  0.00    +0.000 A 
ATOM     10  C   UNL     1       1.014  11.215  18.567  0.00  0.00    +0.000 A 
ATOM     11  S   UNL     1       3.830   7.180  17.088  0.00  0.00    +0.000 S 
ATOM     12  C   UNL     1       3.711   5.901  18.251  0.00  0.00    +0.000 A 
ATOM     13  N   UNL     1       4.361   4.785  18.429  0.00  0.00    +0.000 NA
ATOM     14  C   UNL     1       3.708   4.208  19.505  0.00  0.00    +0.000 A 
ATOM     15  C   UNL     1       3.940   2.971  20.113  0.00  0.00    +0.000 A 
ATOM     16  C   UNL     1       3.022   2.505  21.065  0.00  0.00    +0.000 A 
ATOM     17  C   UNL     1       1.928   3.287  21.446  0.00  0.00    +0.000 A 
ATOM     18  C   UNL     1       1.747   4.583  20.950  0.00  0.00    +0.000 A 
ATOM     19  C   UNL     1       2.655   5.012  19.972  0.00  0.00    +0.000 A 
ATOM     20  N   UNL     1       2.785   6.146  19.221  0.00  0.00    +0.000 N 
ENDROOT
TORSDOF 0
ENDMDL
MODEL 9
REMARK VINA RESULT:      -6.4      4.040      6.313
REMARK  Name = 
REMARK  0 active torsions:
REMARK  status: ('A' for Active; 'I' for Inactive)
REMARK                            x       y       z     vdW  Elec       q    Type
REMARK                         _______ _______ _______ _____ _____    ______ ____
ROOT
ATOM      1  C   UNL     1       3.265   1.578  18.598  0.00  0.00    +0.000 A 
ATOM      2  C   UNL     1       2.355   1.721  19.634  0.00  0.00    +0.000 A 
ATOM      3  C   UNL     1       1.848   2.985  19.943  0.00  0.00    +0.000 A 
ATOM      4  C   UNL     1       2.295   4.117  19.282  0.00  0.00    +0.000 A 
ATOM      5  N   UNL     1       1.852   5.324  19.693  0.00  0.00    +0.000 NA
ATOM      6  C   UNL     1       2.361   6.353  18.992  0.00  0.00    +0.000 A 
ATOM      7  C   UNL     1       3.233   6.221  17.915  0.00  0.00    +0.000 A 
ATOM      8  N   UNL     1       3.691   5.030  17.505  0.00  0.00    +0.000 NA
ATOM      9  C   UNL     1       3.227   3.971  18.203  0.00  0.00    +0.000 A 
ATOM     10  C   UNL     1       3.675   2.698  17.872  0.00  0.00    +0.000 A 
ATOM     11  S   UNL     1       3.624   7.780  17.119  0.00  0.00    +0.000 S 
ATOM     12  C   UNL     1       2.531   8.544  18.226  0.00  0.00    +0.000 A 
ATOM     13  N   UNL     1       2.034   9.747  18.313  0.00  0.00    +0.000 NA
ATOM     14  C   UNL     1       1.283   9.694  19.475  0.00  0.00    +0.000 A 
ATOM     15  C   UNL     1       0.556  10.713  20.099  0.00  0.00    +0.000 A 
ATOM     16  C   UNL     1       0.033  10.481  21.378  0.00  0.00    +0.000 A 
ATOM     17  C   UNL     1       0.179   9.237  21.997  0.00  0.00    +0.000 A 
ATOM     18  C   UNL     1       0.787   8.161  21.339  0.00  0.00    +0.000 A 
ATOM     19  C   UNL     1       1.336   8.426  20.077  0.00  0.00    +0.000 A 
ATOM     20  N   UNL     1       2.039   7.689  19.167  0.00  0.00    +0.000 N 
ENDROOT
TORSDOF 0
ENDMDL
