MODEL 1
REMARK VINA RESULT:      -7.0      0.000      0.000
REMARK  Name = 
REMARK  18 active torsions:
REMARK  status: ('A' for Active; 'I' for Inactive)
REMARK    1  A    between atoms: O_1  and  C_2
REMARK    2  A    between atoms: C_4  and  O_5
REMARK    3  A    between atoms: C_7  and  C_8
REMARK    4  A    between atoms: C_8  and  C_9
REMARK    5  A    between atoms: C_9  and  C_10
REMARK    6  A    between atoms: C_10  and  C_11
REMARK    7  A    between atoms: C_11  and  C_12
REMARK    8  A    between atoms: C_12  and  C_13
REMARK    9  A    between atoms: C_14  and  C_15
REMARK   10  A    between atoms: C_15  and  C_16
REMARK   11  A    between atoms: C_16  and  C_17
REMARK   12  A    between atoms: C_17  and  C_18
REMARK   13  A    between atoms: C_18  and  C_19
REMARK   14  A    between atoms: C_19  and  C_20
REMARK   15  A    between atoms: C_20  and  C_21
REMARK   16  A    between atoms: C_21  and  C_22
REMARK   17  A    between atoms: C_24  and  O_25
REMARK   18  A    between atoms: C_27  and  O_28
REMARK                            x       y       z     vdW  Elec       q    Type
REMARK                         _______ _______ _______ _____ _____    ______ ____
ROOT
ATOM      1  C   UNL     1       1.487   5.534  20.538  0.00  0.00    +0.000 C 
ATOM      2  C   UNL     1       2.092   4.363  20.778  0.00  0.00    +0.000 C 
ENDROOT
BRANCH   1   3
ATOM      3  C   UNL     1       2.248   6.779  20.243  0.00  0.00    +0.000 C 
BRANCH   3   4
ATOM      4  C   UNL     1       2.833   6.732  18.842  0.00  0.00    +0.000 C 
BRANCH   4   5
ATOM      5  C   UNL     1       2.280   7.870  17.988  0.00  0.00    +0.000 C 
BRANCH   5   6
ATOM      6  C   UNL     1       1.724   8.957  18.899  0.00  0.00    +0.000 C 
BRANCH   6   7
ATOM      7  C   UNL     1       1.424  10.249  18.144  0.00  0.00    +0.000 C 
BRANCH   7  12
ATOM      8  C   UNL     1      -2.386  10.317  17.957  0.00  0.00    +0.000 A 
ATOM      9  C   UNL     1      -2.684  11.524  18.578  0.00  0.00    +0.000 A 
ATOM     10  C   UNL     1      -1.639  12.304  19.057  0.00  0.00    +0.000 A 
ATOM     11  C   UNL     1      -0.315  11.886  18.922  0.00  0.00    +0.000 A 
ATOM     12  C   UNL     1      -0.014  10.674  18.288  0.00  0.00    +0.000 A 
ATOM     13  C   UNL     1      -1.069   9.882  17.807  0.00  0.00    +0.000 A 
BRANCH   8  14
ATOM     14  O   UNL     1      -3.371   9.508  17.466  0.00  0.00    +0.000 OA
ATOM     15  H   UNL     1      -3.234   8.610  17.804  0.00  0.00    +0.000 HD
ENDBRANCH   8  14
BRANCH  10  16
ATOM     16  O   UNL     1      -1.849  13.501  19.675  0.00  0.00    +0.000 OA
ATOM     17  H   UNL     1      -2.330  14.089  19.065  0.00  0.00    +0.000 HD
ENDBRANCH  10  16
ENDBRANCH   7  12
ENDBRANCH   6   7
ENDBRANCH   5   6
ENDBRANCH   4   5
ENDBRANCH   3   4
ENDBRANCH   1   3
BRANCH   2  18
ATOM     18  C   UNL     1       1.332   3.122  21.093  0.00  0.00    +0.000 C 
BRANCH  18  19
ATOM     19  C   UNL     1       1.737   1.997  20.154  0.00  0.00    +0.000 C 
BRANCH  19  20
ATOM     20  C   UNL     1       3.083   2.321  19.523  0.00  0.00    +0.000 C 
BRANCH  20  21
ATOM     21  C   UNL     1       2.996   2.194  18.015  0.00  0.00    +0.000 C 
BRANCH  21  22
ATOM     22  C   UNL     1       3.294   3.528  17.341  0.00  0.00    +0.000 C 
BRANCH  22  23
ATOM     23  C   UNL     1       4.781   3.604  17.027  0.00  0.00    +0.000 C 
BRANCH  23  24
ATOM     24  C   UNL     1       5.156   4.921  16.353  0.00  0.00    +0.000 C 
BRANCH  24  25
ATOM     25  C   UNL     1       6.184   5.693  17.145  0.00  0.00    +0.000 A 
ATOM     26  C   UNL     1       6.509   7.028  16.832  0.00  0.00    +0.000 A 
ATOM     27  C   UNL     1       7.465   7.702  17.594  0.00  0.00    +0.000 A 
ATOM     28  C   UNL     1       8.115   7.077  18.648  0.00  0.00    +0.000 A 
ATOM     29  C   UNL     1       7.802   5.756  18.943  0.00  0.00    +0.000 A 
ATOM     30  C   UNL     1       6.847   5.056  18.200  0.00  0.00    +0.000 A 
BRANCH  29  31
ATOM     31  O   UNL     1       8.412   5.093  19.967  0.00  0.00    +0.000 OA
ATOM     32  H   UNL     1       9.241   4.716  19.625  0.00  0.00    +0.000 HD
ENDBRANCH  29  31
BRANCH  27  33
ATOM     33  O   UNL     1       7.786   9.001  17.328  0.00  0.00    +0.000 OA
ATOM     34  H   UNL     1       7.024   9.427  16.904  0.00  0.00    +0.000 HD
ENDBRANCH  27  33
ENDBRANCH  24  25
ENDBRANCH  23  24
ENDBRANCH  22  23
ENDBRANCH  21  22
ENDBRANCH  20  21
ENDBRANCH  19  20
ENDBRANCH  18  19
ENDBRANCH   2  18
TORSDOF 18
ENDMDL
MODEL 2
REMARK VINA RESULT:      -6.9      1.909      9.426
REMARK  Name = 
REMARK  18 active torsions:
REMARK  status: ('A' for Active; 'I' for Inactive)
REMARK    1  A    between atoms: O_1  and  C_2
REMARK    2  A    between atoms: C_4  and  O_5
REMARK    3  A    between atoms: C_7  and  C_8
REMARK    4  A    between atoms: C_8  and  C_9
REMARK    5  A    between atoms: C_9  and  C_10
REMARK    6  A    between atoms: C_10  and  C_11
REMARK    7  A    between atoms: C_11  and  C_12
REMARK    8  A    between atoms: C_12  and  C_13
REMARK    9  A    between atoms: C_14  and  C_15
REMARK   10  A    between atoms: C_15  and  C_16
REMARK   11  A    between atoms: C_16  and  C_17
REMARK   12  A    between atoms: C_17  and  C_18
REMARK   13  A    between atoms: C_18  and  C_19
REMARK   14  A    between atoms: C_19  and  C_20
REMARK   15  A    between atoms: C_20  and  C_21
REMARK   16  A    between atoms: C_21  and  C_22
REMARK   17  A    between atoms: C_24  and  O_25
REMARK   18  A    between atoms: C_27  and  O_28
REMARK                            x       y       z     vdW  Elec       q    Type
REMARK                         _______ _______ _______ _____ _____    ______ ____
ROOT
ATOM      1  C   UNL     1       2.268   5.290  21.020  0.00  0.00    +0.000 C 
ATOM      2  C   UNL     1       1.447   6.237  20.548  0.00  0.00    +0.000 C 
ENDROOT
BRANCH   1   3
ATOM      3  C   UNL     1       2.109   3.851  20.673  0.00  0.00    +0.000 C 
BRANCH   3   4
ATOM      4  C   UNL     1       0.907   3.646  19.766  0.00  0.00    +0.000 C 
BRANCH   4   5
ATOM      5  C   UNL     1       1.344   3.106  18.406  0.00  0.00    +0.000 C 
BRANCH   5   6
ATOM      6  C   UNL     1       2.303   4.096  17.758  0.00  0.00    +0.000 C 
BRANCH   6   7
ATOM      7  C   UNL     1       3.428   3.399  16.998  0.00  0.00    +0.000 C 
BRANCH   7  12
ATOM      8  C   UNL     1       6.462   5.050  18.619  0.00  0.00    +0.000 A 
ATOM      9  C   UNL     1       7.252   5.351  17.514  0.00  0.00    +0.000 A 
ATOM     10  C   UNL     1       6.789   5.007  16.250  0.00  0.00    +0.000 A 
ATOM     11  C   UNL     1       5.558   4.371  16.087  0.00  0.00    +0.000 A 
ATOM     12  C   UNL     1       4.759   4.076  17.199  0.00  0.00    +0.000 A 
ATOM     13  C   UNL     1       5.226   4.418  18.478  0.00  0.00    +0.000 A 
BRANCH   8  14
ATOM     14  O   UNL     1       6.863   5.363  19.886  0.00  0.00    +0.000 OA
ATOM     15  H   UNL     1       7.149   6.289  19.903  0.00  0.00    +0.000 HD
ENDBRANCH   8  14
BRANCH  10  16
ATOM     16  O   UNL     1       7.502   5.270  15.119  0.00  0.00    +0.000 OA
ATOM     17  H   UNL     1       6.957   5.044  14.344  0.00  0.00    +0.000 HD
ENDBRANCH  10  16
ENDBRANCH   7  12
ENDBRANCH   6   7
ENDBRANCH   5   6
ENDBRANCH   4   5
ENDBRANCH   3   4
ENDBRANCH   1   3
BRANCH   2  18
ATOM     18  C   UNL     1       1.593   7.673  20.911  0.00  0.00    +0.000 C 
BRANCH  18  19
ATOM     19  C   UNL     1       0.313   8.194  21.545  0.00  0.00    +0.000 C 
BRANCH  19  20
ATOM     20  C   UNL     1       0.565   9.567  22.147  0.00  0.00    +0.000 C 
BRANCH  20  21
ATOM     21  C   UNL     1       0.138  10.649  21.174  0.00  0.00    +0.000 C 
BRANCH  21  22
ATOM     22  C   UNL     1       0.920  10.544  19.870  0.00  0.00    +0.000 C 
BRANCH  22  23
ATOM     23  C   UNL     1       0.099  11.161  18.748  0.00  0.00    +0.000 C 
BRANCH  23  24
ATOM     24  C   UNL     1      -0.596  10.101  17.898  0.00  0.00    +0.000 C 
BRANCH  24  25
ATOM     25  C   UNL     1      -1.977  10.533  17.466  0.00  0.00    +0.000 A 
ATOM     26  C   UNL     1      -2.784  11.353  18.279  0.00  0.00    +0.000 A 
ATOM     27  C   UNL     1      -4.053  11.729  17.836  0.00  0.00    +0.000 A 
ATOM     28  C   UNL     1      -4.545  11.296  16.612  0.00  0.00    +0.000 A 
ATOM     29  C   UNL     1      -3.751  10.475  15.821  0.00  0.00    +0.000 A 
ATOM     30  C   UNL     1      -2.474  10.085  16.237  0.00  0.00    +0.000 A 
BRANCH  29  31
ATOM     31  O   UNL     1      -4.185  10.019  14.611  0.00  0.00    +0.000 OA
ATOM     32  H   UNL     1      -5.126  10.250  14.527  0.00  0.00    +0.000 HD
ENDBRANCH  29  31
BRANCH  27  33
ATOM     33  O   UNL     1      -4.850  12.538  18.592  0.00  0.00    +0.000 OA
ATOM     34  H   UNL     1      -4.289  13.191  19.040  0.00  0.00    +0.000 HD
ENDBRANCH  27  33
ENDBRANCH  24  25
ENDBRANCH  23  24
ENDBRANCH  22  23
ENDBRANCH  21  22
ENDBRANCH  20  21
ENDBRANCH  19  20
ENDBRANCH  18  19
ENDBRANCH   2  18
TORSDOF 18
ENDMDL
MODEL 3
REMARK VINA RESULT:      -6.9      2.537      8.717
REMARK  Name = 
REMARK  18 active torsions:
REMARK  status: ('A' for Active; 'I' for Inactive)
REMARK    1  A    between atoms: O_1  and  C_2
REMARK    2  A    between atoms: C_4  and  O_5
REMARK    3  A    between atoms: C_7  and  C_8
REMARK    4  A    between atoms: C_8  and  C_9
REMARK    5  A    between atoms: C_9  and  C_10
REMARK    6  A    between atoms: C_10  and  C_11
REMARK    7  A    between atoms: C_11  and  C_12
REMARK    8  A    between atoms: C_12  and  C_13
REMARK    9  A    between atoms: C_14  and  C_15
REMARK   10  A    between atoms: C_15  and  C_16
REMARK   11  A    between atoms: C_16  and  C_17
REMARK   12  A    between atoms: C_17  and  C_18
REMARK   13  A    between atoms: C_18  and  C_19
REMARK   14  A    between atoms: C_19  and  C_20
REMARK   15  A    between atoms: C_20  and  C_21
REMARK   16  A    between atoms: C_21  and  C_22
REMARK   17  A    between atoms: C_24  and  O_25
REMARK   18  A    between atoms: C_27  and  O_28
REMARK                            x       y       z     vdW  Elec       q    Type
REMARK                         _______ _______ _______ _____ _____    ______ ____
ROOT
ATOM      1  C   UNL     1       1.368   4.464  20.623  0.00  0.00    +0.000 C 
ATOM      2  C   UNL     1       2.371   5.313  20.360  0.00  0.00    +0.000 C 
ENDROOT
BRANCH   1   3
ATOM      3  C   UNL     1       1.603   3.032  20.954  0.00  0.00    +0.000 C 
BRANCH   3   4
ATOM      4  C   UNL     1       1.928   2.236  19.702  0.00  0.00    +0.000 C 
BRANCH   4   5
ATOM      5  C   UNL     1       1.185   2.803  18.494  0.00  0.00    +0.000 C 
BRANCH   5   6
ATOM      6  C   UNL     1       2.191   3.155  17.406  0.00  0.00    +0.000 C 
BRANCH   6   7
ATOM      7  C   UNL     1       3.614   2.747  17.779  0.00  0.00    +0.000 C 
BRANCH   7  12
ATOM      8  C   UNL     1       6.245   5.282  18.878  0.00  0.00    +0.000 A 
ATOM      9  C   UNL     1       6.301   6.134  17.781  0.00  0.00    +0.000 A 
ATOM     10  C   UNL     1       5.483   5.871  16.690  0.00  0.00    +0.000 A 
ATOM     11  C   UNL     1       4.622   4.773  16.689  0.00  0.00    +0.000 A 
ATOM     12  C   UNL     1       4.559   3.920  17.798  0.00  0.00    +0.000 A 
ATOM     13  C   UNL     1       5.388   4.181  18.900  0.00  0.00    +0.000 A 
BRANCH   8  14
ATOM     14  O   UNL     1       7.025   5.489  19.980  0.00  0.00    +0.000 OA
ATOM     15  H   UNL     1       7.656   4.757  20.058  0.00  0.00    +0.000 HD
ENDBRANCH   8  14
BRANCH  10  16
ATOM     16  O   UNL     1       5.477   6.660  15.578  0.00  0.00    +0.000 OA
ATOM     17  H   UNL     1       5.916   7.504  15.790  0.00  0.00    +0.000 HD
ENDBRANCH  10  16
ENDBRANCH   7  12
ENDBRANCH   6   7
ENDBRANCH   5   6
ENDBRANCH   4   5
ENDBRANCH   3   4
ENDBRANCH   1   3
BRANCH   2  18
ATOM     18  C   UNL     1       2.136   6.740  20.009  0.00  0.00    +0.000 C 
BRANCH  18  19
ATOM     19  C   UNL     1       2.378   6.970  18.526  0.00  0.00    +0.000 C 
BRANCH  19  20
ATOM     20  C   UNL     1       2.616   8.450  18.272  0.00  0.00    +0.000 C 
BRANCH  20  21
ATOM     21  C   UNL     1       1.297   9.156  18.031  0.00  0.00    +0.000 C 
BRANCH  21  22
ATOM     22  C   UNL     1       1.072  10.251  19.066  0.00  0.00    +0.000 C 
BRANCH  22  23
ATOM     23  C   UNL     1       1.024  11.599  18.362  0.00  0.00    +0.000 C 
BRANCH  23  24
ATOM     24  C   UNL     1       2.176  12.507  18.785  0.00  0.00    +0.000 C 
BRANCH  24  25
ATOM     25  C   UNL     1       1.808  13.969  18.705  0.00  0.00    +0.000 A 
ATOM     26  C   UNL     1       2.773  14.962  18.446  0.00  0.00    +0.000 A 
ATOM     27  C   UNL     1       2.385  16.301  18.380  0.00  0.00    +0.000 A 
ATOM     28  C   UNL     1       1.064  16.678  18.578  0.00  0.00    +0.000 A 
ATOM     29  C   UNL     1       0.118  15.696  18.847  0.00  0.00    +0.000 A 
ATOM     30  C   UNL     1       0.477  14.347  18.917  0.00  0.00    +0.000 A 
BRANCH  29  31
ATOM     31  O   UNL     1      -1.193  16.010  19.052  0.00  0.00    +0.000 OA
ATOM     32  H   UNL     1      -1.266  16.979  19.080  0.00  0.00    +0.000 HD
ENDBRANCH  29  31
BRANCH  27  33
ATOM     33  O   UNL     1       3.293  17.283  18.112  0.00  0.00    +0.000 OA
ATOM     34  H   UNL     1       4.016  16.901  17.590  0.00  0.00    +0.000 HD
ENDBRANCH  27  33
ENDBRANCH  24  25
ENDBRANCH  23  24
ENDBRANCH  22  23
ENDBRANCH  21  22
ENDBRANCH  20  21
ENDBRANCH  19  20
ENDBRANCH  18  19
ENDBRANCH   2  18
TORSDOF 18
ENDMDL
MODEL 4
REMARK VINA RESULT:      -6.9      2.020      2.971
REMARK  Name = 
REMARK  18 active torsions:
REMARK  status: ('A' for Active; 'I' for Inactive)
REMARK    1  A    between atoms: O_1  and  C_2
REMARK    2  A    between atoms: C_4  and  O_5
REMARK    3  A    between atoms: C_7  and  C_8
REMARK    4  A    between atoms: C_8  and  C_9
REMARK    5  A    between atoms: C_9  and  C_10
REMARK    6  A    between atoms: C_10  and  C_11
REMARK    7  A    between atoms: C_11  and  C_12
REMARK    8  A    between atoms: C_12  and  C_13
REMARK    9  A    between atoms: C_14  and  C_15
REMARK   10  A    between atoms: C_15  and  C_16
REMARK   11  A    between atoms: C_16  and  C_17
REMARK   12  A    between atoms: C_17  and  C_18
REMARK   13  A    between atoms: C_18  and  C_19
REMARK   14  A    between atoms: C_19  and  C_20
REMARK   15  A    between atoms: C_20  and  C_21
REMARK   16  A    between atoms: C_21  and  C_22
REMARK   17  A    between atoms: C_24  and  O_25
REMARK   18  A    between atoms: C_27  and  O_28
REMARK                            x       y       z     vdW  Elec       q    Type
REMARK                         _______ _______ _______ _____ _____    ______ ____
ROOT
ATOM      1  C   UNL     1       1.649   5.436  20.413  0.00  0.00    +0.000 C 
ATOM      2  C   UNL     1       1.545   4.226  20.978  0.00  0.00    +0.000 C 
ENDROOT
BRANCH   1   3
ATOM      3  C   UNL     1       1.391   6.693  21.167  0.00  0.00    +0.000 C 
BRANCH   3   4
ATOM      4  C   UNL     1       1.295   7.878  20.221  0.00  0.00    +0.000 C 
BRANCH   4   5
ATOM      5  C   UNL     1       2.433   7.850  19.203  0.00  0.00    +0.000 C 
BRANCH   5   6
ATOM      6  C   UNL     1       1.970   8.520  17.915  0.00  0.00    +0.000 C 
BRANCH   6   7
ATOM      7  C   UNL     1       0.831   9.507  18.154  0.00  0.00    +0.000 C 
BRANCH   7  12
ATOM      8  C   UNL     1       1.390  12.510  20.439  0.00  0.00    +0.000 A 
ATOM      9  C   UNL     1       2.258  13.291  19.683  0.00  0.00    +0.000 A 
ATOM     10  C   UNL     1       2.657  12.828  18.436  0.00  0.00    +0.000 A 
ATOM     11  C   UNL     1       2.200  11.603  17.948  0.00  0.00    +0.000 A 
ATOM     12  C   UNL     1       1.319  10.821  18.706  0.00  0.00    +0.000 A 
ATOM     13  C   UNL     1       0.919  11.284  19.969  0.00  0.00    +0.000 A 
BRANCH   8  14
ATOM     14  O   UNL     1       0.964  12.913  21.672  0.00  0.00    +0.000 OA
ATOM     15  H   UNL     1       1.510  12.482  22.347  0.00  0.00    +0.000 HD
ENDBRANCH   8  14
BRANCH  10  16
ATOM     16  O   UNL     1       3.502  13.535  17.634  0.00  0.00    +0.000 OA
ATOM     17  H   UNL     1       3.404  13.219  16.718  0.00  0.00    +0.000 HD
ENDBRANCH  10  16
ENDBRANCH   7  12
ENDBRANCH   6   7
ENDBRANCH   5   6
ENDBRANCH   4   5
ENDBRANCH   3   4
ENDBRANCH   1   3
BRANCH   2  18
ATOM     18  C   UNL     1       1.783   2.968  20.219  0.00  0.00    +0.000 C 
BRANCH  18  19
ATOM     19  C   UNL     1       3.255   2.591  20.262  0.00  0.00    +0.000 C 
BRANCH  19  20
ATOM     20  C   UNL     1       3.694   2.093  18.895  0.00  0.00    +0.000 C 
BRANCH  20  21
ATOM     21  C   UNL     1       2.525   2.116  17.931  0.00  0.00    +0.000 C 
BRANCH  21  22
ATOM     22  C   UNL     1       2.698   3.219  16.894  0.00  0.00    +0.000 C 
BRANCH  22  23
ATOM     23  C   UNL     1       4.091   3.816  17.033  0.00  0.00    +0.000 C 
BRANCH  23  24
ATOM     24  C   UNL     1       4.057   5.208  17.657  0.00  0.00    +0.000 C 
BRANCH  24  25
ATOM     25  C   UNL     1       5.432   5.688  18.055  0.00  0.00    +0.000 A 
ATOM     26  C   UNL     1       6.078   5.204  19.210  0.00  0.00    +0.000 A 
ATOM     27  C   UNL     1       7.351   5.676  19.537  0.00  0.00    +0.000 A 
ATOM     28  C   UNL     1       7.990   6.626  18.752  0.00  0.00    +0.000 A 
ATOM     29  C   UNL     1       7.342   7.109  17.622  0.00  0.00    +0.000 A 
ATOM     30  C   UNL     1       6.069   6.654  17.268  0.00  0.00    +0.000 A 
BRANCH  29  31
ATOM     31  O   UNL     1       7.922   8.045  16.817  0.00  0.00    +0.000 OA
ATOM     32  H   UNL     1       8.618   8.489  17.331  0.00  0.00    +0.000 HD
ENDBRANCH  29  31
BRANCH  27  33
ATOM     33  O   UNL     1       8.010   5.213  20.638  0.00  0.00    +0.000 OA
ATOM     34  H   UNL     1       7.868   4.255  20.702  0.00  0.00    +0.000 HD
ENDBRANCH  27  33
ENDBRANCH  24  25
ENDBRANCH  23  24
ENDBRANCH  22  23
ENDBRANCH  21  22
ENDBRANCH  20  21
ENDBRANCH  19  20
ENDBRANCH  18  19
ENDBRANCH   2  18
TORSDOF 18
ENDMDL
MODEL 5
REMARK VINA RESULT:      -6.9      2.032      2.694
REMARK  Name = 
REMARK  18 active torsions:
REMARK  status: ('A' for Active; 'I' for Inactive)
REMARK    1  A    between atoms: O_1  and  C_2
REMARK    2  A    between atoms: C_4  and  O_5
REMARK    3  A    between atoms: C_7  and  C_8
REMARK    4  A    between atoms: C_8  and  C_9
REMARK    5  A    between atoms: C_9  and  C_10
REMARK    6  A    between atoms: C_10  and  C_11
REMARK    7  A    between atoms: C_11  and  C_12
REMARK    8  A    between atoms: C_12  and  C_13
REMARK    9  A    between atoms: C_14  and  C_15
REMARK   10  A    between atoms: C_15  and  C_16
REMARK   11  A    between atoms: C_16  and  C_17
REMARK   12  A    between atoms: C_17  and  C_18
REMARK   13  A    between atoms: C_18  and  C_19
REMARK   14  A    between atoms: C_19  and  C_20
REMARK   15  A    between atoms: C_20  and  C_21
REMARK   16  A    between atoms: C_21  and  C_22
REMARK   17  A    between atoms: C_24  and  O_25
REMARK   18  A    between atoms: C_27  and  O_28
REMARK                            x       y       z     vdW  Elec       q    Type
REMARK                         _______ _______ _______ _____ _____    ______ ____
ROOT
ATOM      1  C   UNL     1       1.847   5.152  20.635  0.00  0.00    +0.000 C 
ATOM      2  C   UNL     1       0.833   4.499  20.050  0.00  0.00    +0.000 C 
ENDROOT
BRANCH   1   3
ATOM      3  C   UNL     1       2.022   6.625  20.513  0.00  0.00    +0.000 C 
BRANCH   3   4
ATOM      4  C   UNL     1       3.020   6.959  19.418  0.00  0.00    +0.000 C 
BRANCH   4   5
ATOM      5  C   UNL     1       2.298   7.383  18.140  0.00  0.00    +0.000 C 
BRANCH   5   6
ATOM      6  C   UNL     1       2.155   8.899  18.124  0.00  0.00    +0.000 C 
BRANCH   6   7
ATOM      7  C   UNL     1       0.731   9.343  17.804  0.00  0.00    +0.000 C 
BRANCH   7  12
ATOM      8  C   UNL     1      -1.240  12.064  19.614  0.00  0.00    +0.000 A 
ATOM      9  C   UNL     1      -0.899  11.832  20.942  0.00  0.00    +0.000 A 
ATOM     10  C   UNL     1      -0.033  10.787  21.236  0.00  0.00    +0.000 A 
ATOM     11  C   UNL     1       0.486   9.981  20.222  0.00  0.00    +0.000 A 
ATOM     12  C   UNL     1       0.150  10.220  18.884  0.00  0.00    +0.000 A 
ATOM     13  C   UNL     1      -0.730  11.273  18.584  0.00  0.00    +0.000 A 
BRANCH   8  14
ATOM     14  O   UNL     1      -2.086  13.076  19.264  0.00  0.00    +0.000 OA
ATOM     15  H   UNL     1      -2.467  12.878  18.395  0.00  0.00    +0.000 HD
ENDBRANCH   8  14
BRANCH  10  16
ATOM     16  O   UNL     1       0.352  10.497  22.512  0.00  0.00    +0.000 OA
ATOM     17  H   UNL     1       0.699  11.307  22.926  0.00  0.00    +0.000 HD
ENDBRANCH  10  16
ENDBRANCH   7  12
ENDBRANCH   6   7
ENDBRANCH   5   6
ENDBRANCH   4   5
ENDBRANCH   3   4
ENDBRANCH   1   3
BRANCH   2  18
ATOM     18  C   UNL     1       0.669   3.023  20.154  0.00  0.00    +0.000 C 
BRANCH  18  19
ATOM     19  C   UNL     1       1.065   2.351  18.850  0.00  0.00    +0.000 C 
BRANCH  19  20
ATOM     20  C   UNL     1       2.043   1.223  19.134  0.00  0.00    +0.000 C 
BRANCH  20  21
ATOM     21  C   UNL     1       3.428   1.597  18.644  0.00  0.00    +0.000 C 
BRANCH  21  22
ATOM     22  C   UNL     1       4.230   2.273  19.749  0.00  0.00    +0.000 C 
BRANCH  22  23
ATOM     23  C   UNL     1       4.712   3.629  19.254  0.00  0.00    +0.000 C 
BRANCH  23  24
ATOM     24  C   UNL     1       4.118   3.986  17.894  0.00  0.00    +0.000 C 
BRANCH  24  25
ATOM     25  C   UNL     1       5.175   4.422  16.908  0.00  0.00    +0.000 A 
ATOM     26  C   UNL     1       6.014   5.525  17.162  0.00  0.00    +0.000 A 
ATOM     27  C   UNL     1       6.979   5.889  16.221  0.00  0.00    +0.000 A 
ATOM     28  C   UNL     1       7.119   5.193  15.029  0.00  0.00    +0.000 A 
ATOM     29  C   UNL     1       6.280   4.114  14.777  0.00  0.00    +0.000 A 
ATOM     30  C   UNL     1       5.307   3.725  15.702  0.00  0.00    +0.000 A 
BRANCH  29  31
ATOM     31  O   UNL     1       6.374   3.397  13.621  0.00  0.00    +0.000 OA
ATOM     32  H   UNL     1       5.561   3.549  13.110  0.00  0.00    +0.000 HD
ENDBRANCH  29  31
BRANCH  27  33
ATOM     33  O   UNL     1       7.818   6.941  16.447  0.00  0.00    +0.000 OA
ATOM     34  H   UNL     1       8.479   6.672  17.104  0.00  0.00    +0.000 HD
ENDBRANCH  27  33
ENDBRANCH  24  25
ENDBRANCH  23  24
ENDBRANCH  22  23
ENDBRANCH  21  22
ENDBRANCH  20  21
ENDBRANCH  19  20
ENDBRANCH  18  19
ENDBRANCH   2  18
TORSDOF 18
ENDMDL
MODEL 6
REMARK VINA RESULT:      -6.8      2.509      3.594
REMARK  Name = 
REMARK  18 active torsions:
REMARK  status: ('A' for Active; 'I' for Inactive)
REMARK    1  A    between atoms: O_1  and  C_2
REMARK    2  A    between atoms: C_4  and  O_5
REMARK    3  A    between atoms: C_7  and  C_8
REMARK    4  A    between atoms: C_8  and  C_9
REMARK    5  A    between atoms: C_9  and  C_10
REMARK    6  A    between atoms: C_10  and  C_11
REMARK    7  A    between atoms: C_11  and  C_12
REMARK    8  A    between atoms: C_12  and  C_13
REMARK    9  A    between atoms: C_14  and  C_15
REMARK   10  A    between atoms: C_15  and  C_16
REMARK   11  A    between atoms: C_16  and  C_17
REMARK   12  A    between atoms: C_17  and  C_18
REMARK   13  A    between atoms: C_18  and  C_19
REMARK   14  A    between atoms: C_19  and  C_20
REMARK   15  A    between atoms: C_20  and  C_21
REMARK   16  A    between atoms: C_21  and  C_22
REMARK   17  A    between atoms: C_24  and  O_25
REMARK   18  A    between atoms: C_27  and  O_28
REMARK                            x       y       z     vdW  Elec       q    Type
REMARK                         _______ _______ _______ _____ _____    ______ ____
ROOT
ATOM      1  C   UNL     1       2.527   5.674  20.259  0.00  0.00    +0.000 C 
ATOM      2  C   UNL     1       1.548   4.940  20.805  0.00  0.00    +0.000 C 
ENDROOT
BRANCH   1   3
ATOM      3  C   UNL     1       2.324   7.087  19.838  0.00  0.00    +0.000 C 
BRANCH   3   4
ATOM      4  C   UNL     1       2.636   7.258  18.361  0.00  0.00    +0.000 C 
BRANCH   4   5
ATOM      5  C   UNL     1       1.978   8.523  17.813  0.00  0.00    +0.000 C 
BRANCH   5   6
ATOM      6  C   UNL     1       1.417   9.338  18.971  0.00  0.00    +0.000 C 
BRANCH   6   7
ATOM      7  C   UNL     1       0.739  10.622  18.501  0.00  0.00    +0.000 C 
BRANCH   7  12
ATOM      8  C   UNL     1       1.895  13.526  20.688  0.00  0.00    +0.000 A 
ATOM      9  C   UNL     1       2.799  14.174  19.854  0.00  0.00    +0.000 A 
ATOM     10  C   UNL     1       3.028  13.655  18.586  0.00  0.00    +0.000 A 
ATOM     11  C   UNL     1       2.366  12.504  18.155  0.00  0.00    +0.000 A 
ATOM     12  C   UNL     1       1.449  11.857  18.992  0.00  0.00    +0.000 A 
ATOM     13  C   UNL     1       1.220  12.377  20.276  0.00  0.00    +0.000 A 
BRANCH   8  14
ATOM     14  O   UNL     1       1.630  13.990  21.945  0.00  0.00    +0.000 OA
ATOM     15  H   UNL     1       0.713  14.304  21.975  0.00  0.00    +0.000 HD
ENDBRANCH   8  14
BRANCH  10  16
ATOM     16  O   UNL     1       3.895  14.233  17.708  0.00  0.00    +0.000 OA
ATOM     17  H   UNL     1       4.557  13.571  17.438  0.00  0.00    +0.000 HD
ENDBRANCH  10  16
ENDBRANCH   7  12
ENDBRANCH   6   7
ENDBRANCH   5   6
ENDBRANCH   4   5
ENDBRANCH   3   4
ENDBRANCH   1   3
BRANCH   2  18
ATOM     18  C   UNL     1       1.745   3.521  21.208  0.00  0.00    +0.000 C 
BRANCH  18  19
ATOM     19  C   UNL     1       1.183   2.585  20.150  0.00  0.00    +0.000 C 
BRANCH  19  20
ATOM     20  C   UNL     1       0.703   3.396  18.956  0.00  0.00    +0.000 C 
BRANCH  20  21
ATOM     21  C   UNL     1       1.612   3.160  17.766  0.00  0.00    +0.000 C 
BRANCH  21  22
ATOM     22  C   UNL     1       2.426   1.885  17.949  0.00  0.00    +0.000 C 
BRANCH  22  23
ATOM     23  C   UNL     1       3.907   2.231  17.914  0.00  0.00    +0.000 C 
BRANCH  23  24
ATOM     24  C   UNL     1       4.144   3.737  17.999  0.00  0.00    +0.000 C 
BRANCH  24  25
ATOM     25  C   UNL     1       5.144   4.214  16.973  0.00  0.00    +0.000 A 
ATOM     26  C   UNL     1       5.312   3.553  15.740  0.00  0.00    +0.000 A 
ATOM     27  C   UNL     1       6.248   4.033  14.822  0.00  0.00    +0.000 A 
ATOM     28  C   UNL     1       7.030   5.144  15.107  0.00  0.00    +0.000 A 
ATOM     29  C   UNL     1       6.870   5.784  16.330  0.00  0.00    +0.000 A 
ATOM     30  C   UNL     1       5.940   5.328  17.267  0.00  0.00    +0.000 A 
BRANCH  29  31
ATOM     31  O   UNL     1       7.614   6.877  16.661  0.00  0.00    +0.000 OA
ATOM     32  H   UNL     1       8.092   6.675  17.483  0.00  0.00    +0.000 HD
ENDBRANCH  29  31
BRANCH  27  33
ATOM     33  O   UNL     1       6.420   3.426  13.613  0.00  0.00    +0.000 OA
ATOM     34  H   UNL     1       7.296   3.009  13.599  0.00  0.00    +0.000 HD
ENDBRANCH  27  33
ENDBRANCH  24  25
ENDBRANCH  23  24
ENDBRANCH  22  23
ENDBRANCH  21  22
ENDBRANCH  20  21
ENDBRANCH  19  20
ENDBRANCH  18  19
ENDBRANCH   2  18
TORSDOF 18
ENDMDL
MODEL 7
REMARK VINA RESULT:      -6.8      2.833      8.278
REMARK  Name = 
REMARK  18 active torsions:
REMARK  status: ('A' for Active; 'I' for Inactive)
REMARK    1  A    between atoms: O_1  and  C_2
REMARK    2  A    between atoms: C_4  and  O_5
REMARK    3  A    between atoms: C_7  and  C_8
REMARK    4  A    between atoms: C_8  and  C_9
REMARK    5  A    between atoms: C_9  and  C_10
REMARK    6  A    between atoms: C_10  and  C_11
REMARK    7  A    between atoms: C_11  and  C_12
REMARK    8  A    between atoms: C_12  and  C_13
REMARK    9  A    between atoms: C_14  and  C_15
REMARK   10  A    between atoms: C_15  and  C_16
REMARK   11  A    between atoms: C_16  and  C_17
REMARK   12  A    between atoms: C_17  and  C_18
REMARK   13  A    between atoms: C_18  and  C_19
REMARK   14  A    between atoms: C_19  and  C_20
REMARK   15  A    between atoms: C_20  and  C_21
REMARK   16  A    between atoms: C_21  and  C_22
REMARK   17  A    between atoms: C_24  and  O_25
REMARK   18  A    between atoms: C_27  and  O_28
REMARK                            x       y       z     vdW  Elec       q    Type
REMARK                         _______ _______ _______ _____ _____    ______ ____
ROOT
ATOM      1  C   UNL     1       2.034   4.923  20.316  0.00  0.00    +0.000 C 
ATOM      2  C   UNL     1       1.482   6.120  20.556  0.00  0.00    +0.000 C 
ENDROOT
BRANCH   1   3
ATOM      3  C   UNL     1       1.387   3.649  20.734  0.00  0.00    +0.000 C 
BRANCH   3   4
ATOM      4  C   UNL     1       2.118   2.456  20.142  0.00  0.00    +0.000 C 
BRANCH   4   5
ATOM      5  C   UNL     1       1.815   2.321  18.651  0.00  0.00    +0.000 C 
BRANCH   5   6
ATOM      6  C   UNL     1       3.120   2.372  17.868  0.00  0.00    +0.000 C 
BRANCH   6   7
ATOM      7  C   UNL     1       3.293   3.688  17.114  0.00  0.00    +0.000 C 
BRANCH   7  12
ATOM      8  C   UNL     1       6.491   5.063  18.675  0.00  0.00    +0.000 A 
ATOM      9  C   UNL     1       7.254   5.365  17.553  0.00  0.00    +0.000 A 
ATOM     10  C   UNL     1       6.719   5.113  16.296  0.00  0.00    +0.000 A 
ATOM     11  C   UNL     1       5.444   4.565  16.158  0.00  0.00    +0.000 A 
ATOM     12  C   UNL     1       4.672   4.269  17.288  0.00  0.00    +0.000 A 
ATOM     13  C   UNL     1       5.212   4.518  18.560  0.00  0.00    +0.000 A 
BRANCH   8  14
ATOM     14  O   UNL     1       6.963   5.289  19.937  0.00  0.00    +0.000 OA
ATOM     15  H   UNL     1       7.927   5.183  19.933  0.00  0.00    +0.000 HD
ENDBRANCH   8  14
BRANCH  10  16
ATOM     16  O   UNL     1       7.402   5.384  15.147  0.00  0.00    +0.000 OA
ATOM     17  H   UNL     1       7.834   6.252  15.236  0.00  0.00    +0.000 HD
ENDBRANCH  10  16
ENDBRANCH   7  12
ENDBRANCH   6   7
ENDBRANCH   5   6
ENDBRANCH   4   5
ENDBRANCH   3   4
ENDBRANCH   1   3
BRANCH   2  18
ATOM     18  C   UNL     1       2.139   7.395  20.157  0.00  0.00    +0.000 C 
BRANCH  18  19
ATOM     19  C   UNL     1       2.306   7.457  18.647  0.00  0.00    +0.000 C 
BRANCH  19  20
ATOM     20  C   UNL     1       2.351   8.909  18.199  0.00  0.00    +0.000 C 
BRANCH  20  21
ATOM     21  C   UNL     1       0.985   9.346  17.707  0.00  0.00    +0.000 C 
BRANCH  21  22
ATOM     22  C   UNL     1       0.158   9.924  18.849  0.00  0.00    +0.000 C 
BRANCH  22  23
ATOM     23  C   UNL     1       0.975  10.991  19.563  0.00  0.00    +0.000 C 
BRANCH  23  24
ATOM     24  C   UNL     1       1.028  12.295  18.773  0.00  0.00    +0.000 C 
BRANCH  24  25
ATOM     25  C   UNL     1       2.149  13.196  19.235  0.00  0.00    +0.000 A 
ATOM     26  C   UNL     1       3.012  13.833  18.321  0.00  0.00    +0.000 A 
ATOM     27  C   UNL     1       4.032  14.658  18.796  0.00  0.00    +0.000 A 
ATOM     28  C   UNL     1       4.225  14.853  20.156  0.00  0.00    +0.000 A 
ATOM     29  C   UNL     1       3.381  14.212  21.054  0.00  0.00    +0.000 A 
ATOM     30  C   UNL     1       2.348  13.382  20.608  0.00  0.00    +0.000 A 
BRANCH  29  31
ATOM     31  O   UNL     1       3.527  14.367  22.401  0.00  0.00    +0.000 OA
ATOM     32  H   UNL     1       2.884  13.784  22.839  0.00  0.00    +0.000 HD
ENDBRANCH  29  31
BRANCH  27  33
ATOM     33  O   UNL     1       4.871  15.303  17.935  0.00  0.00    +0.000 OA
ATOM     34  H   UNL     1       4.845  16.252  18.133  0.00  0.00    +0.000 HD
ENDBRANCH  27  33
ENDBRANCH  24  25
ENDBRANCH  23  24
ENDBRANCH  22  23
ENDBRANCH  21  22
ENDBRANCH  20  21
ENDBRANCH  19  20
ENDBRANCH  18  19
ENDBRANCH   2  18
TORSDOF 18
ENDMDL
MODEL 8
REMARK VINA RESULT:      -6.7      2.985      4.518
REMARK  Name = 
REMARK  18 active torsions:
REMARK  status: ('A' for Active; 'I' for Inactive)
REMARK    1  A    between atoms: O_1  and  C_2
REMARK    2  A    between atoms: C_4  and  O_5
REMARK    3  A    between atoms: C_7  and  C_8
REMARK    4  A    between atoms: C_8  and  C_9
REMARK    5  A    between atoms: C_9  and  C_10
REMARK    6  A    between atoms: C_10  and  C_11
REMARK    7  A    between atoms: C_11  and  C_12
REMARK    8  A    between atoms: C_12  and  C_13
REMARK    9  A    between atoms: C_14  and  C_15
REMARK   10  A    between atoms: C_15  and  C_16
REMARK   11  A    between atoms: C_16  and  C_17
REMARK   12  A    between atoms: C_17  and  C_18
REMARK   13  A    between atoms: C_18  and  C_19
REMARK   14  A    between atoms: C_19  and  C_20
REMARK   15  A    between atoms: C_20  and  C_21
REMARK   16  A    between atoms: C_21  and  C_22
REMARK   17  A    between atoms: C_24  and  O_25
REMARK   18  A    between atoms: C_27  and  O_28
REMARK                            x       y       z     vdW  Elec       q    Type
REMARK                         _______ _______ _______ _____ _____    ______ ____
ROOT
ATOM      1  C   UNL     1       2.247   8.036  17.959  0.00  0.00    +0.000 C 
ATOM      2  C   UNL     1       2.132   7.310  19.079  0.00  0.00    +0.000 C 
ENDROOT
BRANCH   1   3
ATOM      3  C   UNL     1       2.069   9.514  17.945  0.00  0.00    +0.000 C 
BRANCH   3   4
ATOM      4  C   UNL     1       1.116   9.951  19.044  0.00  0.00    +0.000 C 
BRANCH   4   5
ATOM      5  C   UNL     1       0.628  11.378  18.799  0.00  0.00    +0.000 C 
BRANCH   5   6
ATOM      6  C   UNL     1       1.324  12.320  19.773  0.00  0.00    +0.000 C 
BRANCH   6   7
ATOM      7  C   UNL     1       0.792  13.747  19.677  0.00  0.00    +0.000 C 
BRANCH   7  12
ATOM      8  C   UNL     1       3.877  15.120  17.901  0.00  0.00    +0.000 A 
ATOM      9  C   UNL     1       3.503  16.434  17.645  0.00  0.00    +0.000 A 
ATOM     10  C   UNL     1       2.244  16.860  18.051  0.00  0.00    +0.000 A 
ATOM     11  C   UNL     1       1.369  15.989  18.700  0.00  0.00    +0.000 A 
ATOM     12  C   UNL     1       1.750  14.667  18.965  0.00  0.00    +0.000 A 
ATOM     13  C   UNL     1       3.019  14.233  18.552  0.00  0.00    +0.000 A 
BRANCH   8  14
ATOM     14  O   UNL     1       5.101  14.644  17.525  0.00  0.00    +0.000 OA
ATOM     15  H   UNL     1       5.455  15.212  16.825  0.00  0.00    +0.000 HD
ENDBRANCH   8  14
BRANCH  10  16
ATOM     16  O   UNL     1       1.804  18.133  17.841  0.00  0.00    +0.000 OA
ATOM     17  H   UNL     1       0.830  18.132  17.838  0.00  0.00    +0.000 HD
ENDBRANCH  10  16
ENDBRANCH   7  12
ENDBRANCH   6   7
ENDBRANCH   5   6
ENDBRANCH   4   5
ENDBRANCH   3   4
ENDBRANCH   1   3
BRANCH   2  18
ATOM     18  C   UNL     1       2.289   5.830  19.090  0.00  0.00    +0.000 C 
BRANCH  18  19
ATOM     19  C   UNL     1       2.101   5.286  20.497  0.00  0.00    +0.000 C 
BRANCH  19  20
ATOM     20  C   UNL     1       1.156   4.095  20.461  0.00  0.00    +0.000 C 
BRANCH  20  21
ATOM     21  C   UNL     1       1.947   2.802  20.415  0.00  0.00    +0.000 C 
BRANCH  21  22
ATOM     22  C   UNL     1       1.994   2.246  18.998  0.00  0.00    +0.000 C 
BRANCH  22  23
ATOM     23  C   UNL     1       3.437   2.239  18.515  0.00  0.00    +0.000 C 
BRANCH  23  24
ATOM     24  C   UNL     1       3.650   3.183  17.334  0.00  0.00    +0.000 C 
BRANCH  24  25
ATOM     25  C   UNL     1       4.939   3.961  17.452  0.00  0.00    +0.000 A 
ATOM     26  C   UNL     1       5.468   4.330  18.705  0.00  0.00    +0.000 A 
ATOM     27  C   UNL     1       6.664   5.047  18.764  0.00  0.00    +0.000 A 
ATOM     28  C   UNL     1       7.338   5.418  17.609  0.00  0.00    +0.000 A 
ATOM     29  C   UNL     1       6.805   5.063  16.376  0.00  0.00    +0.000 A 
ATOM     30  C   UNL     1       5.610   4.343  16.286  0.00  0.00    +0.000 A 
BRANCH  29  31
ATOM     31  O   UNL     1       7.424   5.404  15.210  0.00  0.00    +0.000 OA
ATOM     32  H   UNL     1       7.506   6.372  15.188  0.00  0.00    +0.000 HD
ENDBRANCH  29  31
BRANCH  27  33
ATOM     33  O   UNL     1       7.211   5.403  19.962  0.00  0.00    +0.000 OA
ATOM     34  H   UNL     1       7.769   6.185  19.826  0.00  0.00    +0.000 HD
ENDBRANCH  27  33
ENDBRANCH  24  25
ENDBRANCH  23  24
ENDBRANCH  22  23
ENDBRANCH  21  22
ENDBRANCH  20  21
ENDBRANCH  19  20
ENDBRANCH  18  19
ENDBRANCH   2  18
TORSDOF 18
ENDMDL
MODEL 9
REMARK VINA RESULT:      -6.7      1.955      8.456
REMARK  Name = 
REMARK  18 active torsions:
REMARK  status: ('A' for Active; 'I' for Inactive)
REMARK    1  A    between atoms: O_1  and  C_2
REMARK    2  A    between atoms: C_4  and  O_5
REMARK    3  A    between atoms: C_7  and  C_8
REMARK    4  A    between atoms: C_8  and  C_9
REMARK    5  A    between atoms: C_9  and  C_10
REMARK    6  A    between atoms: C_10  and  C_11
REMARK    7  A    between atoms: C_11  and  C_12
REMARK    8  A    between atoms: C_12  and  C_13
REMARK    9  A    between atoms: C_14  and  C_15
REMARK   10  A    between atoms: C_15  and  C_16
REMARK   11  A    between atoms: C_16  and  C_17
REMARK   12  A    between atoms: C_17  and  C_18
REMARK   13  A    between atoms: C_18  and  C_19
REMARK   14  A    between atoms: C_19  and  C_20
REMARK   15  A    between atoms: C_20  and  C_21
REMARK   16  A    between atoms: C_21  and  C_22
REMARK   17  A    between atoms: C_24  and  O_25
REMARK   18  A    between atoms: C_27  and  O_28
REMARK                            x       y       z     vdW  Elec       q    Type
REMARK                         _______ _______ _______ _____ _____    ______ ____
ROOT
ATOM      1  C   UNL     1       1.044   3.284  19.705  0.00  0.00    +0.000 C 
ATOM      2  C   UNL     1       1.704   4.445  19.811  0.00  0.00    +0.000 C 
ENDROOT
BRANCH   1   3
ATOM      3  C   UNL     1       1.264   2.342  18.574  0.00  0.00    +0.000 C 
BRANCH   3   4
ATOM      4  C   UNL     1       2.733   2.299  18.188  0.00  0.00    +0.000 C 
BRANCH   4   5
ATOM      5  C   UNL     1       2.977   3.085  16.902  0.00  0.00    +0.000 C 
BRANCH   5   6
ATOM      6  C   UNL     1       3.822   4.313  17.218  0.00  0.00    +0.000 C 
BRANCH   6   7
ATOM      7  C   UNL     1       5.259   4.170  16.723  0.00  0.00    +0.000 C 
BRANCH   7  12
ATOM      8  C   UNL     1       7.470   7.169  17.543  0.00  0.00    +0.000 A 
ATOM      9  C   UNL     1       7.976   6.823  18.791  0.00  0.00    +0.000 A 
ATOM     10  C   UNL     1       7.587   5.615  19.356  0.00  0.00    +0.000 A 
ATOM     11  C   UNL     1       6.705   4.764  18.690  0.00  0.00    +0.000 A 
ATOM     12  C   UNL     1       6.202   5.109  17.429  0.00  0.00    +0.000 A 
ATOM     13  C   UNL     1       6.590   6.332  16.857  0.00  0.00    +0.000 A 
BRANCH   8  14
ATOM     14  O   UNL     1       7.816   8.343  16.937  0.00  0.00    +0.000 OA
ATOM     15  H   UNL     1       8.690   8.614  17.256  0.00  0.00    +0.000 HD
ENDBRANCH   8  14
BRANCH  10  16
ATOM     16  O   UNL     1       8.041   5.203  20.574  0.00  0.00    +0.000 OA
ATOM     17  H   UNL     1       8.936   4.833  20.467  0.00  0.00    +0.000 HD
ENDBRANCH  10  16
ENDBRANCH   7  12
ENDBRANCH   6   7
ENDBRANCH   5   6
ENDBRANCH   4   5
ENDBRANCH   3   4
ENDBRANCH   1   3
BRANCH   2  18
ATOM     18  C   UNL     1       1.469   5.397  20.932  0.00  0.00    +0.000 C 
BRANCH  18  19
ATOM     19  C   UNL     1       1.894   6.801  20.535  0.00  0.00    +0.000 C 
BRANCH  19  20
ATOM     20  C   UNL     1       2.172   6.846  19.041  0.00  0.00    +0.000 C 
BRANCH  20  21
ATOM     21  C   UNL     1       2.572   8.248  18.626  0.00  0.00    +0.000 C 
BRANCH  21  22
ATOM     22  C   UNL     1       1.632   8.784  17.552  0.00  0.00    +0.000 C 
BRANCH  22  23
ATOM     23  C   UNL     1       0.542   9.613  18.215  0.00  0.00    +0.000 C 
BRANCH  23  24
ATOM     24  C   UNL     1       1.116  10.795  18.992  0.00  0.00    +0.000 C 
BRANCH  24  25
ATOM     25  C   UNL     1       0.444  10.974  20.333  0.00  0.00    +0.000 A 
ATOM     26  C   UNL     1       0.100   9.873  21.142  0.00  0.00    +0.000 A 
ATOM     27  C   UNL     1      -0.518  10.089  22.374  0.00  0.00    +0.000 A 
ATOM     28  C   UNL     1      -0.815  11.371  22.816  0.00  0.00    +0.000 A 
ATOM     29  C   UNL     1      -0.486  12.453  22.008  0.00  0.00    +0.000 A 
ATOM     30  C   UNL     1       0.135  12.268  20.770  0.00  0.00    +0.000 A 
BRANCH  29  31
ATOM     31  O   UNL     1      -0.758  13.733  22.392  0.00  0.00    +0.000 OA
ATOM     32  H   UNL     1      -0.384  13.863  23.279  0.00  0.00    +0.000 HD
ENDBRANCH  29  31
BRANCH  27  33
ATOM     33  O   UNL     1      -0.846   9.044  23.188  0.00  0.00    +0.000 OA
ATOM     34  H   UNL     1      -0.887   9.366  24.102  0.00  0.00    +0.000 HD
ENDBRANCH  27  33
ENDBRANCH  24  25
ENDBRANCH  23  24
ENDBRANCH  22  23
ENDBRANCH  21  22
ENDBRANCH  20  21
ENDBRANCH  19  20
ENDBRANCH  18  19
ENDBRANCH   2  18
TORSDOF 18
ENDMDL
