MODEL 1
REMARK VINA RESULT:      -7.9      0.000      0.000
REMARK  Name = 
REMARK  7 active torsions:
REMARK  status: ('A' for Active; 'I' for Inactive)
REMARK    1  A    between atoms: C_2  and  C_3
REMARK    2  A    between atoms: C_3  and  C_4
REMARK    3  A    between atoms: C_4  and  C_5
REMARK    4  A    between atoms: C_5  and  C_6
REMARK    5  A    between atoms: C_6  and  C_7
REMARK    6  A    between atoms: C_7  and  N_8
REMARK    7  A    between atoms: N_24  and  O_25
REMARK                            x       y       z     vdW  Elec       q    Type
REMARK                         _______ _______ _______ _____ _____    ______ ____
ROOT
ATOM      1  N   UNL     1       4.354   5.972  18.155  0.00  0.00    +0.000 N 
ATOM      2  C   UNL     1       4.567   4.829  18.955  0.00  0.00    +0.000 C 
ATOM      3  O   UNL     1       5.691   4.410  19.239  0.00  0.00    +0.000 OA
ATOM      4  C   UNL     1       3.444   3.881  19.081  0.00  0.00    +0.000 A 
ATOM      5  C   UNL     1       3.581   2.619  18.480  0.00  0.00    +0.000 A 
ATOM      6  C   UNL     1       2.508   1.731  18.460  0.00  0.00    +0.000 A 
ATOM      7  C   UNL     1       1.306   2.096  19.059  0.00  0.00    +0.000 A 
ATOM      8  C   UNL     1       1.197   3.325  19.717  0.00  0.00    +0.000 A 
ATOM      9  C   UNL     1       2.275   4.217  19.742  0.00  0.00    +0.000 A 
ATOM     10  S   UNL     1       2.193   5.690  20.701  0.00  0.00    +0.000 S 
ATOM     11  C   UNL     1       2.349   6.918  19.414  0.00  0.00    +0.000 A 
ATOM     12  C   UNL     1       1.369   7.932  19.545  0.00  0.00    +0.000 A 
ATOM     13  C   UNL     1       1.359   9.045  18.719  0.00  0.00    +0.000 A 
ATOM     14  C   UNL     1       2.346   9.166  17.763  0.00  0.00    +0.000 A 
ATOM     15  C   UNL     1       3.306   8.153  17.601  0.00  0.00    +0.000 A 
ATOM     16  C   UNL     1       3.327   6.978  18.387  0.00  0.00    +0.000 A 
ENDROOT
BRANCH   1  17
ATOM     17  C   UNL     1       5.295   6.039  17.019  0.00  0.00    +0.000 C 
BRANCH  17  18
ATOM     18  C   UNL     1       4.965   4.953  15.970  0.00  0.00    +0.000 C 
BRANCH  18  19
ATOM     19  C   UNL     1       6.080   3.955  15.652  0.00  0.00    +0.000 C 
BRANCH  19  20
ATOM     20  C   UNL     1       6.460   3.945  14.171  0.00  0.00    +0.000 C 
BRANCH  20  21
ATOM     21  C   UNL     1       5.242   4.143  13.271  0.00  0.00    +0.000 C 
BRANCH  21  23
ATOM     22  O   UNL     1       4.281   2.972  11.363  0.00  0.00    +0.000 OA
ATOM     23  C   UNL     1       5.215   3.130  12.146  0.00  0.00    +0.000 C 
ATOM     24  N   UNL     1       6.353   2.358  12.082  0.00  0.00    +0.000 N 
ATOM     25  H   UNL     1       7.061   2.305  12.806  0.00  0.00    +0.000 HD
BRANCH  24  26
ATOM     26  O   UNL     1       6.349   1.319  11.120  0.00  0.00    +0.000 OA
ATOM     27  H   UNL     1       5.403   1.285  10.853  0.00  0.00    +0.000 HD
ENDBRANCH  24  26
ENDBRANCH  21  23
ENDBRANCH  20  21
ENDBRANCH  19  20
ENDBRANCH  18  19
ENDBRANCH  17  18
ENDBRANCH   1  17
TORSDOF 7
ENDMDL
MODEL 2
REMARK VINA RESULT:      -7.6      0.730      1.039
REMARK  Name = 
REMARK  7 active torsions:
REMARK  status: ('A' for Active; 'I' for Inactive)
REMARK    1  A    between atoms: C_2  and  C_3
REMARK    2  A    between atoms: C_3  and  C_4
REMARK    3  A    between atoms: C_4  and  C_5
REMARK    4  A    between atoms: C_5  and  C_6
REMARK    5  A    between atoms: C_6  and  C_7
REMARK    6  A    between atoms: C_7  and  N_8
REMARK    7  A    between atoms: N_24  and  O_25
REMARK                            x       y       z     vdW  Elec       q    Type
REMARK                         _______ _______ _______ _____ _____    ______ ____
ROOT
ATOM      1  N   UNL     1       4.442   5.744  18.169  0.00  0.00    +0.000 N 
ATOM      2  C   UNL     1       4.599   4.596  18.973  0.00  0.00    +0.000 C 
ATOM      3  O   UNL     1       5.701   4.127  19.265  0.00  0.00    +0.000 OA
ATOM      4  C   UNL     1       3.433   3.699  19.093  0.00  0.00    +0.000 A 
ATOM      5  C   UNL     1       3.517   2.430  18.497  0.00  0.00    +0.000 A 
ATOM      6  C   UNL     1       2.406   1.591  18.472  0.00  0.00    +0.000 A 
ATOM      7  C   UNL     1       1.218   2.012  19.063  0.00  0.00    +0.000 A 
ATOM      8  C   UNL     1       1.160   3.247  19.717  0.00  0.00    +0.000 A 
ATOM      9  C   UNL     1       2.276   4.089  19.747  0.00  0.00    +0.000 A 
ATOM     10  S   UNL     1       2.255   5.567  20.702  0.00  0.00    +0.000 S 
ATOM     11  C   UNL     1       2.474   6.783  19.412  0.00  0.00    +0.000 A 
ATOM     12  C   UNL     1       1.539   7.841  19.535  0.00  0.00    +0.000 A 
ATOM     13  C   UNL     1       1.585   8.951  18.706  0.00  0.00    +0.000 A 
ATOM     14  C   UNL     1       2.583   9.025  17.756  0.00  0.00    +0.000 A 
ATOM     15  C   UNL     1       3.497   7.969  17.603  0.00  0.00    +0.000 A 
ATOM     16  C   UNL     1       3.460   6.796  18.392  0.00  0.00    +0.000 A 
ENDROOT
BRANCH   1  17
ATOM     17  C   UNL     1       5.392   5.766  17.038  0.00  0.00    +0.000 C 
BRANCH  17  18
ATOM     18  C   UNL     1       4.910   4.839  15.899  0.00  0.00    +0.000 C 
BRANCH  18  19
ATOM     19  C   UNL     1       5.607   5.005  14.548  0.00  0.00    +0.000 C 
BRANCH  19  20
ATOM     20  C   UNL     1       6.266   3.714  14.061  0.00  0.00    +0.000 C 
BRANCH  20  21
ATOM     21  C   UNL     1       6.509   3.735  12.553  0.00  0.00    +0.000 C 
BRANCH  21  23
ATOM     22  O   UNL     1       5.633   1.750  11.445  0.00  0.00    +0.000 OA
ATOM     23  C   UNL     1       5.476   2.911  11.814  0.00  0.00    +0.000 C 
ATOM     24  N   UNL     1       4.311   3.600  11.562  0.00  0.00    +0.000 N 
ATOM     25  H   UNL     1       4.194   4.602  11.663  0.00  0.00    +0.000 HD
BRANCH  24  26
ATOM     26  O   UNL     1       3.343   2.923  10.781  0.00  0.00    +0.000 OA
ATOM     27  H   UNL     1       2.825   3.667  10.400  0.00  0.00    +0.000 HD
ENDBRANCH  24  26
ENDBRANCH  21  23
ENDBRANCH  20  21
ENDBRANCH  19  20
ENDBRANCH  18  19
ENDBRANCH  17  18
ENDBRANCH   1  17
TORSDOF 7
ENDMDL
MODEL 3
REMARK VINA RESULT:      -7.4      1.641      1.712
REMARK  Name = 
REMARK  7 active torsions:
REMARK  status: ('A' for Active; 'I' for Inactive)
REMARK    1  A    between atoms: C_2  and  C_3
REMARK    2  A    between atoms: C_3  and  C_4
REMARK    3  A    between atoms: C_4  and  C_5
REMARK    4  A    between atoms: C_5  and  C_6
REMARK    5  A    between atoms: C_6  and  C_7
REMARK    6  A    between atoms: C_7  and  N_8
REMARK    7  A    between atoms: N_24  and  O_25
REMARK                            x       y       z     vdW  Elec       q    Type
REMARK                         _______ _______ _______ _____ _____    ______ ____
ROOT
ATOM      1  N   UNL     1       4.282   6.017  18.477  0.00  0.00    +0.000 N 
ATOM      2  C   UNL     1       4.420   4.889  19.314  0.00  0.00    +0.000 C 
ATOM      3  O   UNL     1       5.514   4.460  19.685  0.00  0.00    +0.000 OA
ATOM      4  C   UNL     1       3.276   3.959  19.378  0.00  0.00    +0.000 A 
ATOM      5  C   UNL     1       3.435   2.683  18.814  0.00  0.00    +0.000 A 
ATOM      6  C   UNL     1       2.353   1.810  18.735  0.00  0.00    +0.000 A 
ATOM      7  C   UNL     1       1.118   2.205  19.240  0.00  0.00    +0.000 A 
ATOM      8  C   UNL     1       0.981   3.450  19.863  0.00  0.00    +0.000 A 
ATOM      9  C   UNL     1       2.068   4.326  19.947  0.00  0.00    +0.000 A 
ATOM     10  S   UNL     1       1.941   5.821  20.868  0.00  0.00    +0.000 S 
ATOM     11  C   UNL     1       2.207   7.018  19.570  0.00  0.00    +0.000 A 
ATOM     12  C   UNL     1       1.236   8.049  19.611  0.00  0.00    +0.000 A 
ATOM     13  C   UNL     1       1.303   9.144  18.763  0.00  0.00    +0.000 A 
ATOM     14  C   UNL     1       2.358   9.231  17.878  0.00  0.00    +0.000 A 
ATOM     15  C   UNL     1       3.310   8.200  17.806  0.00  0.00    +0.000 A 
ATOM     16  C   UNL     1       3.257   7.042  18.615  0.00  0.00    +0.000 A 
ENDROOT
BRANCH   1  17
ATOM     17  C   UNL     1       5.302   6.047  17.410  0.00  0.00    +0.000 C 
BRANCH  17  18
ATOM     18  C   UNL     1       4.743   5.445  16.101  0.00  0.00    +0.000 C 
BRANCH  18  19
ATOM     19  C   UNL     1       4.998   3.953  15.878  0.00  0.00    +0.000 C 
BRANCH  19  20
ATOM     20  C   UNL     1       6.268   3.685  15.070  0.00  0.00    +0.000 C 
BRANCH  20  21
ATOM     21  C   UNL     1       6.032   3.849  13.569  0.00  0.00    +0.000 C 
BRANCH  21  23
ATOM     22  O   UNL     1       7.501   4.493  11.736  0.00  0.00    +0.000 OA
ATOM     23  C   UNL     1       7.163   4.611  12.912  0.00  0.00    +0.000 C 
ATOM     24  N   UNL     1       7.818   5.461  13.772  0.00  0.00    +0.000 N 
ATOM     25  H   UNL     1       7.718   5.459  14.781  0.00  0.00    +0.000 HD
BRANCH  24  26
ATOM     26  O   UNL     1       8.954   6.125  13.249  0.00  0.00    +0.000 OA
ATOM     27  H   UNL     1       9.107   6.834  13.914  0.00  0.00    +0.000 HD
ENDBRANCH  24  26
ENDBRANCH  21  23
ENDBRANCH  20  21
ENDBRANCH  19  20
ENDBRANCH  18  19
ENDBRANCH  17  18
ENDBRANCH   1  17
TORSDOF 7
ENDMDL
MODEL 4
REMARK VINA RESULT:      -7.3      3.835      7.727
REMARK  Name = 
REMARK  7 active torsions:
REMARK  status: ('A' for Active; 'I' for Inactive)
REMARK    1  A    between atoms: C_2  and  C_3
REMARK    2  A    between atoms: C_3  and  C_4
REMARK    3  A    between atoms: C_4  and  C_5
REMARK    4  A    between atoms: C_5  and  C_6
REMARK    5  A    between atoms: C_6  and  C_7
REMARK    6  A    between atoms: C_7  and  N_8
REMARK    7  A    between atoms: N_24  and  O_25
REMARK                            x       y       z     vdW  Elec       q    Type
REMARK                         _______ _______ _______ _____ _____    ______ ____
ROOT
ATOM      1  N   UNL     1       3.038   6.068  17.881  0.00  0.00    +0.000 N 
ATOM      2  C   UNL     1       2.104   5.020  18.021  0.00  0.00    +0.000 C 
ATOM      3  O   UNL     1       1.001   5.028  17.472  0.00  0.00    +0.000 OA
ATOM      4  C   UNL     1       2.271   4.125  19.182  0.00  0.00    +0.000 A 
ATOM      5  C   UNL     1       1.303   4.178  20.197  0.00  0.00    +0.000 A 
ATOM      6  C   UNL     1       1.474   3.448  21.370  0.00  0.00    +0.000 A 
ATOM      7  C   UNL     1       2.602   2.647  21.519  0.00  0.00    +0.000 A 
ATOM      8  C   UNL     1       3.529   2.543  20.477  0.00  0.00    +0.000 A 
ATOM      9  C   UNL     1       3.357   3.272  19.296  0.00  0.00    +0.000 A 
ATOM     10  S   UNL     1       4.433   3.021  17.925  0.00  0.00    +0.000 S 
ATOM     11  C   UNL     1       5.154   4.649  17.784  0.00  0.00    +0.000 A 
ATOM     12  C   UNL     1       6.563   4.581  17.662  0.00  0.00    +0.000 A 
ATOM     13  C   UNL     1       7.329   5.714  17.436  0.00  0.00    +0.000 A 
ATOM     14  C   UNL     1       6.688   6.929  17.309  0.00  0.00    +0.000 A 
ATOM     15  C   UNL     1       5.294   7.015  17.458  0.00  0.00    +0.000 A 
ATOM     16  C   UNL     1       4.477   5.895  17.737  0.00  0.00    +0.000 A 
ENDROOT
BRANCH   1  17
ATOM     17  C   UNL     1       2.393   7.397  17.910  0.00  0.00    +0.000 C 
BRANCH  17  18
ATOM     18  C   UNL     1       2.461   8.007  19.329  0.00  0.00    +0.000 C 
BRANCH  18  19
ATOM     19  C   UNL     1       1.153   8.567  19.890  0.00  0.00    +0.000 C 
BRANCH  19  20
ATOM     20  C   UNL     1       0.773   7.944  21.234  0.00  0.00    +0.000 C 
BRANCH  20  21
ATOM     21  C   UNL     1      -0.501   8.564  21.806  0.00  0.00    +0.000 C 
BRANCH  21  23
ATOM     22  O   UNL     1       0.534   9.693  23.701  0.00  0.00    +0.000 OA
ATOM     23  C   UNL     1      -0.188   9.740  22.707  0.00  0.00    +0.000 C 
ATOM     24  N   UNL     1      -0.816  10.902  22.322  0.00  0.00    +0.000 N 
ATOM     25  H   UNL     1      -1.566  10.960  21.641  0.00  0.00    +0.000 HD
BRANCH  24  26
ATOM     26  O   UNL     1      -0.652  12.015  23.182  0.00  0.00    +0.000 OA
ATOM     27  H   UNL     1      -1.017  11.679  24.031  0.00  0.00    +0.000 HD
ENDBRANCH  24  26
ENDBRANCH  21  23
ENDBRANCH  20  21
ENDBRANCH  19  20
ENDBRANCH  18  19
ENDBRANCH  17  18
ENDBRANCH   1  17
TORSDOF 7
ENDMDL
MODEL 5
REMARK VINA RESULT:      -7.3      4.019      7.194
REMARK  Name = 
REMARK  7 active torsions:
REMARK  status: ('A' for Active; 'I' for Inactive)
REMARK    1  A    between atoms: C_2  and  C_3
REMARK    2  A    between atoms: C_3  and  C_4
REMARK    3  A    between atoms: C_4  and  C_5
REMARK    4  A    between atoms: C_5  and  C_6
REMARK    5  A    between atoms: C_6  and  C_7
REMARK    6  A    between atoms: C_7  and  N_8
REMARK    7  A    between atoms: N_24  and  O_25
REMARK                            x       y       z     vdW  Elec       q    Type
REMARK                         _______ _______ _______ _____ _____    ______ ____
ROOT
ATOM      1  N   UNL     1       3.091   6.053  17.879  0.00  0.00    +0.000 N 
ATOM      2  C   UNL     1       2.154   5.005  17.992  0.00  0.00    +0.000 C 
ATOM      3  O   UNL     1       1.063   5.016  17.419  0.00  0.00    +0.000 OA
ATOM      4  C   UNL     1       2.294   4.104  19.153  0.00  0.00    +0.000 A 
ATOM      5  C   UNL     1       1.302   4.154  20.146  0.00  0.00    +0.000 A 
ATOM      6  C   UNL     1       1.446   3.418  21.320  0.00  0.00    +0.000 A 
ATOM      7  C   UNL     1       2.570   2.616  21.491  0.00  0.00    +0.000 A 
ATOM      8  C   UNL     1       3.521   2.516  20.470  0.00  0.00    +0.000 A 
ATOM      9  C   UNL     1       3.376   3.250  19.288  0.00  0.00    +0.000 A 
ATOM     10  S   UNL     1       4.483   3.005  17.942  0.00  0.00    +0.000 S 
ATOM     11  C   UNL     1       5.208   4.633  17.825  0.00  0.00    +0.000 A 
ATOM     12  C   UNL     1       6.620   4.565  17.734  0.00  0.00    +0.000 A 
ATOM     13  C   UNL     1       7.391   5.699  17.531  0.00  0.00    +0.000 A 
ATOM     14  C   UNL     1       6.753   6.915  17.394  0.00  0.00    +0.000 A 
ATOM     15  C   UNL     1       5.356   7.001  17.512  0.00  0.00    +0.000 A 
ATOM     16  C   UNL     1       4.533   5.880  17.767  0.00  0.00    +0.000 A 
ENDROOT
BRANCH   1  17
ATOM     17  C   UNL     1       2.446   7.382  17.899  0.00  0.00    +0.000 C 
BRANCH  17  18
ATOM     18  C   UNL     1       2.177   7.837  19.352  0.00  0.00    +0.000 C 
BRANCH  18  19
ATOM     19  C   UNL     1       1.153   8.959  19.532  0.00  0.00    +0.000 C 
BRANCH  19  20
ATOM     20  C   UNL     1       0.821   9.672  18.221  0.00  0.00    +0.000 C 
BRANCH  20  21
ATOM     21  C   UNL     1      -0.507  10.424  18.304  0.00  0.00    +0.000 C 
BRANCH  21  23
ATOM     22  O   UNL     1       0.368  12.297  19.592  0.00  0.00    +0.000 OA
ATOM     23  C   UNL     1      -0.296  11.884  18.644  0.00  0.00    +0.000 C 
ATOM     24  N   UNL     1      -0.948  12.741  17.788  0.00  0.00    +0.000 N 
ATOM     25  H   UNL     1      -1.659  12.466  17.119  0.00  0.00    +0.000 HD
BRANCH  24  26
ATOM     26  O   UNL     1      -0.880  14.118  18.113  0.00  0.00    +0.000 OA
ATOM     27  H   UNL     1       0.026  14.200  18.487  0.00  0.00    +0.000 HD
ENDBRANCH  24  26
ENDBRANCH  21  23
ENDBRANCH  20  21
ENDBRANCH  19  20
ENDBRANCH  18  19
ENDBRANCH  17  18
ENDBRANCH   1  17
TORSDOF 7
ENDMDL
MODEL 6
REMARK VINA RESULT:      -7.3      3.747      7.364
REMARK  Name = 
REMARK  7 active torsions:
REMARK  status: ('A' for Active; 'I' for Inactive)
REMARK    1  A    between atoms: C_2  and  C_3
REMARK    2  A    between atoms: C_3  and  C_4
REMARK    3  A    between atoms: C_4  and  C_5
REMARK    4  A    between atoms: C_5  and  C_6
REMARK    5  A    between atoms: C_6  and  C_7
REMARK    6  A    between atoms: C_7  and  N_8
REMARK    7  A    between atoms: N_24  and  O_25
REMARK                            x       y       z     vdW  Elec       q    Type
REMARK                         _______ _______ _______ _____ _____    ______ ____
ROOT
ATOM      1  N   UNL     1       2.864   5.742  17.729  0.00  0.00    +0.000 N 
ATOM      2  C   UNL     1       2.023   4.621  17.894  0.00  0.00    +0.000 C 
ATOM      3  O   UNL     1       0.965   4.481  17.278  0.00  0.00    +0.000 OA
ATOM      4  C   UNL     1       2.190   3.835  19.131  0.00  0.00    +0.000 A 
ATOM      5  C   UNL     1       1.152   3.869  20.076  0.00  0.00    +0.000 A 
ATOM      6  C   UNL     1       1.307   3.248  21.313  0.00  0.00    +0.000 A 
ATOM      7  C   UNL     1       2.491   2.575  21.597  0.00  0.00    +0.000 A 
ATOM      8  C   UNL     1       3.494   2.484  20.626  0.00  0.00    +0.000 A 
ATOM      9  C   UNL     1       3.339   3.103  19.382  0.00  0.00    +0.000 A 
ATOM     10  S   UNL     1       4.527   2.857  18.107  0.00  0.00    +0.000 S 
ATOM     11  C   UNL     1       5.103   4.533  17.881  0.00  0.00    +0.000 A 
ATOM     12  C   UNL     1       6.518   4.594  17.853  0.00  0.00    +0.000 A 
ATOM     13  C   UNL     1       7.190   5.777  17.586  0.00  0.00    +0.000 A 
ATOM     14  C   UNL     1       6.450   6.911  17.320  0.00  0.00    +0.000 A 
ATOM     15  C   UNL     1       5.046   6.871  17.375  0.00  0.00    +0.000 A 
ATOM     16  C   UNL     1       4.319   5.700  17.690  0.00  0.00    +0.000 A 
ENDROOT
BRANCH   1  17
ATOM     17  C   UNL     1       2.098   7.000  17.611  0.00  0.00    +0.000 C 
BRANCH  17  18
ATOM     18  C   UNL     1       2.347   7.910  18.835  0.00  0.00    +0.000 C 
BRANCH  18  19
ATOM     19  C   UNL     1       1.977   7.327  20.200  0.00  0.00    +0.000 C 
BRANCH  19  20
ATOM     20  C   UNL     1       1.197   8.311  21.071  0.00  0.00    +0.000 C 
BRANCH  20  21
ATOM     21  C   UNL     1       0.541   9.411  20.238  0.00  0.00    +0.000 C 
BRANCH  21  23
ATOM     22  O   UNL     1      -0.789  11.399  20.702  0.00  0.00    +0.000 OA
ATOM     23  C   UNL     1      -0.173  10.418  21.114  0.00  0.00    +0.000 C 
ATOM     24  N   UNL     1      -0.056  10.149  22.458  0.00  0.00    +0.000 N 
ATOM     25  H   UNL     1       0.591   9.481  22.863  0.00  0.00    +0.000 HD
BRANCH  24  26
ATOM     26  O   UNL     1      -0.610  11.110  23.338  0.00  0.00    +0.000 OA
ATOM     27  H   UNL     1      -0.955  10.550  24.069  0.00  0.00    +0.000 HD
ENDBRANCH  24  26
ENDBRANCH  21  23
ENDBRANCH  20  21
ENDBRANCH  19  20
ENDBRANCH  18  19
ENDBRANCH  17  18
ENDBRANCH   1  17
TORSDOF 7
ENDMDL
MODEL 7
REMARK VINA RESULT:      -7.3      3.824      6.793
REMARK  Name = 
REMARK  7 active torsions:
REMARK  status: ('A' for Active; 'I' for Inactive)
REMARK    1  A    between atoms: C_2  and  C_3
REMARK    2  A    between atoms: C_3  and  C_4
REMARK    3  A    between atoms: C_4  and  C_5
REMARK    4  A    between atoms: C_5  and  C_6
REMARK    5  A    between atoms: C_6  and  C_7
REMARK    6  A    between atoms: C_7  and  N_8
REMARK    7  A    between atoms: N_24  and  O_25
REMARK                            x       y       z     vdW  Elec       q    Type
REMARK                         _______ _______ _______ _____ _____    ______ ____
ROOT
ATOM      1  N   UNL     1       2.834   5.720  17.678  0.00  0.00    +0.000 N 
ATOM      2  C   UNL     1       2.021   4.583  17.865  0.00  0.00    +0.000 C 
ATOM      3  O   UNL     1       0.986   4.386  17.226  0.00  0.00    +0.000 OA
ATOM      4  C   UNL     1       2.172   3.854  19.140  0.00  0.00    +0.000 A 
ATOM      5  C   UNL     1       1.105   3.896  20.051  0.00  0.00    +0.000 A 
ATOM      6  C   UNL     1       1.240   3.332  21.317  0.00  0.00    +0.000 A 
ATOM      7  C   UNL     1       2.433   2.706  21.664  0.00  0.00    +0.000 A 
ATOM      8  C   UNL     1       3.468   2.605  20.728  0.00  0.00    +0.000 A 
ATOM      9  C   UNL     1       3.333   3.167  19.454  0.00  0.00    +0.000 A 
ATOM     10  S   UNL     1       4.566   2.904  18.226  0.00  0.00    +0.000 S 
ATOM     11  C   UNL     1       5.101   4.585  17.946  0.00  0.00    +0.000 A 
ATOM     12  C   UNL     1       6.514   4.686  17.958  0.00  0.00    +0.000 A 
ATOM     13  C   UNL     1       7.159   5.876  17.660  0.00  0.00    +0.000 A 
ATOM     14  C   UNL     1       6.396   6.976  17.325  0.00  0.00    +0.000 A 
ATOM     15  C   UNL     1       4.993   6.897  17.340  0.00  0.00    +0.000 A 
ATOM     16  C   UNL     1       4.290   5.719  17.684  0.00  0.00    +0.000 A 
ENDROOT
BRANCH   1  17
ATOM     17  C   UNL     1       2.037   6.949  17.484  0.00  0.00    +0.000 C 
BRANCH  17  18
ATOM     18  C   UNL     1       2.211   7.909  18.683  0.00  0.00    +0.000 C 
BRANCH  18  19
ATOM     19  C   UNL     1       1.942   9.390  18.411  0.00  0.00    +0.000 C 
BRANCH  19  20
ATOM     20  C   UNL     1       1.104  10.049  19.506  0.00  0.00    +0.000 C 
BRANCH  20  21
ATOM     21  C   UNL     1      -0.384   9.740  19.346  0.00  0.00    +0.000 C 
BRANCH  21  23
ATOM     22  O   UNL     1      -1.541   9.931  17.211  0.00  0.00    +0.000 OA
ATOM     23  C   UNL     1      -0.977  10.471  18.160  0.00  0.00    +0.000 C 
ATOM     24  N   UNL     1      -0.809  11.835  18.223  0.00  0.00    +0.000 N 
ATOM     25  H   UNL     1      -0.192  12.316  18.868  0.00  0.00    +0.000 HD
BRANCH  24  26
ATOM     26  O   UNL     1      -1.245  12.570  17.093  0.00  0.00    +0.000 OA
ATOM     27  H   UNL     1      -2.048  13.022  17.436  0.00  0.00    +0.000 HD
ENDBRANCH  24  26
ENDBRANCH  21  23
ENDBRANCH  20  21
ENDBRANCH  19  20
ENDBRANCH  18  19
ENDBRANCH  17  18
ENDBRANCH   1  17
TORSDOF 7
ENDMDL
MODEL 8
REMARK VINA RESULT:      -7.2      3.222      5.137
REMARK  Name = 
REMARK  7 active torsions:
REMARK  status: ('A' for Active; 'I' for Inactive)
REMARK    1  A    between atoms: C_2  and  C_3
REMARK    2  A    between atoms: C_3  and  C_4
REMARK    3  A    between atoms: C_4  and  C_5
REMARK    4  A    between atoms: C_5  and  C_6
REMARK    5  A    between atoms: C_6  and  C_7
REMARK    6  A    between atoms: C_7  and  N_8
REMARK    7  A    between atoms: N_24  and  O_25
REMARK                            x       y       z     vdW  Elec       q    Type
REMARK                         _______ _______ _______ _____ _____    ______ ____
ROOT
ATOM      1  N   UNL     1       4.117   5.921  18.106  0.00  0.00    +0.000 N 
ATOM      2  C   UNL     1       4.319   4.745  18.859  0.00  0.00    +0.000 C 
ATOM      3  O   UNL     1       5.433   4.253  19.047  0.00  0.00    +0.000 OA
ATOM      4  C   UNL     1       3.153   3.860  19.044  0.00  0.00    +0.000 A 
ATOM      5  C   UNL     1       3.169   2.611  18.403  0.00  0.00    +0.000 A 
ATOM      6  C   UNL     1       2.046   1.788  18.440  0.00  0.00    +0.000 A 
ATOM      7  C   UNL     1       0.916   2.204  19.137  0.00  0.00    +0.000 A 
ATOM      8  C   UNL     1       0.929   3.418  19.832  0.00  0.00    +0.000 A 
ATOM      9  C   UNL     1       2.057   4.244  19.799  0.00  0.00    +0.000 A 
ATOM     10  S   UNL     1       2.135   5.691  20.799  0.00  0.00    +0.000 S 
ATOM     11  C   UNL     1       2.270   6.945  19.534  0.00  0.00    +0.000 A 
ATOM     12  C   UNL     1       1.365   8.010  19.764  0.00  0.00    +0.000 A 
ATOM     13  C   UNL     1       1.362   9.146  18.969  0.00  0.00    +0.000 A 
ATOM     14  C   UNL     1       2.283   9.238  17.945  0.00  0.00    +0.000 A 
ATOM     15  C   UNL     1       3.165   8.175  17.687  0.00  0.00    +0.000 A 
ATOM     16  C   UNL     1       3.173   6.978  18.439  0.00  0.00    +0.000 A 
ENDROOT
BRANCH   1  17
ATOM     17  C   UNL     1       4.975   5.967  16.904  0.00  0.00    +0.000 C 
BRANCH  17  18
ATOM     18  C   UNL     1       6.044   7.075  17.037  0.00  0.00    +0.000 C 
BRANCH  18  19
ATOM     19  C   UNL     1       7.436   6.625  17.484  0.00  0.00    +0.000 C 
BRANCH  19  20
ATOM     20  C   UNL     1       8.159   7.681  18.321  0.00  0.00    +0.000 C 
BRANCH  20  21
ATOM     21  C   UNL     1       8.059   9.070  17.692  0.00  0.00    +0.000 C 
BRANCH  21  23
ATOM     22  O   UNL     1       9.412   9.872  19.552  0.00  0.00    +0.000 OA
ATOM     23  C   UNL     1       8.826  10.098  18.495  0.00  0.00    +0.000 C 
ATOM     24  N   UNL     1       8.796  11.356  17.938  0.00  0.00    +0.000 N 
ATOM     25  H   UNL     1       8.178  11.646  17.188  0.00  0.00    +0.000 HD
BRANCH  24  26
ATOM     26  O   UNL     1       9.404  12.388  18.694  0.00  0.00    +0.000 OA
ATOM     27  H   UNL     1       8.815  12.446  19.480  0.00  0.00    +0.000 HD
ENDBRANCH  24  26
ENDBRANCH  21  23
ENDBRANCH  20  21
ENDBRANCH  19  20
ENDBRANCH  18  19
ENDBRANCH  17  18
ENDBRANCH   1  17
TORSDOF 7
ENDMDL
MODEL 9
REMARK VINA RESULT:      -7.1      3.664      7.047
REMARK  Name = 
REMARK  7 active torsions:
REMARK  status: ('A' for Active; 'I' for Inactive)
REMARK    1  A    between atoms: C_2  and  C_3
REMARK    2  A    between atoms: C_3  and  C_4
REMARK    3  A    between atoms: C_4  and  C_5
REMARK    4  A    between atoms: C_5  and  C_6
REMARK    5  A    between atoms: C_6  and  C_7
REMARK    6  A    between atoms: C_7  and  N_8
REMARK    7  A    between atoms: N_24  and  O_25
REMARK                            x       y       z     vdW  Elec       q    Type
REMARK                         _______ _______ _______ _____ _____    ______ ____
ROOT
ATOM      1  N   UNL     1       2.868   5.772  17.764  0.00  0.00    +0.000 N 
ATOM      2  C   UNL     1       2.026   4.651  17.922  0.00  0.00    +0.000 C 
ATOM      3  O   UNL     1       0.965   4.518  17.310  0.00  0.00    +0.000 OA
ATOM      4  C   UNL     1       2.197   3.854  19.152  0.00  0.00    +0.000 A 
ATOM      5  C   UNL     1       1.163   3.881  20.102  0.00  0.00    +0.000 A 
ATOM      6  C   UNL     1       1.321   3.250  21.332  0.00  0.00    +0.000 A 
ATOM      7  C   UNL     1       2.505   2.571  21.605  0.00  0.00    +0.000 A 
ATOM      8  C   UNL     1       3.505   2.488  20.630  0.00  0.00    +0.000 A 
ATOM      9  C   UNL     1       3.345   3.118  19.392  0.00  0.00    +0.000 A 
ATOM     10  S   UNL     1       4.528   2.881  18.110  0.00  0.00    +0.000 S 
ATOM     11  C   UNL     1       5.106   4.557  17.896  0.00  0.00    +0.000 A 
ATOM     12  C   UNL     1       6.521   4.616  17.863  0.00  0.00    +0.000 A 
ATOM     13  C   UNL     1       7.193   5.800  17.603  0.00  0.00    +0.000 A 
ATOM     14  C   UNL     1       6.454   6.938  17.351  0.00  0.00    +0.000 A 
ATOM     15  C   UNL     1       5.051   6.900  17.410  0.00  0.00    +0.000 A 
ATOM     16  C   UNL     1       4.323   5.728  17.719  0.00  0.00    +0.000 A 
ENDROOT
BRANCH   1  17
ATOM     17  C   UNL     1       2.104   7.032  17.660  0.00  0.00    +0.000 C 
BRANCH  17  18
ATOM     18  C   UNL     1       2.328   7.913  18.910  0.00  0.00    +0.000 C 
BRANCH  18  19
ATOM     19  C   UNL     1       1.822   7.348  20.238  0.00  0.00    +0.000 C 
BRANCH  19  20
ATOM     20  C   UNL     1       1.297   8.431  21.180  0.00  0.00    +0.000 C 
BRANCH  20  21
ATOM     21  C   UNL     1       0.351   9.395  20.465  0.00  0.00    +0.000 C 
BRANCH  21  23
ATOM     22  O   UNL     1       0.805  11.463  21.670  0.00  0.00    +0.000 OA
ATOM     23  C   UNL     1       0.806  10.831  20.616  0.00  0.00    +0.000 C 
ATOM     24  N   UNL     1       1.216  11.398  19.431  0.00  0.00    +0.000 N 
ATOM     25  H   UNL     1       1.058  11.002  18.511  0.00  0.00    +0.000 HD
BRANCH  24  26
ATOM     26  O   UNL     1       1.554  12.773  19.481  0.00  0.00    +0.000 OA
ATOM     27  H   UNL     1       2.249  12.842  18.789  0.00  0.00    +0.000 HD
ENDBRANCH  24  26
ENDBRANCH  21  23
ENDBRANCH  20  21
ENDBRANCH  19  20
ENDBRANCH  18  19
ENDBRANCH  17  18
ENDBRANCH   1  17
TORSDOF 7
ENDMDL
