MODEL 1
REMARK VINA RESULT:      -7.8      0.000      0.000
REMARK  Name = 
REMARK  8 active torsions:
REMARK  status: ('A' for Active; 'I' for Inactive)
REMARK    1  A    between atoms: C_1  and  C_2
REMARK    2  A    between atoms: C_5  and  S_6
REMARK    3  A    between atoms: S_6  and  N_9
REMARK    4  A    between atoms: N_9  and  C_10
REMARK    5  A    between atoms: N_9  and  C_11
REMARK    6  A    between atoms: C_11  and  C_12
REMARK    7  A    between atoms: C_12  and  C_13
REMARK    8  A    between atoms: C_13  and  C_14
REMARK                            x       y       z     vdW  Elec       q    Type
REMARK                         _______ _______ _______ _____ _____    ______ ____
ROOT
ATOM      1  C   UNL     1       7.777   7.122  17.594  0.00  0.00    +0.000 C 
ENDROOT
BRANCH   1   2
ATOM      2  N   UNL     1       6.831   6.518  16.576  0.00  0.00    +0.000 NA
ATOM      3  C   UNL     1       5.467   7.094  16.772  0.00  0.00    +0.000 C 
BRANCH   2   4
ATOM      4  S   UNL     1       6.887   4.790  16.589  0.00  0.00    +0.000 S 
ATOM      5  O   UNL     1       8.027   4.420  17.401  0.00  0.00    +0.000 OA
ATOM      6  O   UNL     1       6.753   4.324  15.225  0.00  0.00    +0.000 OA
BRANCH   4  11
ATOM      7  C   UNL     1       2.039   2.491  19.377  0.00  0.00    +0.000 C 
ATOM      8  C   UNL     1       3.210   3.117  18.679  0.00  0.00    +0.000 A 
ATOM      9  C   UNL     1       3.222   3.273  17.284  0.00  0.00    +0.000 A 
ATOM     10  C   UNL     1       4.331   3.824  16.645  0.00  0.00    +0.000 A 
ATOM     11  C   UNL     1       5.419   4.250  17.411  0.00  0.00    +0.000 A 
ATOM     12  C   UNL     1       5.412   4.128  18.800  0.00  0.00    +0.000 A 
ATOM     13  C   UNL     1       4.316   3.541  19.430  0.00  0.00    +0.000 A 
ENDBRANCH   4  11
ENDBRANCH   2   4
ENDBRANCH   1   2
BRANCH   1  14
ATOM     14  C   UNL     1       7.671   8.646  17.697  0.00  0.00    +0.000 C 
BRANCH  14  15
ATOM     15  C   UNL     1       8.727   9.266  18.616  0.00  0.00    +0.000 C 
BRANCH  15  16
ATOM     16  C   UNL     1       9.049  10.699  18.204  0.00  0.00    +0.000 C 
ATOM     17  O   UNL     1       8.222  11.365  17.584  0.00  0.00    +0.000 OA
ATOM     18  N   UNL     1      10.285  11.141  18.584  0.00  0.00    +0.000 N 
ATOM     19  C   UNL     1      10.724  12.405  18.186  0.00  0.00    +0.000 A 
ATOM     20  C   UNL     1       9.998  13.533  18.545  0.00  0.00    +0.000 A 
ATOM     21  C   UNL     1      10.430  14.781  18.114  0.00  0.00    +0.000 A 
ATOM     22  C   UNL     1      11.551  14.860  17.298  0.00  0.00    +0.000 A 
ATOM     23  C   UNL     1      12.220  13.684  16.995  0.00  0.00    +0.000 A 
ATOM     24  N   UNL     1      11.864  12.458  17.459  0.00  0.00    +0.000 NA
ATOM     25  H   UNL     1      11.025  10.440  18.596  0.00  0.00    +0.000 HD
ENDBRANCH  15  16
ENDBRANCH  14  15
ENDBRANCH   1  14
TORSDOF 6
ENDMDL
MODEL 2
REMARK VINA RESULT:      -7.8      5.473      7.571
REMARK  Name = 
REMARK  8 active torsions:
REMARK  status: ('A' for Active; 'I' for Inactive)
REMARK    1  A    between atoms: C_1  and  C_2
REMARK    2  A    between atoms: C_5  and  S_6
REMARK    3  A    between atoms: S_6  and  N_9
REMARK    4  A    between atoms: N_9  and  C_10
REMARK    5  A    between atoms: N_9  and  C_11
REMARK    6  A    between atoms: C_11  and  C_12
REMARK    7  A    between atoms: C_12  and  C_13
REMARK    8  A    between atoms: C_13  and  C_14
REMARK                            x       y       z     vdW  Elec       q    Type
REMARK                         _______ _______ _______ _____ _____    ______ ____
ROOT
ATOM      1  C   UNL     1       1.878   4.732  19.020  0.00  0.00    +0.000 C 
ENDROOT
BRANCH   1   2
ATOM      2  N   UNL     1       2.029   3.366  18.383  0.00  0.00    +0.000 NA
ATOM      3  C   UNL     1       0.837   2.533  18.720  0.00  0.00    +0.000 C 
BRANCH   2   4
ATOM      4  S   UNL     1       3.547   2.637  18.776  0.00  0.00    +0.000 S 
ATOM      5  O   UNL     1       3.686   1.482  17.915  0.00  0.00    +0.000 OA
ATOM      6  O   UNL     1       3.629   2.515  20.217  0.00  0.00    +0.000 OA
BRANCH   4  11
ATOM      7  C   UNL     1       7.466   6.998  17.298  0.00  0.00    +0.000 C 
ATOM      8  C   UNL     1       6.538   5.872  17.649  0.00  0.00    +0.000 A 
ATOM      9  C   UNL     1       5.861   5.156  16.650  0.00  0.00    +0.000 A 
ATOM     10  C   UNL     1       4.975   4.135  16.991  0.00  0.00    +0.000 A 
ATOM     11  C   UNL     1       4.793   3.811  18.338  0.00  0.00    +0.000 A 
ATOM     12  C   UNL     1       5.479   4.495  19.341  0.00  0.00    +0.000 A 
ATOM     13  C   UNL     1       6.334   5.539  18.995  0.00  0.00    +0.000 A 
ENDBRANCH   4  11
ENDBRANCH   2   4
ENDBRANCH   1   2
BRANCH   1  14
ATOM     14  C   UNL     1       2.059   5.889  18.034  0.00  0.00    +0.000 C 
BRANCH  14  15
ATOM     15  C   UNL     1       2.812   7.082  18.630  0.00  0.00    +0.000 C 
BRANCH  15  16
ATOM     16  C   UNL     1       2.044   8.383  18.421  0.00  0.00    +0.000 C 
ATOM     17  O   UNL     1       2.099   8.968  17.340  0.00  0.00    +0.000 OA
ATOM     18  N   UNL     1       1.321   8.803  19.502  0.00  0.00    +0.000 N 
ATOM     19  C   UNL     1       0.649  10.025  19.457  0.00  0.00    +0.000 A 
ATOM     20  C   UNL     1      -0.316  10.248  18.482  0.00  0.00    +0.000 A 
ATOM     21  C   UNL     1      -0.953  11.483  18.431  0.00  0.00    +0.000 A 
ATOM     22  C   UNL     1      -0.574  12.473  19.327  0.00  0.00    +0.000 A 
ATOM     23  C   UNL     1       0.393  12.161  20.272  0.00  0.00    +0.000 A 
ATOM     24  N   UNL     1       0.982  10.944  20.394  0.00  0.00    +0.000 NA
ATOM     25  H   UNL     1       1.722   8.594  20.415  0.00  0.00    +0.000 HD
ENDBRANCH  15  16
ENDBRANCH  14  15
ENDBRANCH   1  14
TORSDOF 6
ENDMDL
MODEL 3
REMARK VINA RESULT:      -7.7      4.544      7.210
REMARK  Name = 
REMARK  8 active torsions:
REMARK  status: ('A' for Active; 'I' for Inactive)
REMARK    1  A    between atoms: C_1  and  C_2
REMARK    2  A    between atoms: C_5  and  S_6
REMARK    3  A    between atoms: S_6  and  N_9
REMARK    4  A    between atoms: N_9  and  C_10
REMARK    5  A    between atoms: N_9  and  C_11
REMARK    6  A    between atoms: C_11  and  C_12
REMARK    7  A    between atoms: C_12  and  C_13
REMARK    8  A    between atoms: C_13  and  C_14
REMARK                            x       y       z     vdW  Elec       q    Type
REMARK                         _______ _______ _______ _____ _____    ______ ____
ROOT
ATOM      1  C   UNL     1       4.861   6.864  16.985  0.00  0.00    +0.000 C 
ENDROOT
BRANCH   1   2
ATOM      2  N   UNL     1       6.066   6.401  17.777  0.00  0.00    +0.000 NA
ATOM      3  C   UNL     1       7.235   7.270  17.445  0.00  0.00    +0.000 C 
BRANCH   2   4
ATOM      4  S   UNL     1       6.354   4.708  17.581  0.00  0.00    +0.000 S 
ATOM      5  O   UNL     1       7.352   4.342  18.563  0.00  0.00    +0.000 OA
ATOM      6  O   UNL     1       6.554   4.445  16.171  0.00  0.00    +0.000 OA
BRANCH   4  11
ATOM      7  C   UNL     1       0.966   2.359  19.002  0.00  0.00    +0.000 C 
ATOM      8  C   UNL     1       2.330   2.885  18.662  0.00  0.00    +0.000 A 
ATOM      9  C   UNL     1       3.241   3.236  19.670  0.00  0.00    +0.000 A 
ATOM     10  C   UNL     1       4.492   3.756  19.340  0.00  0.00    +0.000 A 
ATOM     11  C   UNL     1       4.841   3.894  17.995  0.00  0.00    +0.000 A 
ATOM     12  C   UNL     1       3.958   3.524  16.981  0.00  0.00    +0.000 A 
ATOM     13  C   UNL     1       2.695   3.040  17.317  0.00  0.00    +0.000 A 
ENDBRANCH   4  11
ENDBRANCH   2   4
ENDBRANCH   1   2
BRANCH   1  14
ATOM     14  C   UNL     1       3.806   7.576  17.838  0.00  0.00    +0.000 C 
BRANCH  14  15
ATOM     15  C   UNL     1       2.631   6.675  18.225  0.00  0.00    +0.000 C 
BRANCH  15  16
ATOM     16  C   UNL     1       1.959   7.159  19.506  0.00  0.00    +0.000 C 
ATOM     17  O   UNL     1       1.677   6.360  20.397  0.00  0.00    +0.000 OA
ATOM     18  N   UNL     1       1.724   8.504  19.557  0.00  0.00    +0.000 N 
ATOM     19  C   UNL     1       1.035   9.049  20.642  0.00  0.00    +0.000 A 
ATOM     20  C   UNL     1       1.537   8.892  21.928  0.00  0.00    +0.000 A 
ATOM     21  C   UNL     1       0.822   9.412  23.001  0.00  0.00    +0.000 A 
ATOM     22  C   UNL     1      -0.396  10.034  22.760  0.00  0.00    +0.000 A 
ATOM     23  C   UNL     1      -0.817  10.152  21.444  0.00  0.00    +0.000 A 
ATOM     24  N   UNL     1      -0.109   9.719  20.370  0.00  0.00    +0.000 NA
ATOM     25  H   UNL     1       1.500   8.952  18.670  0.00  0.00    +0.000 HD
ENDBRANCH  15  16
ENDBRANCH  14  15
ENDBRANCH   1  14
TORSDOF 6
ENDMDL
MODEL 4
REMARK VINA RESULT:      -7.7      1.809      2.292
REMARK  Name = 
REMARK  8 active torsions:
REMARK  status: ('A' for Active; 'I' for Inactive)
REMARK    1  A    between atoms: C_1  and  C_2
REMARK    2  A    between atoms: C_5  and  S_6
REMARK    3  A    between atoms: S_6  and  N_9
REMARK    4  A    between atoms: N_9  and  C_10
REMARK    5  A    between atoms: N_9  and  C_11
REMARK    6  A    between atoms: C_11  and  C_12
REMARK    7  A    between atoms: C_12  and  C_13
REMARK    8  A    between atoms: C_13  and  C_14
REMARK                            x       y       z     vdW  Elec       q    Type
REMARK                         _______ _______ _______ _____ _____    ______ ____
ROOT
ATOM      1  C   UNL     1       7.733   7.301  17.464  0.00  0.00    +0.000 C 
ENDROOT
BRANCH   1   2
ATOM      2  N   UNL     1       6.497   6.553  17.921  0.00  0.00    +0.000 NA
ATOM      3  C   UNL     1       6.860   5.653  19.055  0.00  0.00    +0.000 C 
BRANCH   2   4
ATOM      4  S   UNL     1       5.701   5.761  16.606  0.00  0.00    +0.000 S 
ATOM      5  O   UNL     1       6.634   4.785  16.086  0.00  0.00    +0.000 OA
ATOM      6  O   UNL     1       5.122   6.777  15.751  0.00  0.00    +0.000 OA
BRANCH   4  11
ATOM      7  C   UNL     1       0.766   2.866  18.561  0.00  0.00    +0.000 C 
ATOM      8  C   UNL     1       2.011   3.587  18.137  0.00  0.00    +0.000 A 
ATOM      9  C   UNL     1       2.139   4.974  18.312  0.00  0.00    +0.000 A 
ATOM     10  C   UNL     1       3.287   5.637  17.881  0.00  0.00    +0.000 A 
ATOM     11  C   UNL     1       4.324   4.900  17.303  0.00  0.00    +0.000 A 
ATOM     12  C   UNL     1       4.225   3.518  17.147  0.00  0.00    +0.000 A 
ATOM     13  C   UNL     1       3.059   2.867  17.545  0.00  0.00    +0.000 A 
ENDBRANCH   4  11
ENDBRANCH   2   4
ENDBRANCH   1   2
BRANCH   1  14
ATOM     14  C   UNL     1       7.731   8.781  17.858  0.00  0.00    +0.000 C 
BRANCH  14  15
ATOM     15  C   UNL     1       8.947   9.187  18.696  0.00  0.00    +0.000 C 
BRANCH  15  16
ATOM     16  C   UNL     1       9.038  10.702  18.844  0.00  0.00    +0.000 C 
ATOM     17  O   UNL     1       9.440  11.198  19.895  0.00  0.00    +0.000 OA
ATOM     18  N   UNL     1       8.653  11.411  17.741  0.00  0.00    +0.000 N 
ATOM     19  C   UNL     1       8.610  12.805  17.790  0.00  0.00    +0.000 A 
ATOM     20  C   UNL     1       9.763  13.521  18.086  0.00  0.00    +0.000 A 
ATOM     21  C   UNL     1       9.697  14.908  18.164  0.00  0.00    +0.000 A 
ATOM     22  C   UNL     1       8.470  15.534  17.987  0.00  0.00    +0.000 A 
ATOM     23  C   UNL     1       7.372  14.741  17.688  0.00  0.00    +0.000 A 
ATOM     24  N   UNL     1       7.418  13.392  17.535  0.00  0.00    +0.000 NA
ATOM     25  H   UNL     1       7.902  11.002  17.188  0.00  0.00    +0.000 HD
ENDBRANCH  15  16
ENDBRANCH  14  15
ENDBRANCH   1  14
TORSDOF 6
ENDMDL
MODEL 5
REMARK VINA RESULT:      -7.7      5.286      6.848
REMARK  Name = 
REMARK  8 active torsions:
REMARK  status: ('A' for Active; 'I' for Inactive)
REMARK    1  A    between atoms: C_1  and  C_2
REMARK    2  A    between atoms: C_5  and  S_6
REMARK    3  A    between atoms: S_6  and  N_9
REMARK    4  A    between atoms: N_9  and  C_10
REMARK    5  A    between atoms: N_9  and  C_11
REMARK    6  A    between atoms: C_11  and  C_12
REMARK    7  A    between atoms: C_12  and  C_13
REMARK    8  A    between atoms: C_13  and  C_14
REMARK                            x       y       z     vdW  Elec       q    Type
REMARK                         _______ _______ _______ _____ _____    ______ ____
ROOT
ATOM      1  C   UNL     1       5.187   6.807  17.808  0.00  0.00    +0.000 C 
ENDROOT
BRANCH   1   2
ATOM      2  N   UNL     1       5.927   6.070  16.711  0.00  0.00    +0.000 NA
ATOM      3  C   UNL     1       5.251   6.329  15.405  0.00  0.00    +0.000 C 
BRANCH   2   4
ATOM      4  S   UNL     1       6.137   4.396  17.088  0.00  0.00    +0.000 S 
ATOM      5  O   UNL     1       7.201   4.323  18.065  0.00  0.00    +0.000 OA
ATOM      6  O   UNL     1       6.206   3.658  15.844  0.00  0.00    +0.000 OA
BRANCH   4  11
ATOM      7  C   UNL     1       0.889   3.054  19.775  0.00  0.00    +0.000 C 
ATOM      8  C   UNL     1       2.208   3.326  19.115  0.00  0.00    +0.000 A 
ATOM      9  C   UNL     1       3.382   3.461  19.873  0.00  0.00    +0.000 A 
ATOM     10  C   UNL     1       4.595   3.747  19.250  0.00  0.00    +0.000 A 
ATOM     11  C   UNL     1       4.637   3.867  17.859  0.00  0.00    +0.000 A 
ATOM     12  C   UNL     1       3.485   3.708  17.088  0.00  0.00    +0.000 A 
ATOM     13  C   UNL     1       2.269   3.459  17.721  0.00  0.00    +0.000 A 
ENDBRANCH   4  11
ENDBRANCH   2   4
ENDBRANCH   1   2
BRANCH   1  14
ATOM     14  C   UNL     1       3.865   7.425  17.345  0.00  0.00    +0.000 C 
BRANCH  14  15
ATOM     15  C   UNL     1       2.756   7.346  18.398  0.00  0.00    +0.000 C 
BRANCH  15  16
ATOM     16  C   UNL     1       1.936   8.631  18.438  0.00  0.00    +0.000 C 
ATOM     17  O   UNL     1       1.910   9.380  17.462  0.00  0.00    +0.000 OA
ATOM     18  N   UNL     1       1.262   8.845  19.607  0.00  0.00    +0.000 N 
ATOM     19  C   UNL     1       0.548  10.031  19.791  0.00  0.00    +0.000 A 
ATOM     20  C   UNL     1      -0.477  10.363  18.915  0.00  0.00    +0.000 A 
ATOM     21  C   UNL     1      -1.156  11.563  19.092  0.00  0.00    +0.000 A 
ATOM     22  C   UNL     1      -0.760  12.416  20.114  0.00  0.00    +0.000 A 
ATOM     23  C   UNL     1       0.269  12.000  20.946  0.00  0.00    +0.000 A 
ATOM     24  N   UNL     1       0.904  10.804  20.843  0.00  0.00    +0.000 NA
ATOM     25  H   UNL     1       1.721   8.513  20.454  0.00  0.00    +0.000 HD
ENDBRANCH  15  16
ENDBRANCH  14  15
ENDBRANCH   1  14
TORSDOF 6
ENDMDL
MODEL 6
REMARK VINA RESULT:      -7.6      1.916      2.390
REMARK  Name = 
REMARK  8 active torsions:
REMARK  status: ('A' for Active; 'I' for Inactive)
REMARK    1  A    between atoms: C_1  and  C_2
REMARK    2  A    between atoms: C_5  and  S_6
REMARK    3  A    between atoms: S_6  and  N_9
REMARK    4  A    between atoms: N_9  and  C_10
REMARK    5  A    between atoms: N_9  and  C_11
REMARK    6  A    between atoms: C_11  and  C_12
REMARK    7  A    between atoms: C_12  and  C_13
REMARK    8  A    between atoms: C_13  and  C_14
REMARK                            x       y       z     vdW  Elec       q    Type
REMARK                         _______ _______ _______ _____ _____    ______ ____
ROOT
ATOM      1  C   UNL     1       6.538   6.606  18.224  0.00  0.00    +0.000 C 
ENDROOT
BRANCH   1   2
ATOM      2  N   UNL     1       6.487   5.121  17.928  0.00  0.00    +0.000 NA
ATOM      3  C   UNL     1       7.872   4.621  17.685  0.00  0.00    +0.000 C 
BRANCH   2   4
ATOM      4  S   UNL     1       5.363   4.755  16.666  0.00  0.00    +0.000 S 
ATOM      5  O   UNL     1       5.983   3.740  15.842  0.00  0.00    +0.000 OA
ATOM      6  O   UNL     1       4.899   6.004  16.098  0.00  0.00    +0.000 OA
BRANCH   4  11
ATOM      7  C   UNL     1       0.334   2.253  18.905  0.00  0.00    +0.000 C 
ATOM      8  C   UNL     1       1.596   2.895  18.409  0.00  0.00    +0.000 A 
ATOM      9  C   UNL     1       1.671   4.281  18.206  0.00  0.00    +0.000 A 
ATOM     10  C   UNL     1       2.839   4.859  17.711  0.00  0.00    +0.000 A 
ATOM     11  C   UNL     1       3.946   4.047  17.450  0.00  0.00    +0.000 A 
ATOM     12  C   UNL     1       3.897   2.672  17.672  0.00  0.00    +0.000 A 
ATOM     13  C   UNL     1       2.714   2.095  18.131  0.00  0.00    +0.000 A 
ENDBRANCH   4  11
ENDBRANCH   2   4
ENDBRANCH   1   2
BRANCH   1  14
ATOM     14  C   UNL     1       7.871   7.258  17.845  0.00  0.00    +0.000 C 
BRANCH  14  15
ATOM     15  C   UNL     1       7.743   8.746  17.508  0.00  0.00    +0.000 C 
BRANCH  15  16
ATOM     16  C   UNL     1       8.645   9.596  18.397  0.00  0.00    +0.000 C 
ATOM     17  O   UNL     1       9.118   9.125  19.430  0.00  0.00    +0.000 OA
ATOM     18  N   UNL     1       8.866  10.866  17.943  0.00  0.00    +0.000 N 
ATOM     19  C   UNL     1       9.603  11.763  18.718  0.00  0.00    +0.000 A 
ATOM     20  C   UNL     1      10.911  11.455  19.073  0.00  0.00    +0.000 A 
ATOM     21  C   UNL     1      11.621  12.344  19.872  0.00  0.00    +0.000 A 
ATOM     22  C   UNL     1      10.988  13.492  20.329  0.00  0.00    +0.000 A 
ATOM     23  C   UNL     1       9.683  13.723  19.919  0.00  0.00    +0.000 A 
ATOM     24  N   UNL     1       8.987  12.911  19.082  0.00  0.00    +0.000 NA
ATOM     25  H   UNL     1       8.092  11.303  17.445  0.00  0.00    +0.000 HD
ENDBRANCH  15  16
ENDBRANCH  14  15
ENDBRANCH   1  14
TORSDOF 6
ENDMDL
MODEL 7
REMARK VINA RESULT:      -7.6      1.222      1.302
REMARK  Name = 
REMARK  8 active torsions:
REMARK  status: ('A' for Active; 'I' for Inactive)
REMARK    1  A    between atoms: C_1  and  C_2
REMARK    2  A    between atoms: C_5  and  S_6
REMARK    3  A    between atoms: S_6  and  N_9
REMARK    4  A    between atoms: N_9  and  C_10
REMARK    5  A    between atoms: N_9  and  C_11
REMARK    6  A    between atoms: C_11  and  C_12
REMARK    7  A    between atoms: C_12  and  C_13
REMARK    8  A    between atoms: C_13  and  C_14
REMARK                            x       y       z     vdW  Elec       q    Type
REMARK                         _______ _______ _______ _____ _____    ______ ____
ROOT
ATOM      1  C   UNL     1       8.057   7.427  18.216  0.00  0.00    +0.000 C 
ENDROOT
BRANCH   1   2
ATOM      2  N   UNL     1       7.243   6.732  17.145  0.00  0.00    +0.000 NA
ATOM      3  C   UNL     1       5.886   7.351  17.081  0.00  0.00    +0.000 C 
BRANCH   2   4
ATOM      4  S   UNL     1       7.238   5.015  17.353  0.00  0.00    +0.000 S 
ATOM      5  O   UNL     1       8.059   4.737  18.511  0.00  0.00    +0.000 OA
ATOM      6  O   UNL     1       7.515   4.404  16.070  0.00  0.00    +0.000 OA
BRANCH   4  11
ATOM      7  C   UNL     1       1.691   3.015  18.692  0.00  0.00    +0.000 C 
ATOM      8  C   UNL     1       3.041   3.568  18.342  0.00  0.00    +0.000 A 
ATOM      9  C   UNL     1       3.463   3.652  17.007  0.00  0.00    +0.000 A 
ATOM     10  C   UNL     1       4.734   4.135  16.698  0.00  0.00    +0.000 A 
ATOM     11  C   UNL     1       5.571   4.564  17.731  0.00  0.00    +0.000 A 
ATOM     12  C   UNL     1       5.156   4.513  19.061  0.00  0.00    +0.000 A 
ATOM     13  C   UNL     1       3.899   3.994  19.366  0.00  0.00    +0.000 A 
ENDBRANCH   4  11
ENDBRANCH   2   4
ENDBRANCH   1   2
BRANCH   1  14
ATOM     14  C   UNL     1       8.240   8.927  17.967  0.00  0.00    +0.000 C 
BRANCH  14  15
ATOM     15  C   UNL     1       8.938   9.653  19.120  0.00  0.00    +0.000 C 
BRANCH  15  16
ATOM     16  C   UNL     1       9.580  10.954  18.650  0.00  0.00    +0.000 C 
ATOM     17  O   UNL     1      10.217  10.985  17.598  0.00  0.00    +0.000 OA
ATOM     18  N   UNL     1       9.376  12.025  19.473  0.00  0.00    +0.000 N 
ATOM     19  C   UNL     1       9.990  13.247  19.189  0.00  0.00    +0.000 A 
ATOM     20  C   UNL     1       9.737  13.882  17.980  0.00  0.00    +0.000 A 
ATOM     21  C   UNL     1      10.381  15.082  17.699  0.00  0.00    +0.000 A 
ATOM     22  C   UNL     1      11.292  15.587  18.617  0.00  0.00    +0.000 A 
ATOM     23  C   UNL     1      11.478  14.890  19.802  0.00  0.00    +0.000 A 
ATOM     24  N   UNL     1      10.812  13.755  20.136  0.00  0.00    +0.000 NA
ATOM     25  H   UNL     1       9.326  11.819  20.469  0.00  0.00    +0.000 HD
ENDBRANCH  15  16
ENDBRANCH  14  15
ENDBRANCH   1  14
TORSDOF 6
ENDMDL
MODEL 8
REMARK VINA RESULT:      -7.6      5.334      7.206
REMARK  Name = 
REMARK  8 active torsions:
REMARK  status: ('A' for Active; 'I' for Inactive)
REMARK    1  A    between atoms: C_1  and  C_2
REMARK    2  A    between atoms: C_5  and  S_6
REMARK    3  A    between atoms: S_6  and  N_9
REMARK    4  A    between atoms: N_9  and  C_10
REMARK    5  A    between atoms: N_9  and  C_11
REMARK    6  A    between atoms: C_11  and  C_12
REMARK    7  A    between atoms: C_12  and  C_13
REMARK    8  A    between atoms: C_13  and  C_14
REMARK                            x       y       z     vdW  Elec       q    Type
REMARK                         _______ _______ _______ _____ _____    ______ ____
ROOT
ATOM      1  C   UNL     1       5.558   4.148  18.966  0.00  0.00    +0.000 C 
ENDROOT
BRANCH   1   2
ATOM      2  N   UNL     1       4.181   3.991  19.578  0.00  0.00    +0.000 NA
ATOM      3  C   UNL     1       4.018   2.589  20.065  0.00  0.00    +0.000 C 
BRANCH   2   4
ATOM      4  S   UNL     1       2.935   4.525  18.505  0.00  0.00    +0.000 S 
ATOM      5  O   UNL     1       1.808   3.641  18.709  0.00  0.00    +0.000 OA
ATOM      6  O   UNL     1       3.518   4.710  17.193  0.00  0.00    +0.000 OA
BRANCH   4  11
ATOM      7  C   UNL     1       0.913   9.967  20.197  0.00  0.00    +0.000 C 
ATOM      8  C   UNL     1       1.475   8.638  19.785  0.00  0.00    +0.000 A 
ATOM      9  C   UNL     1       2.006   8.444  18.501  0.00  0.00    +0.000 A 
ATOM     10  C   UNL     1       2.493   7.195  18.120  0.00  0.00    +0.000 A 
ATOM     11  C   UNL     1       2.476   6.145  19.042  0.00  0.00    +0.000 A 
ATOM     12  C   UNL     1       1.977   6.329  20.331  0.00  0.00    +0.000 A 
ATOM     13  C   UNL     1       1.457   7.570  20.693  0.00  0.00    +0.000 A 
ENDBRANCH   4  11
ENDBRANCH   2   4
ENDBRANCH   1   2
BRANCH   1  14
ATOM     14  C   UNL     1       6.181   5.526  19.211  0.00  0.00    +0.000 C 
BRANCH  14  15
ATOM     15  C   UNL     1       7.333   5.848  18.256  0.00  0.00    +0.000 C 
BRANCH  15  16
ATOM     16  C   UNL     1       7.222   5.048  16.962  0.00  0.00    +0.000 C 
ATOM     17  O   UNL     1       7.338   3.824  16.980  0.00  0.00    +0.000 OA
ATOM     18  N   UNL     1       6.984   5.796  15.843  0.00  0.00    +0.000 N 
ATOM     19  C   UNL     1       6.951   5.181  14.590  0.00  0.00    +0.000 A 
ATOM     20  C   UNL     1       6.034   4.168  14.343  0.00  0.00    +0.000 A 
ATOM     21  C   UNL     1       6.035   3.543  13.100  0.00  0.00    +0.000 A 
ATOM     22  C   UNL     1       6.983   3.921  12.159  0.00  0.00    +0.000 A 
ATOM     23  C   UNL     1       7.856   4.947  12.489  0.00  0.00    +0.000 A 
ATOM     24  N   UNL     1       7.833   5.624  13.665  0.00  0.00    +0.000 NA
ATOM     25  H   UNL     1       7.406   6.723  15.828  0.00  0.00    +0.000 HD
ENDBRANCH  15  16
ENDBRANCH  14  15
ENDBRANCH   1  14
TORSDOF 6
ENDMDL
MODEL 9
REMARK VINA RESULT:      -7.6      1.611      2.003
REMARK  Name = 
REMARK  8 active torsions:
REMARK  status: ('A' for Active; 'I' for Inactive)
REMARK    1  A    between atoms: C_1  and  C_2
REMARK    2  A    between atoms: C_5  and  S_6
REMARK    3  A    between atoms: S_6  and  N_9
REMARK    4  A    between atoms: N_9  and  C_10
REMARK    5  A    between atoms: N_9  and  C_11
REMARK    6  A    between atoms: C_11  and  C_12
REMARK    7  A    between atoms: C_12  and  C_13
REMARK    8  A    between atoms: C_13  and  C_14
REMARK                            x       y       z     vdW  Elec       q    Type
REMARK                         _______ _______ _______ _____ _____    ______ ____
ROOT
ATOM      1  C   UNL     1       7.959   7.491  18.329  0.00  0.00    +0.000 C 
ENDROOT
BRANCH   1   2
ATOM      2  N   UNL     1       7.328   6.732  17.180  0.00  0.00    +0.000 NA
ATOM      3  C   UNL     1       5.979   7.307  16.894  0.00  0.00    +0.000 C 
BRANCH   2   4
ATOM      4  S   UNL     1       7.334   5.025  17.455  0.00  0.00    +0.000 S 
ATOM      5  O   UNL     1       8.095   4.805  18.666  0.00  0.00    +0.000 OA
ATOM      6  O   UNL     1       7.690   4.369  16.214  0.00  0.00    +0.000 OA
BRANCH   4  11
ATOM      7  C   UNL     1       1.751   2.991  18.573  0.00  0.00    +0.000 C 
ATOM      8  C   UNL     1       3.110   3.551  18.274  0.00  0.00    +0.000 A 
ATOM      9  C   UNL     1       3.607   3.581  16.962  0.00  0.00    +0.000 A 
ATOM     10  C   UNL     1       4.885   4.072  16.703  0.00  0.00    +0.000 A 
ATOM     11  C   UNL     1       5.656   4.563  17.760  0.00  0.00    +0.000 A 
ATOM     12  C   UNL     1       5.167   4.565  19.066  0.00  0.00    +0.000 A 
ATOM     13  C   UNL     1       3.902   4.039  19.323  0.00  0.00    +0.000 A 
ENDBRANCH   4  11
ENDBRANCH   2   4
ENDBRANCH   1   2
BRANCH   1  14
ATOM     14  C   UNL     1       8.208   8.971  18.019  0.00  0.00    +0.000 C 
BRANCH  14  15
ATOM     15  C   UNL     1       9.315   9.591  18.876  0.00  0.00    +0.000 C 
BRANCH  15  16
ATOM     16  C   UNL     1       9.157  11.105  18.976  0.00  0.00    +0.000 C 
ATOM     17  O   UNL     1       9.403  11.684  20.033  0.00  0.00    +0.000 OA
ATOM     18  N   UNL     1       8.742  11.716  17.827  0.00  0.00    +0.000 N 
ATOM     19  C   UNL     1       8.478  13.086  17.824  0.00  0.00    +0.000 A 
ATOM     20  C   UNL     1       9.482  13.983  18.168  0.00  0.00    +0.000 A 
ATOM     21  C   UNL     1       9.193  15.343  18.192  0.00  0.00    +0.000 A 
ATOM     22  C   UNL     1       7.899  15.762  17.915  0.00  0.00    +0.000 A 
ATOM     23  C   UNL     1       6.962  14.798  17.574  0.00  0.00    +0.000 A 
ATOM     24  N   UNL     1       7.229  13.470  17.472  0.00  0.00    +0.000 NA
ATOM     25  H   UNL     1       8.104  11.179  17.241  0.00  0.00    +0.000 HD
ENDBRANCH  15  16
ENDBRANCH  14  15
ENDBRANCH   1  14
TORSDOF 6
ENDMDL
