MODEL 1
REMARK VINA RESULT:      -6.6      0.000      0.000
REMARK  Name = 
REMARK  9 active torsions:
REMARK  status: ('A' for Active; 'I' for Inactive)
REMARK    1  A    between atoms: C_1  and  S_2
REMARK    2  A    between atoms: S_2  and  C_3
REMARK    3  A    between atoms: N_5  and  S_6
REMARK    4  A    between atoms: S_6  and  C_9
REMARK    5  A    between atoms: C_12  and  C_13
REMARK    6  A    between atoms: C_13  and  C_14
REMARK    7  A    between atoms: C_13  and  C_15
REMARK    8  A    between atoms: C_13  and  C_16
REMARK    9  A    between atoms: C_21  and  C_22
REMARK                            x       y       z     vdW  Elec       q    Type
REMARK                         _______ _______ _______ _____ _____    ______ ____
ROOT
ATOM      1  S   UNL     1       0.916   8.920  21.258  0.00  0.00    +0.000 S 
ATOM      2  O   UNL     1       1.855   9.222  22.318  0.00  0.00    +0.000 OA
ATOM      3  O   UNL     1      -0.430   8.490  21.570  0.00  0.00    +0.000 OA
ENDROOT
BRANCH   1   6
ATOM      4  C   UNL     1      -1.179  11.746  20.609  0.00  0.00    +0.000 A 
ATOM      5  C   UNL     1      -0.377  10.799  19.925  0.00  0.00    +0.000 A 
ATOM      6  N   UNL     1       0.875  10.315  20.303  0.00  0.00    +0.000 N 
ATOM      7  N   UNL     1      -0.948  10.428  18.775  0.00  0.00    +0.000 NA
ATOM      8  O   UNL     1      -2.143  11.117  18.705  0.00  0.00    +0.000 OA
ATOM      9  C   UNL     1      -2.279  11.912  19.802  0.00  0.00    +0.000 A 
ATOM     10  C   UNL     1      -3.504  12.730  19.857  0.00  0.00    +0.000 C 
ATOM     11  H   UNL     1       1.481  10.997  20.761  0.00  0.00    +0.000 HD
BRANCH   4  13
ATOM     12  C   UNL     1      -1.598  11.340  23.278  0.00  0.00    +0.000 C 
ATOM     13  S   UNL     1      -0.823  12.511  22.133  0.00  0.00    +0.000 S 
ENDBRANCH   4  13
ENDBRANCH   1   6
BRANCH   1  14
ATOM     14  C   UNL     1       1.643   7.694  20.208  0.00  0.00    +0.000 A 
ATOM     15  C   UNL     1       2.148   8.041  18.958  0.00  0.00    +0.000 A 
ATOM     16  C   UNL     1       2.841   7.086  18.204  0.00  0.00    +0.000 A 
ATOM     17  C   UNL     1       3.043   5.776  18.680  0.00  0.00    +0.000 A 
ATOM     18  C   UNL     1       2.482   5.448  19.929  0.00  0.00    +0.000 A 
ATOM     19  C   UNL     1       1.815   6.400  20.697  0.00  0.00    +0.000 A 
BRANCH  17  20
ATOM     20  C   UNL     1       3.896   4.736  17.934  0.00  0.00    +0.000 C 
ATOM     21  C   UNL     1       4.903   4.002  18.844  0.00  0.00    +0.000 C 
ATOM     22  C   UNL     1       2.966   3.662  17.322  0.00  0.00    +0.000 C 
ATOM     23  C   UNL     1       4.697   5.407  16.799  0.00  0.00    +0.000 C 
ENDBRANCH  17  20
ENDBRANCH   1  14
TORSDOF 4
ENDMDL
MODEL 2
REMARK VINA RESULT:      -6.6      0.390      1.451
REMARK  Name = 
REMARK  9 active torsions:
REMARK  status: ('A' for Active; 'I' for Inactive)
REMARK    1  A    between atoms: C_1  and  S_2
REMARK    2  A    between atoms: S_2  and  C_3
REMARK    3  A    between atoms: N_5  and  S_6
REMARK    4  A    between atoms: S_6  and  C_9
REMARK    5  A    between atoms: C_12  and  C_13
REMARK    6  A    between atoms: C_13  and  C_14
REMARK    7  A    between atoms: C_13  and  C_15
REMARK    8  A    between atoms: C_13  and  C_16
REMARK    9  A    between atoms: C_21  and  C_22
REMARK                            x       y       z     vdW  Elec       q    Type
REMARK                         _______ _______ _______ _____ _____    ______ ____
ROOT
ATOM      1  S   UNL     1       0.828   8.844  21.292  0.00  0.00    +0.000 S 
ATOM      2  O   UNL     1       1.649   9.298  22.394  0.00  0.00    +0.000 OA
ATOM      3  O   UNL     1      -0.520   8.369  21.527  0.00  0.00    +0.000 OA
ENDROOT
BRANCH   1   6
ATOM      4  C   UNL     1      -1.196  11.655  20.400  0.00  0.00    +0.000 A 
ATOM      5  C   UNL     1      -0.438  10.619  19.800  0.00  0.00    +0.000 A 
ATOM      6  N   UNL     1       0.807  10.137  20.202  0.00  0.00    +0.000 N 
ATOM      7  N   UNL     1      -1.044  10.153  18.704  0.00  0.00    +0.000 NA
ATOM      8  O   UNL     1      -2.219  10.870  18.587  0.00  0.00    +0.000 OA
ATOM      9  C   UNL     1      -2.308  11.774  19.600  0.00  0.00    +0.000 A 
ATOM     10  C   UNL     1      -3.506  12.632  19.594  0.00  0.00    +0.000 C 
ATOM     11  H   UNL     1       1.443  10.841  20.577  0.00  0.00    +0.000 HD
BRANCH   4  13
ATOM     12  C   UNL     1      -1.412  11.443  23.114  0.00  0.00    +0.000 C 
ATOM     13  S   UNL     1      -0.784  12.558  21.831  0.00  0.00    +0.000 S 
ENDBRANCH   4  13
ENDBRANCH   1   6
BRANCH   1  14
ATOM     14  C   UNL     1       1.706   7.566  20.438  0.00  0.00    +0.000 A 
ATOM     15  C   UNL     1       1.751   6.273  20.952  0.00  0.00    +0.000 A 
ATOM     16  C   UNL     1       2.332   5.249  20.193  0.00  0.00    +0.000 A 
ATOM     17  C   UNL     1       2.873   5.494  18.916  0.00  0.00    +0.000 A 
ATOM     18  C   UNL     1       2.849   6.821  18.446  0.00  0.00    +0.000 A 
ATOM     19  C   UNL     1       2.248   7.840  19.184  0.00  0.00    +0.000 A 
BRANCH  17  20
ATOM     20  C   UNL     1       3.413   4.376  18.008  0.00  0.00    +0.000 C 
ATOM     21  C   UNL     1       2.303   3.566  17.306  0.00  0.00    +0.000 C 
ATOM     22  C   UNL     1       4.291   5.003  16.899  0.00  0.00    +0.000 C 
ATOM     23  C   UNL     1       4.271   3.385  18.820  0.00  0.00    +0.000 C 
ENDBRANCH  17  20
ENDBRANCH   1  14
TORSDOF 4
ENDMDL
MODEL 3
REMARK VINA RESULT:      -6.5      1.623      2.086
REMARK  Name = 
REMARK  9 active torsions:
REMARK  status: ('A' for Active; 'I' for Inactive)
REMARK    1  A    between atoms: C_1  and  S_2
REMARK    2  A    between atoms: S_2  and  C_3
REMARK    3  A    between atoms: N_5  and  S_6
REMARK    4  A    between atoms: S_6  and  C_9
REMARK    5  A    between atoms: C_12  and  C_13
REMARK    6  A    between atoms: C_13  and  C_14
REMARK    7  A    between atoms: C_13  and  C_15
REMARK    8  A    between atoms: C_13  and  C_16
REMARK    9  A    between atoms: C_21  and  C_22
REMARK                            x       y       z     vdW  Elec       q    Type
REMARK                         _______ _______ _______ _____ _____    ______ ____
ROOT
ATOM      1  S   UNL     1       0.345  10.823  20.656  0.00  0.00    +0.000 S 
ATOM      2  O   UNL     1       1.412  11.637  21.201  0.00  0.00    +0.000 OA
ATOM      3  O   UNL     1      -0.746  10.382  21.499  0.00  0.00    +0.000 OA
ENDROOT
BRANCH   1   6
ATOM      4  C   UNL     1      -2.708  12.272  19.484  0.00  0.00    +0.000 A 
ATOM      5  C   UNL     1      -1.595  11.534  19.011  0.00  0.00    +0.000 A 
ATOM      6  N   UNL     1      -0.254  11.711  19.347  0.00  0.00    +0.000 N 
ATOM      7  N   UNL     1      -1.971  10.626  18.105  0.00  0.00    +0.000 NA
ATOM      8  O   UNL     1      -3.342  10.748  17.992  0.00  0.00    +0.000 OA
ATOM      9  C   UNL     1      -3.784  11.739  18.815  0.00  0.00    +0.000 A 
ATOM     10  C   UNL     1      -5.234  12.002  18.785  0.00  0.00    +0.000 C 
ATOM     11  H   UNL     1       0.029  12.679  19.501  0.00  0.00    +0.000 HD
BRANCH   4  13
ATOM     12  C   UNL     1      -3.481  12.741  22.062  0.00  0.00    +0.000 C 
ATOM     13  S   UNL     1      -2.686  13.561  20.655  0.00  0.00    +0.000 S 
ENDBRANCH   4  13
ENDBRANCH   1   6
BRANCH   1  14
ATOM     14  C   UNL     1       1.068   9.387  19.917  0.00  0.00    +0.000 A 
ATOM     15  C   UNL     1       1.450   9.397  18.578  0.00  0.00    +0.000 A 
ATOM     16  C   UNL     1       2.145   8.301  18.051  0.00  0.00    +0.000 A 
ATOM     17  C   UNL     1       2.471   7.184  18.844  0.00  0.00    +0.000 A 
ATOM     18  C   UNL     1       2.032   7.190  20.182  0.00  0.00    +0.000 A 
ATOM     19  C   UNL     1       1.364   8.288  20.721  0.00  0.00    +0.000 A 
BRANCH  17  20
ATOM     20  C   UNL     1       3.332   6.016  18.332  0.00  0.00    +0.000 C 
ATOM     21  C   UNL     1       2.502   4.857  17.742  0.00  0.00    +0.000 C 
ATOM     22  C   UNL     1       4.265   6.528  17.209  0.00  0.00    +0.000 C 
ATOM     23  C   UNL     1       4.194   5.438  19.472  0.00  0.00    +0.000 C 
ENDBRANCH  17  20
ENDBRANCH   1  14
TORSDOF 4
ENDMDL
MODEL 4
REMARK VINA RESULT:      -6.5      1.299      1.944
REMARK  Name = 
REMARK  9 active torsions:
REMARK  status: ('A' for Active; 'I' for Inactive)
REMARK    1  A    between atoms: C_1  and  S_2
REMARK    2  A    between atoms: S_2  and  C_3
REMARK    3  A    between atoms: N_5  and  S_6
REMARK    4  A    between atoms: S_6  and  C_9
REMARK    5  A    between atoms: C_12  and  C_13
REMARK    6  A    between atoms: C_13  and  C_14
REMARK    7  A    between atoms: C_13  and  C_15
REMARK    8  A    between atoms: C_13  and  C_16
REMARK    9  A    between atoms: C_21  and  C_22
REMARK                            x       y       z     vdW  Elec       q    Type
REMARK                         _______ _______ _______ _____ _____    ______ ____
ROOT
ATOM      1  S   UNL     1       0.811   9.039  20.960  0.00  0.00    +0.000 S 
ATOM      2  O   UNL     1       1.614   9.586  22.033  0.00  0.00    +0.000 OA
ATOM      3  O   UNL     1      -0.537   8.575  21.215  0.00  0.00    +0.000 OA
ENDROOT
BRANCH   1   6
ATOM      4  C   UNL     1      -1.477  11.205  19.267  0.00  0.00    +0.000 A 
ATOM      5  C   UNL     1      -0.360  10.374  19.005  0.00  0.00    +0.000 A 
ATOM      6  N   UNL     1       0.797  10.240  19.770  0.00  0.00    +0.000 N 
ATOM      7  N   UNL     1      -0.505   9.727  17.845  0.00  0.00    +0.000 NA
ATOM      8  O   UNL     1      -1.733  10.115  17.344  0.00  0.00    +0.000 OA
ATOM      9  C   UNL     1      -2.314  11.006  18.195  0.00  0.00    +0.000 A 
ATOM     10  C   UNL     1      -3.628  11.529  17.780  0.00  0.00    +0.000 C 
ATOM     11  H   UNL     1       1.118  11.098  20.222  0.00  0.00    +0.000 HD
BRANCH   4  13
ATOM     12  C   UNL     1      -1.121  13.816  19.984  0.00  0.00    +0.000 C 
ATOM     13  S   UNL     1      -1.710  12.238  20.650  0.00  0.00    +0.000 S 
ENDBRANCH   4  13
ENDBRANCH   1   6
BRANCH   1  14
ATOM     14  C   UNL     1       1.708   7.704  20.223  0.00  0.00    +0.000 A 
ATOM     15  C   UNL     1       1.707   6.441  20.809  0.00  0.00    +0.000 A 
ATOM     16  C   UNL     1       2.307   5.368  20.138  0.00  0.00    +0.000 A 
ATOM     17  C   UNL     1       2.914   5.534  18.878  0.00  0.00    +0.000 A 
ATOM     18  C   UNL     1       2.935   6.833  18.335  0.00  0.00    +0.000 A 
ATOM     19  C   UNL     1       2.316   7.899  18.985  0.00  0.00    +0.000 A 
BRANCH  17  20
ATOM     20  C   UNL     1       3.480   4.360  18.061  0.00  0.00    +0.000 C 
ATOM     21  C   UNL     1       2.391   3.517  17.364  0.00  0.00    +0.000 C 
ATOM     22  C   UNL     1       4.407   4.913  16.952  0.00  0.00    +0.000 C 
ATOM     23  C   UNL     1       4.295   3.413  18.965  0.00  0.00    +0.000 C 
ENDBRANCH  17  20
ENDBRANCH   1  14
TORSDOF 4
ENDMDL
MODEL 5
REMARK VINA RESULT:      -6.5      1.405      1.809
REMARK  Name = 
REMARK  9 active torsions:
REMARK  status: ('A' for Active; 'I' for Inactive)
REMARK    1  A    between atoms: C_1  and  S_2
REMARK    2  A    between atoms: S_2  and  C_3
REMARK    3  A    between atoms: N_5  and  S_6
REMARK    4  A    between atoms: S_6  and  C_9
REMARK    5  A    between atoms: C_12  and  C_13
REMARK    6  A    between atoms: C_13  and  C_14
REMARK    7  A    between atoms: C_13  and  C_15
REMARK    8  A    between atoms: C_13  and  C_16
REMARK    9  A    between atoms: C_21  and  C_22
REMARK                            x       y       z     vdW  Elec       q    Type
REMARK                         _______ _______ _______ _____ _____    ______ ____
ROOT
ATOM      1  S   UNL     1       0.453  10.258  20.417  0.00  0.00    +0.000 S 
ATOM      2  O   UNL     1       1.426  11.086  21.097  0.00  0.00    +0.000 OA
ATOM      3  O   UNL     1      -0.672   9.702  21.140  0.00  0.00    +0.000 OA
ENDROOT
BRANCH   1   6
ATOM      4  C   UNL     1      -2.445  12.079  19.378  0.00  0.00    +0.000 A 
ATOM      5  C   UNL     1      -1.464  11.197  18.861  0.00  0.00    +0.000 A 
ATOM      6  N   UNL     1      -0.095  11.201  19.125  0.00  0.00    +0.000 N 
ATOM      7  N   UNL     1      -2.002  10.336  17.992  0.00  0.00    +0.000 NA
ATOM      8  O   UNL     1      -3.350  10.636  17.947  0.00  0.00    +0.000 OA
ATOM      9  C   UNL     1      -3.614  11.684  18.774  0.00  0.00    +0.000 A 
ATOM     10  C   UNL     1      -5.018  12.134  18.814  0.00  0.00    +0.000 C 
ATOM     11  H   UNL     1       0.319  12.126  19.248  0.00  0.00    +0.000 HD
BRANCH   4  13
ATOM     12  C   UNL     1      -2.619  12.521  22.068  0.00  0.00    +0.000 C 
ATOM     13  S   UNL     1      -2.194  13.367  20.523  0.00  0.00    +0.000 S 
ENDBRANCH   4  13
ENDBRANCH   1   6
BRANCH   1  14
ATOM     14  C   UNL     1       1.311   8.916  19.646  0.00  0.00    +0.000 A 
ATOM     15  C   UNL     1       1.785   9.035  18.342  0.00  0.00    +0.000 A 
ATOM     16  C   UNL     1       2.580   8.017  17.800  0.00  0.00    +0.000 A 
ATOM     17  C   UNL     1       2.916   6.870  18.545  0.00  0.00    +0.000 A 
ATOM     18  C   UNL     1       2.384   6.763  19.844  0.00  0.00    +0.000 A 
ATOM     19  C   UNL     1       1.615   7.784  20.399  0.00  0.00    +0.000 A 
BRANCH  17  20
ATOM     20  C   UNL     1       3.879   5.788  18.027  0.00  0.00    +0.000 C 
ATOM     21  C   UNL     1       4.714   6.242  16.811  0.00  0.00    +0.000 C 
ATOM     22  C   UNL     1       4.874   5.414  19.151  0.00  0.00    +0.000 C 
ATOM     23  C   UNL     1       3.100   4.524  17.611  0.00  0.00    +0.000 C 
ENDBRANCH  17  20
ENDBRANCH   1  14
TORSDOF 4
ENDMDL
MODEL 6
REMARK VINA RESULT:      -6.5      1.350      1.977
REMARK  Name = 
REMARK  9 active torsions:
REMARK  status: ('A' for Active; 'I' for Inactive)
REMARK    1  A    between atoms: C_1  and  S_2
REMARK    2  A    between atoms: S_2  and  C_3
REMARK    3  A    between atoms: N_5  and  S_6
REMARK    4  A    between atoms: S_6  and  C_9
REMARK    5  A    between atoms: C_12  and  C_13
REMARK    6  A    between atoms: C_13  and  C_14
REMARK    7  A    between atoms: C_13  and  C_15
REMARK    8  A    between atoms: C_13  and  C_16
REMARK    9  A    between atoms: C_21  and  C_22
REMARK                            x       y       z     vdW  Elec       q    Type
REMARK                         _______ _______ _______ _____ _____    ______ ____
ROOT
ATOM      1  S   UNL     1       0.422  10.033  20.574  0.00  0.00    +0.000 S 
ATOM      2  O   UNL     1       1.316  10.900  21.312  0.00  0.00    +0.000 OA
ATOM      3  O   UNL     1      -0.783   9.522  21.193  0.00  0.00    +0.000 OA
ENDROOT
BRANCH   1   6
ATOM      4  C   UNL     1      -2.299  11.852  19.132  0.00  0.00    +0.000 A 
ATOM      5  C   UNL     1      -1.302  10.911  18.776  0.00  0.00    +0.000 A 
ATOM      6  N   UNL     1       0.034  10.898  19.174  0.00  0.00    +0.000 N 
ATOM      7  N   UNL     1      -1.781  10.006  17.917  0.00  0.00    +0.000 NA
ATOM      8  O   UNL     1      -3.108  10.336  17.719  0.00  0.00    +0.000 OA
ATOM      9  C   UNL     1      -3.417  11.447  18.443  0.00  0.00    +0.000 A 
ATOM     10  C   UNL     1      -4.802  11.935  18.313  0.00  0.00    +0.000 C 
ATOM     11  H   UNL     1       0.465  11.818  19.274  0.00  0.00    +0.000 HD
BRANCH   4  13
ATOM     12  C   UNL     1      -2.621  12.456  21.777  0.00  0.00    +0.000 C 
ATOM     13  S   UNL     1      -2.118  13.210  20.208  0.00  0.00    +0.000 S 
ENDBRANCH   4  13
ENDBRANCH   1   6
BRANCH   1  14
ATOM     14  C   UNL     1       1.354   8.647  19.988  0.00  0.00    +0.000 A 
ATOM     15  C   UNL     1       1.501   7.508  20.775  0.00  0.00    +0.000 A 
ATOM     16  C   UNL     1       2.123   6.373  20.239  0.00  0.00    +0.000 A 
ATOM     17  C   UNL     1       2.604   6.354  18.916  0.00  0.00    +0.000 A 
ATOM     18  C   UNL     1       2.478   7.536  18.162  0.00  0.00    +0.000 A 
ATOM     19  C   UNL     1       1.836   8.660  18.680  0.00  0.00    +0.000 A 
BRANCH  17  20
ATOM     20  C   UNL     1       3.187   5.092  18.256  0.00  0.00    +0.000 C 
ATOM     21  C   UNL     1       4.192   5.400  17.126  0.00  0.00    +0.000 C 
ATOM     22  C   UNL     1       3.941   4.264  19.324  0.00  0.00    +0.000 C 
ATOM     23  C   UNL     1       2.062   4.225  17.656  0.00  0.00    +0.000 C 
ENDBRANCH  17  20
ENDBRANCH   1  14
TORSDOF 4
ENDMDL
MODEL 7
REMARK VINA RESULT:      -6.4      6.435      8.195
REMARK  Name = 
REMARK  9 active torsions:
REMARK  status: ('A' for Active; 'I' for Inactive)
REMARK    1  A    between atoms: C_1  and  S_2
REMARK    2  A    between atoms: S_2  and  C_3
REMARK    3  A    between atoms: N_5  and  S_6
REMARK    4  A    between atoms: S_6  and  C_9
REMARK    5  A    between atoms: C_12  and  C_13
REMARK    6  A    between atoms: C_13  and  C_14
REMARK    7  A    between atoms: C_13  and  C_15
REMARK    8  A    between atoms: C_13  and  C_16
REMARK    9  A    between atoms: C_21  and  C_22
REMARK                            x       y       z     vdW  Elec       q    Type
REMARK                         _______ _______ _______ _____ _____    ______ ____
ROOT
ATOM      1  S   UNL     1       5.903   4.415  18.303  0.00  0.00    +0.000 S 
ATOM      2  O   UNL     1       4.858   5.338  18.695  0.00  0.00    +0.000 OA
ATOM      3  O   UNL     1       7.251   4.577  18.806  0.00  0.00    +0.000 OA
ENDROOT
BRANCH   1   6
ATOM      4  C   UNL     1       2.909   2.855  19.484  0.00  0.00    +0.000 A 
ATOM      5  C   UNL     1       4.311   2.823  19.685  0.00  0.00    +0.000 A 
ATOM      6  N   UNL     1       5.309   2.886  18.714  0.00  0.00    +0.000 N 
ATOM      7  N   UNL     1       4.607   2.660  20.977  0.00  0.00    +0.000 NA
ATOM      8  O   UNL     1       3.396   2.602  21.640  0.00  0.00    +0.000 OA
ATOM      9  C   UNL     1       2.378   2.714  20.743  0.00  0.00    +0.000 A 
ATOM     10  C   UNL     1       1.016   2.647  21.305  0.00  0.00    +0.000 C 
ATOM     11  H   UNL     1       5.087   2.417  17.834  0.00  0.00    +0.000 HD
BRANCH   4  13
ATOM     12  C   UNL     1       1.703   4.808  18.003  0.00  0.00    +0.000 C 
ATOM     13  S   UNL     1       2.074   3.035  17.966  0.00  0.00    +0.000 S 
ENDBRANCH   4  13
ENDBRANCH   1   6
BRANCH   1  14
ATOM     14  C   UNL     1       5.988   4.392  16.536  0.00  0.00    +0.000 A 
ATOM     15  C   UNL     1       7.161   4.751  15.879  0.00  0.00    +0.000 A 
ATOM     16  C   UNL     1       7.250   4.593  14.489  0.00  0.00    +0.000 A 
ATOM     17  C   UNL     1       6.178   4.076  13.737  0.00  0.00    +0.000 A 
ATOM     18  C   UNL     1       4.992   3.764  14.428  0.00  0.00    +0.000 A 
ATOM     19  C   UNL     1       4.905   3.893  15.813  0.00  0.00    +0.000 A 
BRANCH  17  20
ATOM     20  C   UNL     1       6.279   3.781  12.230  0.00  0.00    +0.000 C 
ATOM     21  C   UNL     1       6.890   2.399  11.916  0.00  0.00    +0.000 C 
ATOM     22  C   UNL     1       4.861   3.803  11.613  0.00  0.00    +0.000 C 
ATOM     23  C   UNL     1       7.146   4.844  11.526  0.00  0.00    +0.000 C 
ENDBRANCH  17  20
ENDBRANCH   1  14
TORSDOF 4
ENDMDL
MODEL 8
REMARK VINA RESULT:      -6.4      1.450      1.785
REMARK  Name = 
REMARK  9 active torsions:
REMARK  status: ('A' for Active; 'I' for Inactive)
REMARK    1  A    between atoms: C_1  and  S_2
REMARK    2  A    between atoms: S_2  and  C_3
REMARK    3  A    between atoms: N_5  and  S_6
REMARK    4  A    between atoms: S_6  and  C_9
REMARK    5  A    between atoms: C_12  and  C_13
REMARK    6  A    between atoms: C_13  and  C_14
REMARK    7  A    between atoms: C_13  and  C_15
REMARK    8  A    between atoms: C_13  and  C_16
REMARK    9  A    between atoms: C_21  and  C_22
REMARK                            x       y       z     vdW  Elec       q    Type
REMARK                         _______ _______ _______ _____ _____    ______ ____
ROOT
ATOM      1  S   UNL     1       0.552   9.759  20.569  0.00  0.00    +0.000 S 
ATOM      2  O   UNL     1       1.434  10.405  21.518  0.00  0.00    +0.000 OA
ATOM      3  O   UNL     1      -0.683   9.147  21.013  0.00  0.00    +0.000 OA
ENDROOT
BRANCH   1   6
ATOM      4  C   UNL     1      -2.177  11.688  19.292  0.00  0.00    +0.000 A 
ATOM      5  C   UNL     1      -1.048  10.958  18.843  0.00  0.00    +0.000 A 
ATOM      6  N   UNL     1       0.229  10.940  19.402  0.00  0.00    +0.000 N 
ATOM      7  N   UNL     1      -1.326  10.286  17.722  0.00  0.00    +0.000 NA
ATOM      8  O   UNL     1      -2.651  10.555  17.436  0.00  0.00    +0.000 OA
ATOM      9  C   UNL     1      -3.159  11.400  18.375  0.00  0.00    +0.000 A 
ATOM     10  C   UNL     1      -4.567  11.797  18.189  0.00  0.00    +0.000 C 
ATOM     11  H   UNL     1       0.541  11.828  19.797  0.00  0.00    +0.000 HD
BRANCH   4  13
ATOM     12  C   UNL     1      -1.294  14.132  20.133  0.00  0.00    +0.000 C 
ATOM     13  S   UNL     1      -2.268  12.712  20.698  0.00  0.00    +0.000 S 
ENDBRANCH   4  13
ENDBRANCH   1   6
BRANCH   1  14
ATOM     14  C   UNL     1       1.480   8.529  19.700  0.00  0.00    +0.000 A 
ATOM     15  C   UNL     1       1.961   8.779  18.418  0.00  0.00    +0.000 A 
ATOM     16  C   UNL     1       2.808   7.847  17.804  0.00  0.00    +0.000 A 
ATOM     17  C   UNL     1       3.190   6.658  18.455  0.00  0.00    +0.000 A 
ATOM     18  C   UNL     1       2.651   6.418  19.733  0.00  0.00    +0.000 A 
ATOM     19  C   UNL     1       1.829   7.352  20.361  0.00  0.00    +0.000 A 
BRANCH  17  20
ATOM     20  C   UNL     1       4.208   5.669  17.861  0.00  0.00    +0.000 C 
ATOM     21  C   UNL     1       3.571   4.348  17.381  0.00  0.00    +0.000 C 
ATOM     22  C   UNL     1       4.891   6.319  16.635  0.00  0.00    +0.000 C 
ATOM     23  C   UNL     1       5.289   5.313  18.903  0.00  0.00    +0.000 C 
ENDBRANCH  17  20
ENDBRANCH   1  14
TORSDOF 4
ENDMDL
MODEL 9
REMARK VINA RESULT:      -6.3      1.792      3.021
REMARK  Name = 
REMARK  9 active torsions:
REMARK  status: ('A' for Active; 'I' for Inactive)
REMARK    1  A    between atoms: C_1  and  S_2
REMARK    2  A    between atoms: S_2  and  C_3
REMARK    3  A    between atoms: N_5  and  S_6
REMARK    4  A    between atoms: S_6  and  C_9
REMARK    5  A    between atoms: C_12  and  C_13
REMARK    6  A    between atoms: C_13  and  C_14
REMARK    7  A    between atoms: C_13  and  C_15
REMARK    8  A    between atoms: C_13  and  C_16
REMARK    9  A    between atoms: C_21  and  C_22
REMARK                            x       y       z     vdW  Elec       q    Type
REMARK                         _______ _______ _______ _____ _____    ______ ____
ROOT
ATOM      1  S   UNL     1       0.729  10.047  18.959  0.00  0.00    +0.000 S 
ATOM      2  O   UNL     1       0.020  10.054  17.696  0.00  0.00    +0.000 OA
ATOM      3  O   UNL     1       1.536  11.182  19.355  0.00  0.00    +0.000 OA
ENDROOT
BRANCH   1   6
ATOM      4  C   UNL     1      -1.318  11.790  21.317  0.00  0.00    +0.000 A 
ATOM      5  C   UNL     1      -0.534  10.615  21.208  0.00  0.00    +0.000 A 
ATOM      6  N   UNL     1      -0.458   9.742  20.124  0.00  0.00    +0.000 N 
ATOM      7  N   UNL     1       0.131  10.375  22.342  0.00  0.00    +0.000 NA
ATOM      8  O   UNL     1      -0.199  11.405  23.201  0.00  0.00    +0.000 OA
ATOM      9  C   UNL     1      -1.072  12.251  22.588  0.00  0.00    +0.000 A 
ATOM     10  C   UNL     1      -1.534  13.395  23.395  0.00  0.00    +0.000 C 
ATOM     11  H   UNL     1      -1.333   9.607  19.615  0.00  0.00    +0.000 HD
BRANCH   4  13
ATOM     12  C   UNL     1      -1.148  13.426  19.137  0.00  0.00    +0.000 C 
ATOM     13  S   UNL     1      -2.355  12.472  20.095  0.00  0.00    +0.000 S 
ENDBRANCH   4  13
ENDBRANCH   1   6
BRANCH   1  14
ATOM     14  C   UNL     1       1.763   8.611  19.003  0.00  0.00    +0.000 A 
ATOM     15  C   UNL     1       1.709   7.732  20.081  0.00  0.00    +0.000 A 
ATOM     16  C   UNL     1       2.432   6.533  20.033  0.00  0.00    +0.000 A 
ATOM     17  C   UNL     1       3.216   6.192  18.914  0.00  0.00    +0.000 A 
ATOM     18  C   UNL     1       3.282   7.123  17.860  0.00  0.00    +0.000 A 
ATOM     19  C   UNL     1       2.544   8.305  17.890  0.00  0.00    +0.000 A 
BRANCH  17  20
ATOM     20  C   UNL     1       3.930   4.836  18.776  0.00  0.00    +0.000 C 
ATOM     21  C   UNL     1       3.853   4.245  17.352  0.00  0.00    +0.000 C 
ATOM     22  C   UNL     1       5.428   5.014  19.116  0.00  0.00    +0.000 C 
ATOM     23  C   UNL     1       3.319   3.801  19.742  0.00  0.00    +0.000 C 
ENDBRANCH  17  20
ENDBRANCH   1  14
TORSDOF 4
ENDMDL
