MODEL 1
REMARK VINA RESULT:      -7.6      0.000      0.000
REMARK  Name = 
REMARK  6 active torsions:
REMARK  status: ('A' for Active; 'I' for Inactive)
REMARK    1  A    between atoms: C_1  and  O_2
REMARK    2  A    between atoms: O_2  and  C_3
REMARK    3  A    between atoms: C_5  and  N_6
REMARK    4  A    between atoms: N_6  and  C_7
REMARK    5  A    between atoms: C_7  and  C_8
REMARK    6  A    between atoms: C_8  and  C_9
REMARK                            x       y       z     vdW  Elec       q    Type
REMARK                         _______ _______ _______ _____ _____    ______ ____
ROOT
ATOM      1  C   UNL     1       3.198   6.708  17.968  0.00  0.00    +0.000 A 
ATOM      2  C   UNL     1       4.515   6.265  18.021  0.00  0.00    +0.000 A 
ATOM      3  C   UNL     1       4.827   4.898  18.148  0.00  0.00    +0.000 A 
ATOM      4  C   UNL     1       3.787   3.952  18.277  0.00  0.00    +0.000 A 
ATOM      5  N   UNL     1       4.069   2.631  18.395  0.00  0.00    +0.000 NA
ATOM      6  C   UNL     1       3.041   1.763  18.524  0.00  0.00    +0.000 A 
ATOM      7  C   UNL     1       1.712   2.135  18.539  0.00  0.00    +0.000 A 
ATOM      8  C   UNL     1       1.415   3.484  18.405  0.00  0.00    +0.000 A 
ATOM      9  C   UNL     1       2.451   4.418  18.264  0.00  0.00    +0.000 A 
ATOM     10  C   UNL     1       2.169   5.784  18.113  0.00  0.00    +0.000 A 
ENDROOT
BRANCH   1  12
ATOM     11  C   UNL     1       1.910   8.496  18.825  0.00  0.00    +0.000 C 
ATOM     12  O   UNL     1       2.811   8.013  17.833  0.00  0.00    +0.000 OA
ENDBRANCH   1  12
BRANCH   3  13
ATOM     13  N   UNL     1       6.180   4.459  18.291  0.00  0.00    +0.000 N 
ATOM     14  H   UNL     1       6.178   3.673  18.946  0.00  0.00    +0.000 HD
BRANCH  13  15
ATOM     15  C   UNL     1       6.939   4.238  17.064  0.00  0.00    +0.000 C 
BRANCH  15  16
ATOM     16  C   UNL     1       7.002   5.509  16.214  0.00  0.00    +0.000 C 
BRANCH  16  17
ATOM     17  C   UNL     1       6.684   5.264  14.721  0.00  0.00    +0.000 C 
ATOM     18  C   UNL     1       6.044   3.883  14.472  0.00  0.00    +0.000 C 
ATOM     19  C   UNL     1       5.793   3.631  12.987  0.00  0.00    +0.000 C 
ATOM     20  C   UNL     1       7.070   3.866  12.190  0.00  0.00    +0.000 C 
ATOM     21  C   UNL     1       7.650   5.247  12.487  0.00  0.00    +0.000 C 
ATOM     22  N   UNL     1       7.904   5.426  13.915  0.00  0.00    +0.000 NA
ATOM     23  H   UNL     1       8.289   6.358  14.068  0.00  0.00    +0.000 HD
ENDBRANCH  16  17
ENDBRANCH  15  16
ENDBRANCH  13  15
ENDBRANCH   3  13
TORSDOF 5
ENDMDL
MODEL 2
REMARK VINA RESULT:      -7.3      2.378      6.515
REMARK  Name = 
REMARK  6 active torsions:
REMARK  status: ('A' for Active; 'I' for Inactive)
REMARK    1  A    between atoms: C_1  and  O_2
REMARK    2  A    between atoms: O_2  and  C_3
REMARK    3  A    between atoms: C_5  and  N_6
REMARK    4  A    between atoms: N_6  and  C_7
REMARK    5  A    between atoms: C_7  and  C_8
REMARK    6  A    between atoms: C_8  and  C_9
REMARK                            x       y       z     vdW  Elec       q    Type
REMARK                         _______ _______ _______ _____ _____    ______ ____
ROOT
ATOM      1  C   UNL     1       5.724   4.509  14.762  0.00  0.00    +0.000 A 
ATOM      2  C   UNL     1       5.005   3.624  15.558  0.00  0.00    +0.000 A 
ATOM      3  C   UNL     1       5.095   3.658  16.962  0.00  0.00    +0.000 A 
ATOM      4  C   UNL     1       5.972   4.573  17.585  0.00  0.00    +0.000 A 
ATOM      5  N   UNL     1       6.069   4.622  18.936  0.00  0.00    +0.000 NA
ATOM      6  C   UNL     1       6.927   5.509  19.487  0.00  0.00    +0.000 A 
ATOM      7  C   UNL     1       7.716   6.376  18.759  0.00  0.00    +0.000 A 
ATOM      8  C   UNL     1       7.613   6.341  17.376  0.00  0.00    +0.000 A 
ATOM      9  C   UNL     1       6.731   5.440  16.764  0.00  0.00    +0.000 A 
ATOM     10  C   UNL     1       6.603   5.399  15.366  0.00  0.00    +0.000 A 
ENDROOT
BRANCH   1  12
ATOM     11  C   UNL     1       6.283   3.444  12.725  0.00  0.00    +0.000 C 
ATOM     12  O   UNL     1       5.682   4.549  13.395  0.00  0.00    +0.000 OA
ENDBRANCH   1  12
BRANCH   3  13
ATOM     13  N   UNL     1       4.423   2.689  17.770  0.00  0.00    +0.000 N 
ATOM     14  H   UNL     1       4.468   3.015  18.739  0.00  0.00    +0.000 HD
BRANCH  13  15
ATOM     15  C   UNL     1       3.101   2.257  17.326  0.00  0.00    +0.000 C 
BRANCH  15  16
ATOM     16  C   UNL     1       2.072   3.381  17.465  0.00  0.00    +0.000 C 
BRANCH  16  17
ATOM     17  C   UNL     1       1.639   3.637  18.927  0.00  0.00    +0.000 C 
ATOM     18  C   UNL     1       2.279   4.908  19.520  0.00  0.00    +0.000 C 
ATOM     19  C   UNL     1       1.890   5.113  20.982  0.00  0.00    +0.000 C 
ATOM     20  C   UNL     1       2.179   3.852  21.785  0.00  0.00    +0.000 C 
ATOM     21  C   UNL     1       1.519   2.635  21.142  0.00  0.00    +0.000 C 
ATOM     22  N   UNL     1       1.949   2.462  19.756  0.00  0.00    +0.000 NA
ATOM     23  H   UNL     1       1.486   1.641  19.365  0.00  0.00    +0.000 HD
ENDBRANCH  16  17
ENDBRANCH  15  16
ENDBRANCH  13  15
ENDBRANCH   3  13
TORSDOF 5
ENDMDL
MODEL 3
REMARK VINA RESULT:      -7.2      2.203      5.849
REMARK  Name = 
REMARK  6 active torsions:
REMARK  status: ('A' for Active; 'I' for Inactive)
REMARK    1  A    between atoms: C_1  and  O_2
REMARK    2  A    between atoms: O_2  and  C_3
REMARK    3  A    between atoms: C_5  and  N_6
REMARK    4  A    between atoms: N_6  and  C_7
REMARK    5  A    between atoms: C_7  and  C_8
REMARK    6  A    between atoms: C_8  and  C_9
REMARK                            x       y       z     vdW  Elec       q    Type
REMARK                         _______ _______ _______ _____ _____    ______ ____
ROOT
ATOM      1  C   UNL     1       5.937   5.442  16.026  0.00  0.00    +0.000 A 
ATOM      2  C   UNL     1       6.076   4.495  17.034  0.00  0.00    +0.000 A 
ATOM      3  C   UNL     1       5.268   4.524  18.187  0.00  0.00    +0.000 A 
ATOM      4  C   UNL     1       4.328   5.564  18.357  0.00  0.00    +0.000 A 
ATOM      5  N   UNL     1       3.539   5.605  19.458  0.00  0.00    +0.000 NA
ATOM      6  C   UNL     1       2.660   6.623  19.581  0.00  0.00    +0.000 A 
ATOM      7  C   UNL     1       2.508   7.631  18.651  0.00  0.00    +0.000 A 
ATOM      8  C   UNL     1       3.303   7.589  17.514  0.00  0.00    +0.000 A 
ATOM      9  C   UNL     1       4.225   6.547  17.344  0.00  0.00    +0.000 A 
ATOM     10  C   UNL     1       5.028   6.480  16.195  0.00  0.00    +0.000 A 
ENDROOT
BRANCH   1  12
ATOM     11  C   UNL     1       6.619   4.299  14.071  0.00  0.00    +0.000 C 
ATOM     12  O   UNL     1       6.672   5.477  14.872  0.00  0.00    +0.000 OA
ENDBRANCH   1  12
BRANCH   3  13
ATOM     13  N   UNL     1       5.475   3.601  19.258  0.00  0.00    +0.000 N 
ATOM     14  H   UNL     1       5.057   4.009  20.098  0.00  0.00    +0.000 HD
BRANCH  13  15
ATOM     15  C   UNL     1       5.125   2.206  19.010  0.00  0.00    +0.000 C 
BRANCH  15  16
ATOM     16  C   UNL     1       3.842   2.094  18.184  0.00  0.00    +0.000 C 
BRANCH  16  17
ATOM     17  C   UNL     1       2.555   2.194  19.034  0.00  0.00    +0.000 C 
ATOM     18  C   UNL     1       1.453   3.023  18.343  0.00  0.00    +0.000 C 
ATOM     19  C   UNL     1       0.212   3.165  19.221  0.00  0.00    +0.000 C 
ATOM     20  C   UNL     1       0.599   3.689  20.598  0.00  0.00    +0.000 C 
ATOM     21  C   UNL     1       1.693   2.826  21.221  0.00  0.00    +0.000 C 
ATOM     22  N   UNL     1       2.871   2.750  20.359  0.00  0.00    +0.000 NA
ATOM     23  H   UNL     1       3.575   2.165  20.811  0.00  0.00    +0.000 HD
ENDBRANCH  16  17
ENDBRANCH  15  16
ENDBRANCH  13  15
ENDBRANCH   3  13
TORSDOF 5
ENDMDL
MODEL 4
REMARK VINA RESULT:      -7.1      2.790      5.142
REMARK  Name = 
REMARK  6 active torsions:
REMARK  status: ('A' for Active; 'I' for Inactive)
REMARK    1  A    between atoms: C_1  and  O_2
REMARK    2  A    between atoms: O_2  and  C_3
REMARK    3  A    between atoms: C_5  and  N_6
REMARK    4  A    between atoms: N_6  and  C_7
REMARK    5  A    between atoms: C_7  and  C_8
REMARK    6  A    between atoms: C_8  and  C_9
REMARK                            x       y       z     vdW  Elec       q    Type
REMARK                         _______ _______ _______ _____ _____    ______ ____
ROOT
ATOM      1  C   UNL     1       2.509   8.176  17.959  0.00  0.00    +0.000 A 
ATOM      2  C   UNL     1       2.199   7.507  19.138  0.00  0.00    +0.000 A 
ATOM      3  C   UNL     1       2.983   6.433  19.602  0.00  0.00    +0.000 A 
ATOM      4  C   UNL     1       4.081   5.986  18.835  0.00  0.00    +0.000 A 
ATOM      5  N   UNL     1       4.849   4.957  19.269  0.00  0.00    +0.000 NA
ATOM      6  C   UNL     1       5.885   4.558  18.497  0.00  0.00    +0.000 A 
ATOM      7  C   UNL     1       6.216   5.135  17.288  0.00  0.00    +0.000 A 
ATOM      8  C   UNL     1       5.441   6.197  16.843  0.00  0.00    +0.000 A 
ATOM      9  C   UNL     1       4.362   6.647  17.616  0.00  0.00    +0.000 A 
ATOM     10  C   UNL     1       3.576   7.729  17.189  0.00  0.00    +0.000 A 
ENDROOT
BRANCH   1  12
ATOM     11  C   UNL     1       1.396  10.217  18.393  0.00  0.00    +0.000 C 
ATOM     12  O   UNL     1       1.807   9.233  17.447  0.00  0.00    +0.000 OA
ENDBRANCH   1  12
BRANCH   3  13
ATOM     13  N   UNL     1       2.609   5.694  20.767  0.00  0.00    +0.000 N 
ATOM     14  H   UNL     1       2.742   6.307  21.575  0.00  0.00    +0.000 HD
BRANCH  13  15
ATOM     15  C   UNL     1       1.329   4.995  20.726  0.00  0.00    +0.000 C 
BRANCH  15  16
ATOM     16  C   UNL     1       1.495   3.510  21.058  0.00  0.00    +0.000 C 
BRANCH  16  17
ATOM     17  C   UNL     1       1.923   2.656  19.843  0.00  0.00    +0.000 C 
ATOM     18  C   UNL     1       3.339   2.067  20.004  0.00  0.00    +0.000 C 
ATOM     19  C   UNL     1       3.771   1.277  18.770  0.00  0.00    +0.000 C 
ATOM     20  C   UNL     1       3.600   2.125  17.516  0.00  0.00    +0.000 C 
ATOM     21  C   UNL     1       2.179   2.676  17.422  0.00  0.00    +0.000 C 
ATOM     22  N   UNL     1       1.827   3.452  18.610  0.00  0.00    +0.000 NA
ATOM     23  H   UNL     1       0.873   3.801  18.506  0.00  0.00    +0.000 HD
ENDBRANCH  16  17
ENDBRANCH  15  16
ENDBRANCH  13  15
ENDBRANCH   3  13
TORSDOF 5
ENDMDL
MODEL 5
REMARK VINA RESULT:      -7.1      2.569      4.552
REMARK  Name = 
REMARK  6 active torsions:
REMARK  status: ('A' for Active; 'I' for Inactive)
REMARK    1  A    between atoms: C_1  and  O_2
REMARK    2  A    between atoms: O_2  and  C_3
REMARK    3  A    between atoms: C_5  and  N_6
REMARK    4  A    between atoms: N_6  and  C_7
REMARK    5  A    between atoms: C_7  and  C_8
REMARK    6  A    between atoms: C_8  and  C_9
REMARK                            x       y       z     vdW  Elec       q    Type
REMARK                         _______ _______ _______ _____ _____    ______ ____
ROOT
ATOM      1  C   UNL     1       2.474   4.600  20.580  0.00  0.00    +0.000 A 
ATOM      2  C   UNL     1       3.071   4.328  19.354  0.00  0.00    +0.000 A 
ATOM      3  C   UNL     1       3.211   5.322  18.367  0.00  0.00    +0.000 A 
ATOM      4  C   UNL     1       2.690   6.614  18.597  0.00  0.00    +0.000 A 
ATOM      5  N   UNL     1       2.819   7.585  17.659  0.00  0.00    +0.000 NA
ATOM      6  C   UNL     1       2.298   8.804  17.920  0.00  0.00    +0.000 A 
ATOM      7  C   UNL     1       1.640   9.130  19.089  0.00  0.00    +0.000 A 
ATOM      8  C   UNL     1       1.515   8.145  20.059  0.00  0.00    +0.000 A 
ATOM      9  C   UNL     1       2.046   6.869  19.831  0.00  0.00    +0.000 A 
ATOM     10  C   UNL     1       1.941   5.864  20.806  0.00  0.00    +0.000 A 
ENDROOT
BRANCH   1  12
ATOM     11  C   UNL     1       1.371   2.655  21.348  0.00  0.00    +0.000 C 
ATOM     12  O   UNL     1       2.312   3.696  21.594  0.00  0.00    +0.000 OA
ENDBRANCH   1  12
BRANCH   3  13
ATOM     13  N   UNL     1       3.746   5.014  17.077  0.00  0.00    +0.000 N 
ATOM     14  H   UNL     1       4.187   5.865  16.719  0.00  0.00    +0.000 HD
BRANCH  13  15
ATOM     15  C   UNL     1       4.555   3.805  16.966  0.00  0.00    +0.000 C 
BRANCH  15  16
ATOM     16  C   UNL     1       5.767   4.029  16.059  0.00  0.00    +0.000 C 
BRANCH  16  17
ATOM     17  C   UNL     1       6.855   4.920  16.699  0.00  0.00    +0.000 C 
ATOM     18  C   UNL     1       7.025   4.653  18.208  0.00  0.00    +0.000 C 
ATOM     19  C   UNL     1       8.060   5.583  18.838  0.00  0.00    +0.000 C 
ATOM     20  C   UNL     1       7.735   7.034  18.507  0.00  0.00    +0.000 C 
ATOM     21  C   UNL     1       7.578   7.225  17.000  0.00  0.00    +0.000 C 
ATOM     22  N   UNL     1       6.553   6.338  16.451  0.00  0.00    +0.000 NA
ATOM     23  H   UNL     1       6.481   6.498  15.446  0.00  0.00    +0.000 HD
ENDBRANCH  16  17
ENDBRANCH  15  16
ENDBRANCH  13  15
ENDBRANCH   3  13
TORSDOF 5
ENDMDL
MODEL 6
REMARK VINA RESULT:      -7.1      2.220      3.288
REMARK  Name = 
REMARK  6 active torsions:
REMARK  status: ('A' for Active; 'I' for Inactive)
REMARK    1  A    between atoms: C_1  and  O_2
REMARK    2  A    between atoms: O_2  and  C_3
REMARK    3  A    between atoms: C_5  and  N_6
REMARK    4  A    between atoms: N_6  and  C_7
REMARK    5  A    between atoms: C_7  and  C_8
REMARK    6  A    between atoms: C_8  and  C_9
REMARK                            x       y       z     vdW  Elec       q    Type
REMARK                         _______ _______ _______ _____ _____    ______ ____
ROOT
ATOM      1  C   UNL     1       2.238   6.770  19.292  0.00  0.00    +0.000 A 
ATOM      2  C   UNL     1       2.613   6.131  18.116  0.00  0.00    +0.000 A 
ATOM      3  C   UNL     1       2.640   4.727  18.017  0.00  0.00    +0.000 A 
ATOM      4  C   UNL     1       2.329   3.941  19.149  0.00  0.00    +0.000 A 
ATOM      5  N   UNL     1       2.345   2.587  19.071  0.00  0.00    +0.000 NA
ATOM      6  C   UNL     1       2.048   1.876  20.181  0.00  0.00    +0.000 A 
ATOM      7  C   UNL     1       1.724   2.441  21.398  0.00  0.00    +0.000 A 
ATOM      8  C   UNL     1       1.693   3.826  21.482  0.00  0.00    +0.000 A 
ATOM      9  C   UNL     1       1.989   4.602  20.353  0.00  0.00    +0.000 A 
ATOM     10  C   UNL     1       1.949   6.004  20.415  0.00  0.00    +0.000 A 
ENDROOT
BRANCH   1  12
ATOM     11  C   UNL     1       1.382   8.572  20.563  0.00  0.00    +0.000 C 
ATOM     12  O   UNL     1       2.174   8.126  19.465  0.00  0.00    +0.000 OA
ENDBRANCH   1  12
BRANCH   3  13
ATOM     13  N   UNL     1       3.111   4.077  16.835  0.00  0.00    +0.000 N 
ATOM     14  H   UNL     1       2.719   4.578  16.034  0.00  0.00    +0.000 HD
BRANCH  13  15
ATOM     15  C   UNL     1       4.543   3.806  16.753  0.00  0.00    +0.000 C 
BRANCH  15  16
ATOM     16  C   UNL     1       5.261   4.865  15.914  0.00  0.00    +0.000 C 
BRANCH  16  17
ATOM     17  C   UNL     1       6.530   5.427  16.593  0.00  0.00    +0.000 C 
ATOM     18  C   UNL     1       6.806   4.776  17.964  0.00  0.00    +0.000 C 
ATOM     19  C   UNL     1       8.027   5.385  18.649  0.00  0.00    +0.000 C 
ATOM     20  C   UNL     1       7.895   6.902  18.708  0.00  0.00    +0.000 C 
ATOM     21  C   UNL     1       7.621   7.478  17.322  0.00  0.00    +0.000 C 
ATOM     22  N   UNL     1       6.424   6.889  16.723  0.00  0.00    +0.000 NA
ATOM     23  H   UNL     1       6.279   7.301  15.801  0.00  0.00    +0.000 HD
ENDBRANCH  16  17
ENDBRANCH  15  16
ENDBRANCH  13  15
ENDBRANCH   3  13
TORSDOF 5
ENDMDL
MODEL 7
REMARK VINA RESULT:      -7.0      4.495      6.491
REMARK  Name = 
REMARK  6 active torsions:
REMARK  status: ('A' for Active; 'I' for Inactive)
REMARK    1  A    between atoms: C_1  and  O_2
REMARK    2  A    between atoms: O_2  and  C_3
REMARK    3  A    between atoms: C_5  and  N_6
REMARK    4  A    between atoms: N_6  and  C_7
REMARK    5  A    between atoms: C_7  and  C_8
REMARK    6  A    between atoms: C_8  and  C_9
REMARK                            x       y       z     vdW  Elec       q    Type
REMARK                         _______ _______ _______ _____ _____    ______ ____
ROOT
ATOM      1  C   UNL     1       5.352   5.054  18.507  0.00  0.00    +0.000 A 
ATOM      2  C   UNL     1       6.272   6.087  18.370  0.00  0.00    +0.000 A 
ATOM      3  C   UNL     1       6.940   6.320  17.153  0.00  0.00    +0.000 A 
ATOM      4  C   UNL     1       6.716   5.459  16.056  0.00  0.00    +0.000 A 
ATOM      5  N   UNL     1       7.348   5.671  14.875  0.00  0.00    +0.000 NA
ATOM      6  C   UNL     1       7.108   4.817  13.856  0.00  0.00    +0.000 A 
ATOM      7  C   UNL     1       6.254   3.736  13.937  0.00  0.00    +0.000 A 
ATOM      8  C   UNL     1       5.594   3.520  15.139  0.00  0.00    +0.000 A 
ATOM      9  C   UNL     1       5.810   4.385  16.220  0.00  0.00    +0.000 A 
ATOM     10  C   UNL     1       5.141   4.191  17.439  0.00  0.00    +0.000 A 
ENDROOT
BRANCH   1  12
ATOM     11  C   UNL     1       3.732   3.686  19.555  0.00  0.00    +0.000 C 
ATOM     12  O   UNL     1       4.653   4.770  19.649  0.00  0.00    +0.000 OA
ENDBRANCH   1  12
BRANCH   3  13
ATOM     13  N   UNL     1       7.949   7.327  17.043  0.00  0.00    +0.000 N 
ATOM     14  H   UNL     1       7.737   7.883  16.211  0.00  0.00    +0.000 HD
BRANCH  13  15
ATOM     15  C   UNL     1       8.245   8.103  18.244  0.00  0.00    +0.000 C 
BRANCH  15  16
ATOM     16  C   UNL     1       8.180   9.606  17.965  0.00  0.00    +0.000 C 
BRANCH  16  17
ATOM     17  C   UNL     1       9.387  10.387  18.532  0.00  0.00    +0.000 C 
ATOM     18  C   UNL     1       9.237  10.698  20.035  0.00  0.00    +0.000 C 
ATOM     19  C   UNL     1      10.407  11.523  20.566  0.00  0.00    +0.000 C 
ATOM     20  C   UNL     1      10.611  12.762  19.703  0.00  0.00    +0.000 C 
ATOM     21  C   UNL     1      10.748  12.382  18.231  0.00  0.00    +0.000 C 
ATOM     22  N   UNL     1       9.590  11.625  17.762  0.00  0.00    +0.000 NA
ATOM     23  H   UNL     1       9.722  11.393  16.778  0.00  0.00    +0.000 HD
ENDBRANCH  16  17
ENDBRANCH  15  16
ENDBRANCH  13  15
ENDBRANCH   3  13
TORSDOF 5
ENDMDL
MODEL 8
REMARK VINA RESULT:      -7.0      2.178      6.179
REMARK  Name = 
REMARK  6 active torsions:
REMARK  status: ('A' for Active; 'I' for Inactive)
REMARK    1  A    between atoms: C_1  and  O_2
REMARK    2  A    between atoms: O_2  and  C_3
REMARK    3  A    between atoms: C_5  and  N_6
REMARK    4  A    between atoms: N_6  and  C_7
REMARK    5  A    between atoms: C_7  and  C_8
REMARK    6  A    between atoms: C_8  and  C_9
REMARK                            x       y       z     vdW  Elec       q    Type
REMARK                         _______ _______ _______ _____ _____    ______ ____
ROOT
ATOM      1  C   UNL     1       5.717   4.518  14.865  0.00  0.00    +0.000 A 
ATOM      2  C   UNL     1       4.973   3.670  15.677  0.00  0.00    +0.000 A 
ATOM      3  C   UNL     1       5.073   3.720  17.081  0.00  0.00    +0.000 A 
ATOM      4  C   UNL     1       5.985   4.613  17.685  0.00  0.00    +0.000 A 
ATOM      5  N   UNL     1       6.092   4.678  19.035  0.00  0.00    +0.000 NA
ATOM      6  C   UNL     1       6.984   5.542  19.569  0.00  0.00    +0.000 A 
ATOM      7  C   UNL     1       7.798   6.372  18.824  0.00  0.00    +0.000 A 
ATOM      8  C   UNL     1       7.685   6.320  17.442  0.00  0.00    +0.000 A 
ATOM      9  C   UNL     1       6.769   5.442  16.848  0.00  0.00    +0.000 A 
ATOM     10  C   UNL     1       6.631   5.386  15.452  0.00  0.00    +0.000 A 
ENDROOT
BRANCH   1  12
ATOM     11  C   UNL     1       6.129   3.362  12.844  0.00  0.00    +0.000 C 
ATOM     12  O   UNL     1       5.668   4.541  13.498  0.00  0.00    +0.000 OA
ENDBRANCH   1  12
BRANCH   3  13
ATOM     13  N   UNL     1       4.373   2.788  17.907  0.00  0.00    +0.000 N 
ATOM     14  H   UNL     1       4.347   3.176  18.853  0.00  0.00    +0.000 HD
BRANCH  13  15
ATOM     15  C   UNL     1       3.094   2.290  17.409  0.00  0.00    +0.000 C 
BRANCH  15  16
ATOM     16  C   UNL     1       1.920   2.970  18.116  0.00  0.00    +0.000 C 
BRANCH  16  17
ATOM     17  C   UNL     1       2.344   4.170  18.992  0.00  0.00    +0.000 C 
ATOM     18  C   UNL     1       1.393   4.397  20.185  0.00  0.00    +0.000 C 
ATOM     19  C   UNL     1       1.791   5.623  21.005  0.00  0.00    +0.000 C 
ATOM     20  C   UNL     1       1.933   6.839  20.098  0.00  0.00    +0.000 C 
ATOM     21  C   UNL     1       2.884   6.544  18.940  0.00  0.00    +0.000 C 
ATOM     22  N   UNL     1       2.442   5.384  18.167  0.00  0.00    +0.000 NA
ATOM     23  H   UNL     1       3.103   5.223  17.406  0.00  0.00    +0.000 HD
ENDBRANCH  16  17
ENDBRANCH  15  16
ENDBRANCH  13  15
ENDBRANCH   3  13
TORSDOF 5
ENDMDL
MODEL 9
REMARK VINA RESULT:      -7.0      3.202      6.793
REMARK  Name = 
REMARK  6 active torsions:
REMARK  status: ('A' for Active; 'I' for Inactive)
REMARK    1  A    between atoms: C_1  and  O_2
REMARK    2  A    between atoms: O_2  and  C_3
REMARK    3  A    between atoms: C_5  and  N_6
REMARK    4  A    between atoms: N_6  and  C_7
REMARK    5  A    between atoms: C_7  and  C_8
REMARK    6  A    between atoms: C_8  and  C_9
REMARK                            x       y       z     vdW  Elec       q    Type
REMARK                         _______ _______ _______ _____ _____    ______ ____
ROOT
ATOM      1  C   UNL     1       4.838   5.289  16.640  0.00  0.00    +0.000 A 
ATOM      2  C   UNL     1       4.237   6.329  17.341  0.00  0.00    +0.000 A 
ATOM      3  C   UNL     1       3.152   6.100  18.209  0.00  0.00    +0.000 A 
ATOM      4  C   UNL     1       2.623   4.797  18.338  0.00  0.00    +0.000 A 
ATOM      5  N   UNL     1       1.581   4.558  19.173  0.00  0.00    +0.000 NA
ATOM      6  C   UNL     1       1.103   3.297  19.258  0.00  0.00    +0.000 A 
ATOM      7  C   UNL     1       1.610   2.228  18.549  0.00  0.00    +0.000 A 
ATOM      8  C   UNL     1       2.684   2.462  17.702  0.00  0.00    +0.000 A 
ATOM      9  C   UNL     1       3.215   3.754  17.588  0.00  0.00    +0.000 A 
ATOM     10  C   UNL     1       4.310   4.008  16.748  0.00  0.00    +0.000 A 
ENDROOT
BRANCH   1  12
ATOM     11  C   UNL     1       6.380   4.219  15.201  0.00  0.00    +0.000 C 
ATOM     12  O   UNL     1       5.902   5.426  15.789  0.00  0.00    +0.000 OA
ENDBRANCH   1  12
BRANCH   3  13
ATOM     13  N   UNL     1       2.483   7.184  18.858  0.00  0.00    +0.000 N 
ATOM     14  H   UNL     1       2.769   7.176  19.840  0.00  0.00    +0.000 HD
BRANCH  13  15
ATOM     15  C   UNL     1       2.548   8.488  18.207  0.00  0.00    +0.000 C 
BRANCH  15  16
ATOM     16  C   UNL     1       1.171   8.926  17.702  0.00  0.00    +0.000 C 
BRANCH  16  17
ATOM     17  C   UNL     1       0.597  10.141  18.466  0.00  0.00    +0.000 C 
ATOM     18  C   UNL     1      -0.911  10.341  18.210  0.00  0.00    +0.000 C 
ATOM     19  C   UNL     1      -1.450  11.581  18.922  0.00  0.00    +0.000 C 
ATOM     20  C   UNL     1      -0.604  12.798  18.571  0.00  0.00    +0.000 C 
ATOM     21  C   UNL     1       0.874  12.530  18.846  0.00  0.00    +0.000 C 
ATOM     22  N   UNL     1       1.350  11.356  18.116  0.00  0.00    +0.000 NA
ATOM     23  H   UNL     1       2.338  11.213  18.327  0.00  0.00    +0.000 HD
ENDBRANCH  16  17
ENDBRANCH  15  16
ENDBRANCH  13  15
ENDBRANCH   3  13
TORSDOF 5
ENDMDL
