MODEL 1
REMARK VINA RESULT:      -6.5      0.000      0.000
REMARK  Name = 
REMARK  3 active torsions:
REMARK  status: ('A' for Active; 'I' for Inactive)
REMARK    1  A    between atoms: C_4  and  C_5
REMARK    2  A    between atoms: C_11  and  C_12
REMARK    3  A    between atoms: C_24  and  N_25
REMARK                            x       y       z     vdW  Elec       q    Type
REMARK                         _______ _______ _______ _____ _____    ______ ____
ROOT
ATOM      1  O   UNL     1      -2.904  14.680  20.337  0.00  0.00    +0.000 OA
ATOM      2  S   UNL     1      -3.234  13.353  20.848  0.00  0.00    +0.000 S 
ATOM      3  O   UNL     1      -2.680  12.888  22.110  0.00  0.00    +0.000 OA
ATOM      4  C   UNL     1      -2.832  12.180  19.670  0.00  0.00    +0.000 C 
ATOM      5  C   UNL     1      -3.887  11.666  19.036  0.00  0.00    +0.000 C 
ATOM      6  C   UNL     1      -5.231  11.839  19.761  0.00  0.00    +0.000 C 
ATOM      7  C   UNL     1      -6.356  12.272  18.720  0.00  0.00    +0.000 C 
ATOM      8  C   UNL     1      -7.814  12.232  19.296  0.00  0.00    +0.000 C 
ATOM      9  C   UNL     1      -7.877  13.545  20.143  0.00  0.00    +0.000 C 
ATOM     10  C   UNL     1      -6.316  13.882  20.218  0.00  0.00    +0.000 C 
ATOM     11  C   UNL     1      -6.090  13.757  18.714  0.00  0.00    +0.000 C 
ATOM     12  C   UNL     1      -5.067  13.129  20.889  0.00  0.00    +0.000 C 
ENDROOT
BRANCH   4  13
ATOM     13  C   UNL     1      -1.407  11.825  19.600  0.00  0.00    +0.000 A 
ATOM     14  C   UNL     1      -0.854  10.719  20.240  0.00  0.00    +0.000 A 
ATOM     15  C   UNL     1       0.509  10.434  20.121  0.00  0.00    +0.000 A 
ATOM     16  C   UNL     1       1.341  11.245  19.359  0.00  0.00    +0.000 A 
ATOM     17  C   UNL     1       0.808  12.353  18.707  0.00  0.00    +0.000 A 
ATOM     18  C   UNL     1      -0.552  12.645  18.835  0.00  0.00    +0.000 A 
ENDBRANCH   4  13
BRANCH   5  19
ATOM     19  C   UNL     1      -3.647  11.002  17.741  0.00  0.00    +0.000 A 
ATOM     20  C   UNL     1      -3.022   9.759  17.655  0.00  0.00    +0.000 A 
ATOM     21  C   UNL     1      -2.606   9.262  16.419  0.00  0.00    +0.000 A 
ATOM     22  C   UNL     1      -2.820   9.986  15.240  0.00  0.00    +0.000 A 
ATOM     23  C   UNL     1      -3.474  11.210  15.292  0.00  0.00    +0.000 A 
ATOM     24  C   UNL     1      -3.882  11.717  16.533  0.00  0.00    +0.000 A 
ENDBRANCH   5  19
BRANCH  12  25
ATOM     25  N   UNL     1      -5.595  13.664  22.247  0.00  0.00    +0.000 NA
ATOM     26  C   UNL     1      -6.598  12.732  22.836  0.00  0.00    +0.000 C 
ATOM     27  C   UNL     1      -7.084  13.136  24.215  0.00  0.00    +0.000 C 
ATOM     28  C   UNL     1      -7.601  14.555  24.129  0.00  0.00    +0.000 C 
ATOM     29  C   UNL     1      -6.437  15.464  23.745  0.00  0.00    +0.000 C 
ATOM     30  C   UNL     1      -5.800  15.084  22.397  0.00  0.00    +0.000 C 
ENDBRANCH  12  25
TORSDOF 3
ENDMDL
MODEL 2
REMARK VINA RESULT:      -6.5      0.679      1.389
REMARK  Name = 
REMARK  3 active torsions:
REMARK  status: ('A' for Active; 'I' for Inactive)
REMARK    1  A    between atoms: C_4  and  C_5
REMARK    2  A    between atoms: C_11  and  C_12
REMARK    3  A    between atoms: C_24  and  N_25
REMARK                            x       y       z     vdW  Elec       q    Type
REMARK                         _______ _______ _______ _____ _____    ______ ____
ROOT
ATOM      1  O   UNL     1      -3.232  15.232  20.487  0.00  0.00    +0.000 OA
ATOM      2  S   UNL     1      -3.320  13.880  21.028  0.00  0.00    +0.000 S 
ATOM      3  O   UNL     1      -2.716  13.557  22.311  0.00  0.00    +0.000 OA
ATOM      4  C   UNL     1      -2.683  12.775  19.889  0.00  0.00    +0.000 C 
ATOM      5  C   UNL     1      -3.610  12.058  19.252  0.00  0.00    +0.000 C 
ATOM      6  C   UNL     1      -4.978  11.995  19.950  0.00  0.00    +0.000 C 
ATOM      7  C   UNL     1      -6.142  12.185  18.880  0.00  0.00    +0.000 C 
ATOM      8  C   UNL     1      -7.578  11.888  19.433  0.00  0.00    +0.000 C 
ATOM      9  C   UNL     1      -7.902  13.186  20.243  0.00  0.00    +0.000 C 
ATOM     10  C   UNL     1      -6.432  13.810  20.334  0.00  0.00    +0.000 C 
ATOM     11  C   UNL     1      -6.156  13.693  18.838  0.00  0.00    +0.000 C 
ATOM     12  C   UNL     1      -5.080  13.319  21.045  0.00  0.00    +0.000 C 
ENDROOT
BRANCH   4  13
ATOM     13  C   UNL     1      -1.215  12.690  19.852  0.00  0.00    +0.000 A 
ATOM     14  C   UNL     1      -0.412  13.513  19.067  0.00  0.00    +0.000 A 
ATOM     15  C   UNL     1       0.979  13.386  19.091  0.00  0.00    +0.000 A 
ATOM     16  C   UNL     1       1.592  12.437  19.900  0.00  0.00    +0.000 A 
ATOM     17  C   UNL     1       0.809  11.608  20.697  0.00  0.00    +0.000 A 
ATOM     18  C   UNL     1      -0.582  11.727  20.665  0.00  0.00    +0.000 A 
ENDBRANCH   4  13
BRANCH   5  19
ATOM     19  C   UNL     1      -3.224  11.420  17.980  0.00  0.00    +0.000 A 
ATOM     20  C   UNL     1      -3.913  11.666  16.793  0.00  0.00    +0.000 A 
ATOM     21  C   UNL     1      -3.673  10.885  15.662  0.00  0.00    +0.000 A 
ATOM     22  C   UNL     1      -2.727   9.852  15.685  0.00  0.00    +0.000 A 
ATOM     23  C   UNL     1      -1.999   9.610  16.843  0.00  0.00    +0.000 A 
ATOM     24  C   UNL     1      -2.247  10.385  17.983  0.00  0.00    +0.000 A 
ENDBRANCH   5  19
BRANCH  12  25
ATOM     25  N   UNL     1      -5.726  13.778  22.380  0.00  0.00    +0.000 NA
ATOM     26  C   UNL     1      -6.530  12.681  22.991  0.00  0.00    +0.000 C 
ATOM     27  C   UNL     1      -7.109  13.022  24.351  0.00  0.00    +0.000 C 
ATOM     28  C   UNL     1      -7.901  14.303  24.212  0.00  0.00    +0.000 C 
ATOM     29  C   UNL     1      -6.939  15.416  23.808  0.00  0.00    +0.000 C 
ATOM     30  C   UNL     1      -6.217  15.131  22.479  0.00  0.00    +0.000 C 
ENDBRANCH  12  25
TORSDOF 3
ENDMDL
MODEL 3
REMARK VINA RESULT:      -6.3      3.580      4.926
REMARK  Name = 
REMARK  3 active torsions:
REMARK  status: ('A' for Active; 'I' for Inactive)
REMARK    1  A    between atoms: C_4  and  C_5
REMARK    2  A    between atoms: C_11  and  C_12
REMARK    3  A    between atoms: C_24  and  N_25
REMARK                            x       y       z     vdW  Elec       q    Type
REMARK                         _______ _______ _______ _____ _____    ______ ____
ROOT
ATOM      1  O   UNL     1      -1.115  16.357  21.324  0.00  0.00    +0.000 OA
ATOM      2  S   UNL     1      -0.385  15.504  22.256  0.00  0.00    +0.000 S 
ATOM      3  O   UNL     1       0.742  16.030  23.012  0.00  0.00    +0.000 OA
ATOM      4  C   UNL     1       0.179  14.118  21.428  0.00  0.00    +0.000 C 
ATOM      5  C   UNL     1      -0.505  13.006  21.706  0.00  0.00    +0.000 C 
ATOM      6  C   UNL     1      -1.319  13.050  23.009  0.00  0.00    +0.000 C 
ATOM      7  C   UNL     1      -2.760  12.415  22.769  0.00  0.00    +0.000 C 
ATOM      8  C   UNL     1      -3.583  12.175  24.081  0.00  0.00    +0.000 C 
ATOM      9  C   UNL     1      -4.103  13.610  24.419  0.00  0.00    +0.000 C 
ATOM     10  C   UNL     1      -3.148  14.466  23.463  0.00  0.00    +0.000 C 
ATOM     11  C   UNL     1      -3.449  13.639  22.217  0.00  0.00    +0.000 C 
ATOM     12  C   UNL     1      -1.561  14.700  23.433  0.00  0.00    +0.000 C 
ENDROOT
BRANCH   4  13
ATOM     13  C   UNL     1       1.393  14.319  20.624  0.00  0.00    +0.000 A 
ATOM     14  C   UNL     1       2.681  14.075  21.094  0.00  0.00    +0.000 A 
ATOM     15  C   UNL     1       3.791  14.276  20.271  0.00  0.00    +0.000 A 
ATOM     16  C   UNL     1       3.635  14.721  18.963  0.00  0.00    +0.000 A 
ATOM     17  C   UNL     1       2.357  14.966  18.471  0.00  0.00    +0.000 A 
ATOM     18  C   UNL     1       1.247  14.775  19.298  0.00  0.00    +0.000 A 
ENDBRANCH   4  13
BRANCH   5  19
ATOM     19  C   UNL     1      -0.402  11.887  20.751  0.00  0.00    +0.000 A 
ATOM     20  C   UNL     1       0.555  10.883  20.893  0.00  0.00    +0.000 A 
ATOM     21  C   UNL     1       0.777   9.969  19.863  0.00  0.00    +0.000 A 
ATOM     22  C   UNL     1       0.039  10.025  18.675  0.00  0.00    +0.000 A 
ATOM     23  C   UNL     1      -0.946  10.992  18.521  0.00  0.00    +0.000 A 
ATOM     24  C   UNL     1      -1.164  11.918  19.549  0.00  0.00    +0.000 A 
ENDBRANCH   5  19
BRANCH  12  25
ATOM     25  N   UNL     1      -1.773  15.653  24.639  0.00  0.00    +0.000 NA
ATOM     26  C   UNL     1      -2.413  16.929  24.208  0.00  0.00    +0.000 C 
ATOM     27  C   UNL     1      -2.746  17.871  25.349  0.00  0.00    +0.000 C 
ATOM     28  C   UNL     1      -1.481  18.105  26.144  0.00  0.00    +0.000 C 
ATOM     29  C   UNL     1      -1.039  16.771  26.738  0.00  0.00    +0.000 C 
ATOM     30  C   UNL     1      -0.762  15.701  25.667  0.00  0.00    +0.000 C 
ENDBRANCH  12  25
TORSDOF 3
ENDMDL
MODEL 4
REMARK VINA RESULT:      -6.3     12.150     13.870
REMARK  Name = 
REMARK  3 active torsions:
REMARK  status: ('A' for Active; 'I' for Inactive)
REMARK    1  A    between atoms: C_4  and  C_5
REMARK    2  A    between atoms: C_11  and  C_12
REMARK    3  A    between atoms: C_24  and  N_25
REMARK                            x       y       z     vdW  Elec       q    Type
REMARK                         _______ _______ _______ _____ _____    ______ ____
ROOT
ATOM      1  O   UNL     1       7.329  16.389  21.061  0.00  0.00    +0.000 OA
ATOM      2  S   UNL     1       8.632  16.175  21.682  0.00  0.00    +0.000 S 
ATOM      3  O   UNL     1       9.459  17.306  22.073  0.00  0.00    +0.000 OA
ATOM      4  C   UNL     1       9.588  15.192  20.660  0.00  0.00    +0.000 C 
ATOM      5  C   UNL     1       9.720  13.935  21.087  0.00  0.00    +0.000 C 
ATOM      6  C   UNL     1       9.422  13.718  22.579  0.00  0.00    +0.000 C 
ATOM      7  C   UNL     1       8.550  12.399  22.771  0.00  0.00    +0.000 C 
ATOM      8  C   UNL     1       8.398  11.941  24.262  0.00  0.00    +0.000 C 
ATOM      9  C   UNL     1       7.311  12.923  24.808  0.00  0.00    +0.000 C 
ATOM     10  C   UNL     1       7.338  14.016  23.641  0.00  0.00    +0.000 C 
ATOM     11  C   UNL     1       7.188  12.998  22.515  0.00  0.00    +0.000 C 
ATOM     12  C   UNL     1       8.464  15.038  23.129  0.00  0.00    +0.000 C 
ENDROOT
BRANCH   4  13
ATOM     13  C   UNL     1      10.216  15.890  19.529  0.00  0.00    +0.000 A 
ATOM     14  C   UNL     1       9.531  16.267  18.376  0.00  0.00    +0.000 A 
ATOM     15  C   UNL     1      10.189  16.939  17.344  0.00  0.00    +0.000 A 
ATOM     16  C   UNL     1      11.540  17.249  17.444  0.00  0.00    +0.000 A 
ATOM     17  C   UNL     1      12.242  16.887  18.589  0.00  0.00    +0.000 A 
ATOM     18  C   UNL     1      11.588  16.204  19.617  0.00  0.00    +0.000 A 
ENDBRANCH   4  13
BRANCH   5  19
ATOM     19  C   UNL     1      10.132  12.920  20.099  0.00  0.00    +0.000 A 
ATOM     20  C   UNL     1      11.434  12.425  20.050  0.00  0.00    +0.000 A 
ATOM     21  C   UNL     1      11.852  11.642  18.973  0.00  0.00    +0.000 A 
ATOM     22  C   UNL     1      10.974  11.322  17.930  0.00  0.00    +0.000 A 
ATOM     23  C   UNL     1       9.661  11.771  17.971  0.00  0.00    +0.000 A 
ATOM     24  C   UNL     1       9.242  12.567  19.046  0.00  0.00    +0.000 A 
ENDBRANCH   5  19
BRANCH  12  25
ATOM     25  N   UNL     1       8.128  15.889  24.383  0.00  0.00    +0.000 NA
ATOM     26  C   UNL     1       9.065  15.588  25.502  0.00  0.00    +0.000 C 
ATOM     27  C   UNL     1       8.864  16.457  26.729  0.00  0.00    +0.000 C 
ATOM     28  C   UNL     1       7.416  16.341  27.149  0.00  0.00    +0.000 C 
ATOM     29  C   UNL     1       6.548  16.894  26.022  0.00  0.00    +0.000 C 
ATOM     30  C   UNL     1       6.742  16.144  24.693  0.00  0.00    +0.000 C 
ENDBRANCH  12  25
TORSDOF 3
ENDMDL
MODEL 5
REMARK VINA RESULT:      -6.3      3.996      7.236
REMARK  Name = 
REMARK  3 active torsions:
REMARK  status: ('A' for Active; 'I' for Inactive)
REMARK    1  A    between atoms: C_4  and  C_5
REMARK    2  A    between atoms: C_11  and  C_12
REMARK    3  A    between atoms: C_24  and  N_25
REMARK                            x       y       z     vdW  Elec       q    Type
REMARK                         _______ _______ _______ _____ _____    ______ ____
ROOT
ATOM      1  O   UNL     1       1.595  12.832  18.860  0.00  0.00    +0.000 OA
ATOM      2  S   UNL     1       1.475  13.331  20.226  0.00  0.00    +0.000 S 
ATOM      3  O   UNL     1       2.445  12.947  21.241  0.00  0.00    +0.000 OA
ATOM      4  C   UNL     1      -0.070  12.929  20.840  0.00  0.00    +0.000 C 
ATOM      5  C   UNL     1      -0.911  13.962  20.907  0.00  0.00    +0.000 C 
ATOM      6  C   UNL     1      -0.247  15.347  20.886  0.00  0.00    +0.000 C 
ATOM      7  C   UNL     1      -1.057  16.322  19.922  0.00  0.00    +0.000 C 
ATOM      8  C   UNL     1      -0.622  17.825  20.016  0.00  0.00    +0.000 C 
ATOM      9  C   UNL     1       0.699  17.847  19.180  0.00  0.00    +0.000 C 
ATOM     10  C   UNL     1       0.985  16.276  19.103  0.00  0.00    +0.000 C 
ATOM     11  C   UNL     1      -0.416  15.919  18.616  0.00  0.00    +0.000 C 
ATOM     12  C   UNL     1       1.330  15.173  20.217  0.00  0.00    +0.000 C 
ENDROOT
BRANCH   4  13
ATOM     13  C   UNL     1      -0.216  11.543  21.308  0.00  0.00    +0.000 A 
ATOM     14  C   UNL     1       0.014  10.427  20.507  0.00  0.00    +0.000 A 
ATOM     15  C   UNL     1      -0.132   9.137  21.022  0.00  0.00    +0.000 A 
ATOM     16  C   UNL     1      -0.507   8.938  22.345  0.00  0.00    +0.000 A 
ATOM     17  C   UNL     1      -0.736  10.038  23.165  0.00  0.00    +0.000 A 
ATOM     18  C   UNL     1      -0.601  11.329  22.648  0.00  0.00    +0.000 A 
ENDBRANCH   4  13
BRANCH   5  19
ATOM     19  C   UNL     1      -2.353  13.661  20.993  0.00  0.00    +0.000 A 
ATOM     20  C   UNL     1      -3.089  13.908  22.151  0.00  0.00    +0.000 A 
ATOM     21  C   UNL     1      -4.385  13.410  22.283  0.00  0.00    +0.000 A 
ATOM     22  C   UNL     1      -4.983  12.668  21.256  0.00  0.00    +0.000 A 
ATOM     23  C   UNL     1      -4.286  12.438  20.077  0.00  0.00    +0.000 A 
ATOM     24  C   UNL     1      -2.980  12.928  19.946  0.00  0.00    +0.000 A 
ENDBRANCH   5  19
BRANCH  12  25
ATOM     25  N   UNL     1       2.759  15.776  20.237  0.00  0.00    +0.000 NA
ATOM     26  C   UNL     1       3.533  15.359  19.032  0.00  0.00    +0.000 C 
ATOM     27  C   UNL     1       4.907  15.994  18.929  0.00  0.00    +0.000 C 
ATOM     28  C   UNL     1       5.650  15.707  20.214  0.00  0.00    +0.000 C 
ATOM     29  C   UNL     1       4.897  16.378  21.359  0.00  0.00    +0.000 C 
ATOM     30  C   UNL     1       3.449  15.877  21.499  0.00  0.00    +0.000 C 
ENDBRANCH  12  25
TORSDOF 3
ENDMDL
MODEL 6
REMARK VINA RESULT:      -6.2      3.338      4.551
REMARK  Name = 
REMARK  3 active torsions:
REMARK  status: ('A' for Active; 'I' for Inactive)
REMARK    1  A    between atoms: C_4  and  C_5
REMARK    2  A    between atoms: C_11  and  C_12
REMARK    3  A    between atoms: C_24  and  N_25
REMARK                            x       y       z     vdW  Elec       q    Type
REMARK                         _______ _______ _______ _____ _____    ______ ____
ROOT
ATOM      1  O   UNL     1      -2.218  15.395  20.176  0.00  0.00    +0.000 OA
ATOM      2  S   UNL     1      -1.527  15.278  21.456  0.00  0.00    +0.000 S 
ATOM      3  O   UNL     1      -0.662  16.348  21.930  0.00  0.00    +0.000 OA
ATOM      4  C   UNL     1      -0.591  13.846  21.462  0.00  0.00    +0.000 C 
ATOM      5  C   UNL     1      -1.108  12.865  22.204  0.00  0.00    +0.000 C 
ATOM      6  C   UNL     1      -2.135  13.314  23.255  0.00  0.00    +0.000 C 
ATOM      7  C   UNL     1      -3.377  12.316  23.260  0.00  0.00    +0.000 C 
ATOM      8  C   UNL     1      -4.364  12.527  24.459  0.00  0.00    +0.000 C 
ATOM      9  C   UNL     1      -5.180  13.782  24.007  0.00  0.00    +0.000 C 
ATOM     10  C   UNL     1      -4.235  14.294  22.823  0.00  0.00    +0.000 C 
ATOM     11  C   UNL     1      -4.160  12.937  22.130  0.00  0.00    +0.000 C 
ATOM     12  C   UNL     1      -2.734  14.860  22.791  0.00  0.00    +0.000 C 
ENDROOT
BRANCH   4  13
ATOM     13  C   UNL     1       0.692  13.934  20.750  0.00  0.00    +0.000 A 
ATOM     14  C   UNL     1       1.926  14.026  21.389  0.00  0.00    +0.000 A 
ATOM     15  C   UNL     1       3.109  14.093  20.649  0.00  0.00    +0.000 A 
ATOM     16  C   UNL     1       3.082  14.068  19.260  0.00  0.00    +0.000 A 
ATOM     17  C   UNL     1       1.860  13.972  18.601  0.00  0.00    +0.000 A 
ATOM     18  C   UNL     1       0.676  13.915  19.340  0.00  0.00    +0.000 A 
ENDBRANCH   4  13
BRANCH   5  19
ATOM     19  C   UNL     1      -0.642  11.492  21.936  0.00  0.00    +0.000 A 
ATOM     20  C   UNL     1      -0.551  10.984  20.640  0.00  0.00    +0.000 A 
ATOM     21  C   UNL     1      -0.328   9.623  20.429  0.00  0.00    +0.000 A 
ATOM     22  C   UNL     1      -0.173   8.741  21.506  0.00  0.00    +0.000 A 
ATOM     23  C   UNL     1      -0.222   9.225  22.807  0.00  0.00    +0.000 A 
ATOM     24  C   UNL     1      -0.458  10.590  23.021  0.00  0.00    +0.000 A 
ENDBRANCH   5  19
BRANCH  12  25
ATOM     25  N   UNL     1      -3.320  16.183  23.352  0.00  0.00    +0.000 NA
ATOM     26  C   UNL     1      -3.087  16.291  24.820  0.00  0.00    +0.000 C 
ATOM     27  C   UNL     1      -3.542  17.607  25.423  0.00  0.00    +0.000 C 
ATOM     28  C   UNL     1      -4.995  17.809  25.058  0.00  0.00    +0.000 C 
ATOM     29  C   UNL     1      -5.093  17.919  23.539  0.00  0.00    +0.000 C 
ATOM     30  C   UNL     1      -4.567  16.668  22.813  0.00  0.00    +0.000 C 
ENDBRANCH  12  25
TORSDOF 3
ENDMDL
MODEL 7
REMARK VINA RESULT:      -6.2      3.474      7.141
REMARK  Name = 
REMARK  3 active torsions:
REMARK  status: ('A' for Active; 'I' for Inactive)
REMARK    1  A    between atoms: C_4  and  C_5
REMARK    2  A    between atoms: C_11  and  C_12
REMARK    3  A    between atoms: C_24  and  N_25
REMARK                            x       y       z     vdW  Elec       q    Type
REMARK                         _______ _______ _______ _____ _____    ______ ____
ROOT
ATOM      1  O   UNL     1      -0.460  15.777  22.764  0.00  0.00    +0.000 OA
ATOM      2  S   UNL     1      -1.128  15.309  21.554  0.00  0.00    +0.000 S 
ATOM      3  O   UNL     1      -2.315  15.988  21.056  0.00  0.00    +0.000 OA
ATOM      4  C   UNL     1      -1.544  13.661  21.742  0.00  0.00    +0.000 C 
ATOM      5  C   UNL     1      -0.767  12.825  21.051  0.00  0.00    +0.000 C 
ATOM      6  C   UNL     1       0.011  13.466  19.891  0.00  0.00    +0.000 C 
ATOM      7  C   UNL     1       1.509  12.925  19.879  0.00  0.00    +0.000 C 
ATOM      8  C   UNL     1       2.321  13.313  18.596  0.00  0.00    +0.000 C 
ATOM      9  C   UNL     1       2.700  14.804  18.875  0.00  0.00    +0.000 C 
ATOM     10  C   UNL     1       1.692  15.108  20.078  0.00  0.00    +0.000 C 
ATOM     11  C   UNL     1       2.094  13.880  20.890  0.00  0.00    +0.000 C 
ATOM     12  C   UNL     1       0.091  15.162  20.174  0.00  0.00    +0.000 C 
ENDROOT
BRANCH   4  13
ATOM     13  C   UNL     1      -2.754  13.407  22.538  0.00  0.00    +0.000 A 
ATOM     14  C   UNL     1      -2.825  13.586  23.917  0.00  0.00    +0.000 A 
ATOM     15  C   UNL     1      -4.012  13.337  24.608  0.00  0.00    +0.000 A 
ATOM     16  C   UNL     1      -5.150  12.908  23.936  0.00  0.00    +0.000 A 
ATOM     17  C   UNL     1      -5.103  12.727  22.557  0.00  0.00    +0.000 A 
ATOM     18  C   UNL     1      -3.913  12.965  21.867  0.00  0.00    +0.000 A 
ENDBRANCH   4  13
BRANCH   5  19
ATOM     19  C   UNL     1      -0.746  11.411  21.471  0.00  0.00    +0.000 A 
ATOM     20  C   UNL     1      -0.681  11.042  22.814  0.00  0.00    +0.000 A 
ATOM     21  C   UNL     1      -0.436   9.716  23.171  0.00  0.00    +0.000 A 
ATOM     22  C   UNL     1      -0.267   8.725  22.195  0.00  0.00    +0.000 A 
ATOM     23  C   UNL     1      -0.364   9.057  20.851  0.00  0.00    +0.000 A 
ATOM     24  C   UNL     1      -0.598  10.391  20.490  0.00  0.00    +0.000 A 
ENDBRANCH   5  19
BRANCH  12  25
ATOM     25  N   UNL     1       0.188  16.536  19.459  0.00  0.00    +0.000 NA
ATOM     26  C   UNL     1      -0.366  16.459  18.076  0.00  0.00    +0.000 C 
ATOM     27  C   UNL     1      -0.400  17.791  17.349  0.00  0.00    +0.000 C 
ATOM     28  C   UNL     1       0.996  18.372  17.376  0.00  0.00    +0.000 C 
ATOM     29  C   UNL     1       1.376  18.630  18.831  0.00  0.00    +0.000 C 
ATOM     30  C   UNL     1       1.352  17.355  19.692  0.00  0.00    +0.000 C 
ENDBRANCH  12  25
TORSDOF 3
ENDMDL
MODEL 8
REMARK VINA RESULT:      -6.2     11.971     13.711
REMARK  Name = 
REMARK  3 active torsions:
REMARK  status: ('A' for Active; 'I' for Inactive)
REMARK    1  A    between atoms: C_4  and  C_5
REMARK    2  A    between atoms: C_11  and  C_12
REMARK    3  A    between atoms: C_24  and  N_25
REMARK                            x       y       z     vdW  Elec       q    Type
REMARK                         _______ _______ _______ _____ _____    ______ ____
ROOT
ATOM      1  O   UNL     1       7.148  16.139  21.026  0.00  0.00    +0.000 OA
ATOM      2  S   UNL     1       8.436  15.988  21.696  0.00  0.00    +0.000 S 
ATOM      3  O   UNL     1       9.195  17.158  22.112  0.00  0.00    +0.000 OA
ATOM      4  C   UNL     1       9.474  15.048  20.714  0.00  0.00    +0.000 C 
ATOM      5  C   UNL     1       9.650  13.800  21.152  0.00  0.00    +0.000 C 
ATOM      6  C   UNL     1       9.307  13.574  22.633  0.00  0.00    +0.000 C 
ATOM      7  C   UNL     1       8.491  12.215  22.798  0.00  0.00    +0.000 C 
ATOM      8  C   UNL     1       8.306  11.755  24.285  0.00  0.00    +0.000 C 
ATOM      9  C   UNL     1       7.155  12.686  24.786  0.00  0.00    +0.000 C 
ATOM     10  C   UNL     1       7.173  13.776  23.616  0.00  0.00    +0.000 C 
ATOM     11  C   UNL     1       7.113  12.749  22.490  0.00  0.00    +0.000 C 
ATOM     12  C   UNL     1       8.268  14.849  23.141  0.00  0.00    +0.000 C 
ENDROOT
BRANCH   4  13
ATOM     13  C   UNL     1      10.110  15.771  19.603  0.00  0.00    +0.000 A 
ATOM     14  C   UNL     1      11.420  16.240  19.635  0.00  0.00    +0.000 A 
ATOM     15  C   UNL     1      11.965  16.910  18.537  0.00  0.00    +0.000 A 
ATOM     16  C   UNL     1      11.213  17.120  17.388  0.00  0.00    +0.000 A 
ATOM     17  C   UNL     1       9.903  16.655  17.332  0.00  0.00    +0.000 A 
ATOM     18  C   UNL     1       9.354  15.995  18.434  0.00  0.00    +0.000 A 
ENDBRANCH   4  13
BRANCH   5  19
ATOM     19  C   UNL     1      10.144  12.802  20.184  0.00  0.00    +0.000 A 
ATOM     20  C   UNL     1      11.490  12.441  20.121  0.00  0.00    +0.000 A 
ATOM     21  C   UNL     1      11.965  11.673  19.058  0.00  0.00    +0.000 A 
ATOM     22  C   UNL     1      11.105  11.233  18.043  0.00  0.00    +0.000 A 
ATOM     23  C   UNL     1       9.754  11.547  18.100  0.00  0.00    +0.000 A 
ATOM     24  C   UNL     1       9.276  12.329  19.161  0.00  0.00    +0.000 A 
ENDBRANCH   5  19
BRANCH  12  25
ATOM     25  N   UNL     1       7.846  15.687  24.377  0.00  0.00    +0.000 NA
ATOM     26  C   UNL     1       6.553  16.388  24.132  0.00  0.00    +0.000 C 
ATOM     27  C   UNL     1       6.023  17.147  25.335  0.00  0.00    +0.000 C 
ATOM     28  C   UNL     1       7.107  18.091  25.804  0.00  0.00    +0.000 C 
ATOM     29  C   UNL     1       8.303  17.257  26.253  0.00  0.00    +0.000 C 
ATOM     30  C   UNL     1       8.869  16.369  25.131  0.00  0.00    +0.000 C 
ENDBRANCH  12  25
TORSDOF 3
ENDMDL
MODEL 9
REMARK VINA RESULT:      -6.2      4.135      7.180
REMARK  Name = 
REMARK  3 active torsions:
REMARK  status: ('A' for Active; 'I' for Inactive)
REMARK    1  A    between atoms: C_4  and  C_5
REMARK    2  A    between atoms: C_11  and  C_12
REMARK    3  A    between atoms: C_24  and  N_25
REMARK                            x       y       z     vdW  Elec       q    Type
REMARK                         _______ _______ _______ _____ _____    ______ ____
ROOT
ATOM      1  O   UNL     1       1.678  12.818  18.908  0.00  0.00    +0.000 OA
ATOM      2  S   UNL     1       1.531  13.309  20.274  0.00  0.00    +0.000 S 
ATOM      3  O   UNL     1       2.477  12.914  21.307  0.00  0.00    +0.000 OA
ATOM      4  C   UNL     1      -0.028  12.909  20.852  0.00  0.00    +0.000 C 
ATOM      5  C   UNL     1      -0.866  13.945  20.908  0.00  0.00    +0.000 C 
ATOM      6  C   UNL     1      -0.196  15.328  20.910  0.00  0.00    +0.000 C 
ATOM      7  C   UNL     1      -0.981  16.312  19.935  0.00  0.00    +0.000 C 
ATOM      8  C   UNL     1      -0.542  17.813  20.048  0.00  0.00    +0.000 C 
ATOM      9  C   UNL     1       0.797  17.834  19.241  0.00  0.00    +0.000 C 
ATOM     10  C   UNL     1       1.077  16.262  19.160  0.00  0.00    +0.000 C 
ATOM     11  C   UNL     1      -0.314  15.915  18.640  0.00  0.00    +0.000 C 
ATOM     12  C   UNL     1       1.394  15.151  20.273  0.00  0.00    +0.000 C 
ENDROOT
BRANCH   4  13
ATOM     13  C   UNL     1      -0.190  11.521  21.309  0.00  0.00    +0.000 A 
ATOM     14  C   UNL     1       0.032  10.410  20.500  0.00  0.00    +0.000 A 
ATOM     15  C   UNL     1      -0.129   9.117  21.003  0.00  0.00    +0.000 A 
ATOM     16  C   UNL     1      -0.511   8.910  22.323  0.00  0.00    +0.000 A 
ATOM     17  C   UNL     1      -0.734  10.006  23.151  0.00  0.00    +0.000 A 
ATOM     18  C   UNL     1      -0.583  11.300  22.645  0.00  0.00    +0.000 A 
ENDBRANCH   4  13
BRANCH   5  19
ATOM     19  C   UNL     1      -2.311  13.650  20.962  0.00  0.00    +0.000 A 
ATOM     20  C   UNL     1      -3.071  13.896  22.104  0.00  0.00    +0.000 A 
ATOM     21  C   UNL     1      -4.372  13.402  22.206  0.00  0.00    +0.000 A 
ATOM     22  C   UNL     1      -4.950  12.668  21.163  0.00  0.00    +0.000 A 
ATOM     23  C   UNL     1      -4.229  12.440  19.999  0.00  0.00    +0.000 A 
ATOM     24  C   UNL     1      -2.918  12.924  19.898  0.00  0.00    +0.000 A 
ENDBRANCH   5  19
BRANCH  12  25
ATOM     25  N   UNL     1       2.825  15.748  20.327  0.00  0.00    +0.000 NA
ATOM     26  C   UNL     1       2.989  16.641  21.510  0.00  0.00    +0.000 C 
ATOM     27  C   UNL     1       4.395  17.181  21.688  0.00  0.00    +0.000 C 
ATOM     28  C   UNL     1       4.800  17.860  20.399  0.00  0.00    +0.000 C 
ATOM     29  C   UNL     1       4.827  16.806  19.295  0.00  0.00    +0.000 C 
ATOM     30  C   UNL     1       3.466  16.118  19.089  0.00  0.00    +0.000 C 
ENDBRANCH  12  25
TORSDOF 3
ENDMDL
