MODEL 1
REMARK VINA RESULT:      -8.7      0.000      0.000
REMARK  Name = 
REMARK  7 active torsions:
REMARK  status: ('A' for Active; 'I' for Inactive)
REMARK    1  A    between atoms: C_2  and  O_3
REMARK    2  A    between atoms: C_2  and  C_4
REMARK    3  A    between atoms: N_11  and  C_12
REMARK    4  A    between atoms: C_13  and  C_14
REMARK    5  A    between atoms: C_20  and  N_21
REMARK    6  A    between atoms: N_21  and  C_22
REMARK    7  A    between atoms: C_22  and  C_23
REMARK                            x       y       z     vdW  Elec       q    Type
REMARK                         _______ _______ _______ _____ _____    ______ ____
ROOT
ATOM      1  C   UNL     1       3.454   3.662  18.794  0.00  0.00    +0.000 A 
ATOM      2  C   UNL     1       2.658   4.086  19.862  0.00  0.00    +0.000 A 
ATOM      3  N   UNL     1       2.195   5.340  20.050  0.00  0.00    +0.000 NA
ATOM      4  C   UNL     1       2.568   6.195  19.070  0.00  0.00    +0.000 A 
ATOM      5  C   UNL     1       3.311   5.877  17.940  0.00  0.00    +0.000 A 
ATOM      6  C   UNL     1       3.394   7.107  17.257  0.00  0.00    +0.000 A 
ATOM      7  N   UNL     1       2.790   8.115  17.887  0.00  0.00    +0.000 NA
ATOM      8  N   UNL     1       2.293   7.568  19.038  0.00  0.00    +0.000 N 
ATOM      9  C   UNL     1       3.780   4.546  17.737  0.00  0.00    +0.000 A 
ENDROOT
BRANCH   1  11
ATOM     10  O   UNL     1       3.381   1.309  18.473  0.00  0.00    +0.000 OA
ATOM     11  C   UNL     1       3.952   2.280  18.940  0.00  0.00    +0.000 C 
BRANCH  11  12
ATOM     12  O   UNL     1       5.052   2.191  19.719  0.00  0.00    +0.000 OA
ATOM     13  H   UNL     1       4.910   2.546  20.623  0.00  0.00    +0.000 HD
ENDBRANCH  11  12
ENDBRANCH   1  11
BRANCH   8  14
ATOM     14  C   UNL     1       1.621   8.258  20.060  0.00  0.00    +0.000 C 
ATOM     15  C   UNL     1       0.812   9.319  19.893  0.00  0.00    +0.000 C 
BRANCH  15  16
ATOM     16  C   UNL     1       0.134  10.027  20.993  0.00  0.00    +0.000 A 
ATOM     17  C   UNL     1      -0.345  11.328  20.777  0.00  0.00    +0.000 A 
ATOM     18  C   UNL     1      -1.008  12.026  21.793  0.00  0.00    +0.000 A 
ATOM     19  C   UNL     1      -1.210  11.429  23.034  0.00  0.00    +0.000 A 
ATOM     20  C   UNL     1      -0.757  10.131  23.259  0.00  0.00    +0.000 A 
ATOM     21  C   UNL     1      -0.096   9.434  22.243  0.00  0.00    +0.000 A 
ENDBRANCH  15  16
ENDBRANCH   8  14
BRANCH   9  22
ATOM     22  N   UNL     1       4.556   4.237  16.618  0.00  0.00    +0.000 N 
ATOM     23  H   UNL     1       4.161   3.526  16.005  0.00  0.00    +0.000 HD
BRANCH  22  24
ATOM     24  C   UNL     1       6.023   4.192  16.648  0.00  0.00    +0.000 C 
BRANCH  24  25
ATOM     25  C   UNL     1       6.684   5.339  17.375  0.00  0.00    +0.000 A 
ATOM     26  C   UNL     1       7.282   5.068  18.620  0.00  0.00    +0.000 A 
ATOM     27  C   UNL     1       8.047   6.031  19.276  0.00  0.00    +0.000 A 
ATOM     28  C   UNL     1       8.226   7.283  18.695  0.00  0.00    +0.000 A 
ATOM     29  C   UNL     1       7.637   7.569  17.463  0.00  0.00    +0.000 A 
ATOM     30  C   UNL     1       6.877   6.601  16.800  0.00  0.00    +0.000 A 
ENDBRANCH  24  25
ENDBRANCH  22  24
ENDBRANCH   9  22
TORSDOF 7
ENDMDL
MODEL 2
REMARK VINA RESULT:      -8.6      0.241      1.097
REMARK  Name = 
REMARK  7 active torsions:
REMARK  status: ('A' for Active; 'I' for Inactive)
REMARK    1  A    between atoms: C_2  and  O_3
REMARK    2  A    between atoms: C_2  and  C_4
REMARK    3  A    between atoms: N_11  and  C_12
REMARK    4  A    between atoms: C_13  and  C_14
REMARK    5  A    between atoms: C_20  and  N_21
REMARK    6  A    between atoms: N_21  and  C_22
REMARK    7  A    between atoms: C_22  and  C_23
REMARK                            x       y       z     vdW  Elec       q    Type
REMARK                         _______ _______ _______ _____ _____    ______ ____
ROOT
ATOM      1  C   UNL     1       3.619   3.790  19.027  0.00  0.00    +0.000 A 
ATOM      2  C   UNL     1       2.888   4.278  20.114  0.00  0.00    +0.000 A 
ATOM      3  N   UNL     1       2.386   5.526  20.230  0.00  0.00    +0.000 NA
ATOM      4  C   UNL     1       2.647   6.304  19.154  0.00  0.00    +0.000 A 
ATOM      5  C   UNL     1       3.316   5.914  18.000  0.00  0.00    +0.000 A 
ATOM      6  C   UNL     1       3.293   7.081  17.210  0.00  0.00    +0.000 A 
ATOM      7  N   UNL     1       2.695   8.118  17.797  0.00  0.00    +0.000 NA
ATOM      8  N   UNL     1       2.310   7.658  19.027  0.00  0.00    +0.000 N 
ATOM      9  C   UNL     1       3.825   4.589  17.876  0.00  0.00    +0.000 A 
ENDROOT
BRANCH   1  11
ATOM     10  O   UNL     1       4.857   2.158  20.228  0.00  0.00    +0.000 OA
ATOM     11  C   UNL     1       4.187   2.447  19.251  0.00  0.00    +0.000 C 
BRANCH  11  12
ATOM     12  O   UNL     1       3.968   1.598  18.224  0.00  0.00    +0.000 OA
ATOM     13  H   UNL     1       3.027   1.328  18.145  0.00  0.00    +0.000 HD
ENDBRANCH  11  12
ENDBRANCH   1  11
BRANCH   8  14
ATOM     14  C   UNL     1       1.687   8.410  20.036  0.00  0.00    +0.000 C 
ATOM     15  C   UNL     1       0.619   9.211  19.874  0.00  0.00    +0.000 C 
BRANCH  15  16
ATOM     16  C   UNL     1       0.001   9.997  20.956  0.00  0.00    +0.000 A 
ATOM     17  C   UNL     1      -0.244   9.383  22.194  0.00  0.00    +0.000 A 
ATOM     18  C   UNL     1      -0.814  10.102  23.250  0.00  0.00    +0.000 A 
ATOM     19  C   UNL     1      -1.138  11.446  23.087  0.00  0.00    +0.000 A 
ATOM     20  C   UNL     1      -0.885  12.075  21.870  0.00  0.00    +0.000 A 
ATOM     21  C   UNL     1      -0.313  11.357  20.816  0.00  0.00    +0.000 A 
ENDBRANCH  15  16
ENDBRANCH   8  14
BRANCH   9  22
ATOM     22  N   UNL     1       4.528   4.211  16.729  0.00  0.00    +0.000 N 
ATOM     23  H   UNL     1       4.118   3.435  16.211  0.00  0.00    +0.000 HD
BRANCH  22  24
ATOM     24  C   UNL     1       5.994   4.221  16.648  0.00  0.00    +0.000 C 
BRANCH  24  25
ATOM     25  C   UNL     1       6.667   5.363  17.372  0.00  0.00    +0.000 A 
ATOM     26  C   UNL     1       7.335   5.073  18.577  0.00  0.00    +0.000 A 
ATOM     27  C   UNL     1       8.112   6.035  19.218  0.00  0.00    +0.000 A 
ATOM     28  C   UNL     1       8.233   7.306  18.664  0.00  0.00    +0.000 A 
ATOM     29  C   UNL     1       7.576   7.611  17.472  0.00  0.00    +0.000 A 
ATOM     30  C   UNL     1       6.803   6.644  16.822  0.00  0.00    +0.000 A 
ENDBRANCH  24  25
ENDBRANCH  22  24
ENDBRANCH   9  22
TORSDOF 7
ENDMDL
MODEL 3
REMARK VINA RESULT:      -8.2      2.528      4.537
REMARK  Name = 
REMARK  7 active torsions:
REMARK  status: ('A' for Active; 'I' for Inactive)
REMARK    1  A    between atoms: C_2  and  O_3
REMARK    2  A    between atoms: C_2  and  C_4
REMARK    3  A    between atoms: N_11  and  C_12
REMARK    4  A    between atoms: C_13  and  C_14
REMARK    5  A    between atoms: C_20  and  N_21
REMARK    6  A    between atoms: N_21  and  C_22
REMARK    7  A    between atoms: C_22  and  C_23
REMARK                            x       y       z     vdW  Elec       q    Type
REMARK                         _______ _______ _______ _____ _____    ______ ____
ROOT
ATOM      1  C   UNL     1       5.526   5.271  16.951  0.00  0.00    +0.000 A 
ATOM      2  C   UNL     1       5.135   6.511  16.437  0.00  0.00    +0.000 A 
ATOM      3  N   UNL     1       4.210   7.332  16.978  0.00  0.00    +0.000 NA
ATOM      4  C   UNL     1       3.671   6.843  18.119  0.00  0.00    +0.000 A 
ATOM      5  C   UNL     1       4.016   5.653  18.748  0.00  0.00    +0.000 A 
ATOM      6  C   UNL     1       3.181   5.640  19.883  0.00  0.00    +0.000 A 
ATOM      7  N   UNL     1       2.370   6.695  19.968  0.00  0.00    +0.000 NA
ATOM      8  N   UNL     1       2.642   7.444  18.856  0.00  0.00    +0.000 N 
ATOM      9  C   UNL     1       5.009   4.802  18.182  0.00  0.00    +0.000 A 
ENDROOT
BRANCH   1  11
ATOM     10  O   UNL     1       7.463   4.984  15.606  0.00  0.00    +0.000 OA
ATOM     11  C   UNL     1       6.430   4.519  16.058  0.00  0.00    +0.000 C 
BRANCH  11  12
ATOM     12  O   UNL     1       5.953   3.302  15.721  0.00  0.00    +0.000 OA
ATOM     13  H   UNL     1       6.526   2.567  16.029  0.00  0.00    +0.000 HD
ENDBRANCH  11  12
ENDBRANCH   1  11
BRANCH   8  14
ATOM     14  C   UNL     1       1.993   8.629  18.475  0.00  0.00    +0.000 C 
ATOM     15  C   UNL     1       1.216   9.390  19.267  0.00  0.00    +0.000 C 
BRANCH  15  16
ATOM     16  C   UNL     1       0.538  10.622  18.827  0.00  0.00    +0.000 A 
ATOM     17  C   UNL     1      -0.792  10.550  18.385  0.00  0.00    +0.000 A 
ATOM     18  C   UNL     1      -1.474  11.700  17.975  0.00  0.00    +0.000 A 
ATOM     19  C   UNL     1      -0.840  12.939  18.010  0.00  0.00    +0.000 A 
ATOM     20  C   UNL     1       0.473  13.031  18.464  0.00  0.00    +0.000 A 
ATOM     21  C   UNL     1       1.154  11.881  18.876  0.00  0.00    +0.000 A 
ENDBRANCH  15  16
ENDBRANCH   8  14
BRANCH   9  22
ATOM     22  N   UNL     1       5.328   3.590  18.798  0.00  0.00    +0.000 N 
ATOM     23  H   UNL     1       6.323   3.371  18.826  0.00  0.00    +0.000 HD
BRANCH  22  24
ATOM     24  C   UNL     1       4.498   2.384  18.675  0.00  0.00    +0.000 C 
BRANCH  24  25
ATOM     25  C   UNL     1       3.207   2.414  19.458  0.00  0.00    +0.000 A 
ATOM     26  C   UNL     1       3.293   2.460  20.862  0.00  0.00    +0.000 A 
ATOM     27  C   UNL     1       2.157   2.651  21.647  0.00  0.00    +0.000 A 
ATOM     28  C   UNL     1       0.914   2.797  21.037  0.00  0.00    +0.000 A 
ATOM     29  C   UNL     1       0.811   2.751  19.647  0.00  0.00    +0.000 A 
ATOM     30  C   UNL     1       1.952   2.569  18.858  0.00  0.00    +0.000 A 
ENDBRANCH  24  25
ENDBRANCH  22  24
ENDBRANCH   9  22
TORSDOF 7
ENDMDL
MODEL 4
REMARK VINA RESULT:      -8.1      1.675      2.703
REMARK  Name = 
REMARK  7 active torsions:
REMARK  status: ('A' for Active; 'I' for Inactive)
REMARK    1  A    between atoms: C_2  and  O_3
REMARK    2  A    between atoms: C_2  and  C_4
REMARK    3  A    between atoms: N_11  and  C_12
REMARK    4  A    between atoms: C_13  and  C_14
REMARK    5  A    between atoms: C_20  and  N_21
REMARK    6  A    between atoms: N_21  and  C_22
REMARK    7  A    between atoms: C_22  and  C_23
REMARK                            x       y       z     vdW  Elec       q    Type
REMARK                         _______ _______ _______ _____ _____    ______ ____
ROOT
ATOM      1  C   UNL     1       3.639   3.395  18.857  0.00  0.00    +0.000 A 
ATOM      2  C   UNL     1       2.754   3.802  19.860  0.00  0.00    +0.000 A 
ATOM      3  N   UNL     1       2.275   5.053  20.029  0.00  0.00    +0.000 NA
ATOM      4  C   UNL     1       2.731   5.924  19.100  0.00  0.00    +0.000 A 
ATOM      5  C   UNL     1       3.568   5.625  18.032  0.00  0.00    +0.000 A 
ATOM      6  C   UNL     1       3.708   6.867  17.381  0.00  0.00    +0.000 A 
ATOM      7  N   UNL     1       3.051   7.864  17.974  0.00  0.00    +0.000 NA
ATOM      8  N   UNL     1       2.457   7.298  19.069  0.00  0.00    +0.000 N 
ATOM      9  C   UNL     1       4.053   4.298  17.848  0.00  0.00    +0.000 A 
ENDROOT
BRANCH   1  11
ATOM     10  O   UNL     1       3.664   1.063  18.407  0.00  0.00    +0.000 OA
ATOM     11  C   UNL     1       4.124   2.012  19.021  0.00  0.00    +0.000 C 
BRANCH  11  12
ATOM     12  O   UNL     1       5.064   1.888  19.983  0.00  0.00    +0.000 OA
ATOM     13  H   UNL     1       4.951   2.534  20.713  0.00  0.00    +0.000 HD
ENDBRANCH  11  12
ENDBRANCH   1  11
BRANCH   8  14
ATOM     14  C   UNL     1       1.699   7.970  20.042  0.00  0.00    +0.000 C 
ATOM     15  C   UNL     1       1.091   9.159  19.882  0.00  0.00    +0.000 C 
BRANCH  15  16
ATOM     16  C   UNL     1       0.315   9.841  20.932  0.00  0.00    +0.000 A 
ATOM     17  C   UNL     1       0.234   9.262  22.208  0.00  0.00    +0.000 A 
ATOM     18  C   UNL     1      -0.480   9.887  23.235  0.00  0.00    +0.000 A 
ATOM     19  C   UNL     1      -1.114  11.105  23.004  0.00  0.00    +0.000 A 
ATOM     20  C   UNL     1      -1.028  11.703  21.749  0.00  0.00    +0.000 A 
ATOM     21  C   UNL     1      -0.313  11.078  20.724  0.00  0.00    +0.000 A 
ENDBRANCH  15  16
ENDBRANCH   8  14
BRANCH   9  22
ATOM     22  N   UNL     1       4.923   4.008  16.794  0.00  0.00    +0.000 N 
ATOM     23  H   UNL     1       5.362   3.090  16.840  0.00  0.00    +0.000 HD
BRANCH  22  24
ATOM     24  C   UNL     1       5.799   5.014  16.178  0.00  0.00    +0.000 C 
BRANCH  24  25
ATOM     25  C   UNL     1       6.318   4.656  14.806  0.00  0.00    +0.000 A 
ATOM     26  C   UNL     1       5.554   3.765  14.028  0.00  0.00    +0.000 A 
ATOM     27  C   UNL     1       5.879   3.511  12.697  0.00  0.00    +0.000 A 
ATOM     28  C   UNL     1       6.976   4.146  12.122  0.00  0.00    +0.000 A 
ATOM     29  C   UNL     1       7.745   5.030  12.879  0.00  0.00    +0.000 A 
ATOM     30  C   UNL     1       7.415   5.292  14.212  0.00  0.00    +0.000 A 
ENDBRANCH  24  25
ENDBRANCH  22  24
ENDBRANCH   9  22
TORSDOF 7
ENDMDL
MODEL 5
REMARK VINA RESULT:      -8.1      0.512      1.199
REMARK  Name = 
REMARK  7 active torsions:
REMARK  status: ('A' for Active; 'I' for Inactive)
REMARK    1  A    between atoms: C_2  and  O_3
REMARK    2  A    between atoms: C_2  and  C_4
REMARK    3  A    between atoms: N_11  and  C_12
REMARK    4  A    between atoms: C_13  and  C_14
REMARK    5  A    between atoms: C_20  and  N_21
REMARK    6  A    between atoms: N_21  and  C_22
REMARK    7  A    between atoms: C_22  and  C_23
REMARK                            x       y       z     vdW  Elec       q    Type
REMARK                         _______ _______ _______ _____ _____    ______ ____
ROOT
ATOM      1  C   UNL     1       3.524   4.116  19.254  0.00  0.00    +0.000 A 
ATOM      2  C   UNL     1       2.730   4.586  20.305  0.00  0.00    +0.000 A 
ATOM      3  N   UNL     1       2.212   5.828  20.406  0.00  0.00    +0.000 NA
ATOM      4  C   UNL     1       2.525   6.620  19.355  0.00  0.00    +0.000 A 
ATOM      5  C   UNL     1       3.260   6.249  18.236  0.00  0.00    +0.000 A 
ATOM      6  C   UNL     1       3.271   7.424  17.459  0.00  0.00    +0.000 A 
ATOM      7  N   UNL     1       2.633   8.450  18.023  0.00  0.00    +0.000 NA
ATOM      8  N   UNL     1       2.185   7.973  19.225  0.00  0.00    +0.000 N 
ATOM      9  C   UNL     1       3.786   4.929  18.125  0.00  0.00    +0.000 A 
ENDROOT
BRANCH   1  11
ATOM     10  O   UNL     1       5.153   2.587  20.063  0.00  0.00    +0.000 OA
ATOM     11  C   UNL     1       4.089   2.774  19.494  0.00  0.00    +0.000 C 
BRANCH  11  12
ATOM     12  O   UNL     1       3.358   1.782  18.943  0.00  0.00    +0.000 OA
ATOM     13  H   UNL     1       2.437   2.054  18.739  0.00  0.00    +0.000 HD
ENDBRANCH  11  12
ENDBRANCH   1  11
BRANCH   8  14
ATOM     14  C   UNL     1       1.501   8.709  20.206  0.00  0.00    +0.000 C 
ATOM     15  C   UNL     1       0.557   9.638  19.977  0.00  0.00    +0.000 C 
BRANCH  15  16
ATOM     16  C   UNL     1      -0.129  10.402  21.034  0.00  0.00    +0.000 A 
ATOM     17  C   UNL     1      -0.473  11.741  20.797  0.00  0.00    +0.000 A 
ATOM     18  C   UNL     1      -1.139  12.494  21.771  0.00  0.00    +0.000 A 
ATOM     19  C   UNL     1      -1.479  11.915  22.990  0.00  0.00    +0.000 A 
ATOM     20  C   UNL     1      -1.162  10.581  23.234  0.00  0.00    +0.000 A 
ATOM     21  C   UNL     1      -0.498   9.829  22.260  0.00  0.00    +0.000 A 
ENDBRANCH  15  16
ENDBRANCH   8  14
BRANCH   9  22
ATOM     22  N   UNL     1       4.553   4.570  17.015  0.00  0.00    +0.000 N 
ATOM     23  H   UNL     1       4.071   3.992  16.329  0.00  0.00    +0.000 HD
BRANCH  22  24
ATOM     24  C   UNL     1       5.985   4.254  17.099  0.00  0.00    +0.000 C 
BRANCH  24  25
ATOM     25  C   UNL     1       6.867   5.397  17.542  0.00  0.00    +0.000 A 
ATOM     26  C   UNL     1       6.784   6.606  16.825  0.00  0.00    +0.000 A 
ATOM     27  C   UNL     1       7.442   7.752  17.268  0.00  0.00    +0.000 A 
ATOM     28  C   UNL     1       8.197   7.706  18.436  0.00  0.00    +0.000 A 
ATOM     29  C   UNL     1       8.292   6.515  19.157  0.00  0.00    +0.000 A 
ATOM     30  C   UNL     1       7.625   5.367  18.719  0.00  0.00    +0.000 A 
ENDBRANCH  24  25
ENDBRANCH  22  24
ENDBRANCH   9  22
TORSDOF 7
ENDMDL
MODEL 6
REMARK VINA RESULT:      -8.0      2.697      4.495
REMARK  Name = 
REMARK  7 active torsions:
REMARK  status: ('A' for Active; 'I' for Inactive)
REMARK    1  A    between atoms: C_2  and  O_3
REMARK    2  A    between atoms: C_2  and  C_4
REMARK    3  A    between atoms: N_11  and  C_12
REMARK    4  A    between atoms: C_13  and  C_14
REMARK    5  A    between atoms: C_20  and  N_21
REMARK    6  A    between atoms: N_21  and  C_22
REMARK    7  A    between atoms: C_22  and  C_23
REMARK                            x       y       z     vdW  Elec       q    Type
REMARK                         _______ _______ _______ _____ _____    ______ ____
ROOT
ATOM      1  C   UNL     1       5.321   5.420  16.494  0.00  0.00    +0.000 A 
ATOM      2  C   UNL     1       4.946   6.694  16.055  0.00  0.00    +0.000 A 
ATOM      3  N   UNL     1       4.080   7.520  16.680  0.00  0.00    +0.000 NA
ATOM      4  C   UNL     1       3.588   7.000  17.828  0.00  0.00    +0.000 A 
ATOM      5  C   UNL     1       3.924   5.774  18.387  0.00  0.00    +0.000 A 
ATOM      6  C   UNL     1       3.152   5.739  19.565  0.00  0.00    +0.000 A 
ATOM      7  N   UNL     1       2.383   6.815  19.739  0.00  0.00    +0.000 NA
ATOM      8  N   UNL     1       2.621   7.602  18.645  0.00  0.00    +0.000 N 
ATOM      9  C   UNL     1       4.854   4.915  17.732  0.00  0.00    +0.000 A 
ENDROOT
BRANCH   1  11
ATOM     10  O   UNL     1       5.705   4.209  14.487  0.00  0.00    +0.000 OA
ATOM     11  C   UNL     1       6.147   4.679  15.523  0.00  0.00    +0.000 C 
BRANCH  11  12
ATOM     12  O   UNL     1       7.419   4.494  15.938  0.00  0.00    +0.000 OA
ATOM     13  H   UNL     1       7.596   4.893  16.817  0.00  0.00    +0.000 HD
ENDBRANCH  11  12
ENDBRANCH   1  11
BRANCH   8  14
ATOM     14  C   UNL     1       1.994   8.823  18.351  0.00  0.00    +0.000 C 
ATOM     15  C   UNL     1       1.254   9.553  19.204  0.00  0.00    +0.000 C 
BRANCH  15  16
ATOM     16  C   UNL     1       0.598  10.825  18.854  0.00  0.00    +0.000 A 
ATOM     17  C   UNL     1       1.357  12.006  18.842  0.00  0.00    +0.000 A 
ATOM     18  C   UNL     1       0.772  13.230  18.499  0.00  0.00    +0.000 A 
ATOM     19  C   UNL     1      -0.575  13.289  18.153  0.00  0.00    +0.000 A 
ATOM     20  C   UNL     1      -1.337  12.123  18.142  0.00  0.00    +0.000 A 
ATOM     21  C   UNL     1      -0.752  10.900  18.483  0.00  0.00    +0.000 A 
ENDBRANCH  15  16
ENDBRANCH   8  14
BRANCH   9  22
ATOM     22  N   UNL     1       5.164   3.668  18.279  0.00  0.00    +0.000 N 
ATOM     23  H   UNL     1       6.148   3.407  18.223  0.00  0.00    +0.000 HD
BRANCH  22  24
ATOM     24  C   UNL     1       4.274   2.505  18.177  0.00  0.00    +0.000 C 
BRANCH  24  25
ATOM     25  C   UNL     1       3.133   2.484  19.166  0.00  0.00    +0.000 A 
ATOM     26  C   UNL     1       3.452   2.506  20.537  0.00  0.00    +0.000 A 
ATOM     27  C   UNL     1       2.460   2.650  21.505  0.00  0.00    +0.000 A 
ATOM     28  C   UNL     1       1.130   2.774  21.116  0.00  0.00    +0.000 A 
ATOM     29  C   UNL     1       0.795   2.752  19.762  0.00  0.00    +0.000 A 
ATOM     30  C   UNL     1       1.791   2.616  18.789  0.00  0.00    +0.000 A 
ENDBRANCH  24  25
ENDBRANCH  22  24
ENDBRANCH   9  22
TORSDOF 7
ENDMDL
MODEL 7
REMARK VINA RESULT:      -8.0      1.759      2.853
REMARK  Name = 
REMARK  7 active torsions:
REMARK  status: ('A' for Active; 'I' for Inactive)
REMARK    1  A    between atoms: C_2  and  O_3
REMARK    2  A    between atoms: C_2  and  C_4
REMARK    3  A    between atoms: N_11  and  C_12
REMARK    4  A    between atoms: C_13  and  C_14
REMARK    5  A    between atoms: C_20  and  N_21
REMARK    6  A    between atoms: N_21  and  C_22
REMARK    7  A    between atoms: C_22  and  C_23
REMARK                            x       y       z     vdW  Elec       q    Type
REMARK                         _______ _______ _______ _____ _____    ______ ____
ROOT
ATOM      1  C   UNL     1       3.891   3.436  18.952  0.00  0.00    +0.000 A 
ATOM      2  C   UNL     1       2.854   3.983  19.715  0.00  0.00    +0.000 A 
ATOM      3  N   UNL     1       2.378   5.241  19.610  0.00  0.00    +0.000 NA
ATOM      4  C   UNL     1       3.004   5.966  18.655  0.00  0.00    +0.000 A 
ATOM      5  C   UNL     1       4.006   5.516  17.805  0.00  0.00    +0.000 A 
ATOM      6  C   UNL     1       4.281   6.647  17.010  0.00  0.00    +0.000 A 
ATOM      7  N   UNL     1       3.551   7.718  17.325  0.00  0.00    +0.000 NA
ATOM      8  N   UNL     1       2.766   7.318  18.373  0.00  0.00    +0.000 N 
ATOM      9  C   UNL     1       4.490   4.180  17.907  0.00  0.00    +0.000 A 
ENDROOT
BRANCH   1  11
ATOM     10  O   UNL     1       4.888   1.895  20.460  0.00  0.00    +0.000 OA
ATOM     11  C   UNL     1       4.313   2.096  19.402  0.00  0.00    +0.000 C 
BRANCH  11  12
ATOM     12  O   UNL     1       4.083   1.130  18.487  0.00  0.00    +0.000 OA
ATOM     13  H   UNL     1       4.501   1.317  17.619  0.00  0.00    +0.000 HD
ENDBRANCH  11  12
ENDBRANCH   1  11
BRANCH   8  14
ATOM     14  C   UNL     1       1.866   8.124  19.088  0.00  0.00    +0.000 C 
ATOM     15  C   UNL     1       1.876   8.324  20.418  0.00  0.00    +0.000 C 
BRANCH  15  16
ATOM     16  C   UNL     1       0.903   9.167  21.137  0.00  0.00    +0.000 A 
ATOM     17  C   UNL     1       0.678   8.937  22.502  0.00  0.00    +0.000 A 
ATOM     18  C   UNL     1      -0.226   9.726  23.222  0.00  0.00    +0.000 A 
ATOM     19  C   UNL     1      -0.908  10.762  22.589  0.00  0.00    +0.000 A 
ATOM     20  C   UNL     1      -0.682  11.014  21.238  0.00  0.00    +0.000 A 
ATOM     21  C   UNL     1       0.223  10.226  20.520  0.00  0.00    +0.000 A 
ENDBRANCH  15  16
ENDBRANCH   8  14
BRANCH   9  22
ATOM     22  N   UNL     1       5.522   3.741  17.074  0.00  0.00    +0.000 N 
ATOM     23  H   UNL     1       5.960   2.865  17.358  0.00  0.00    +0.000 HD
BRANCH  22  24
ATOM     24  C   UNL     1       6.474   4.654  16.428  0.00  0.00    +0.000 C 
BRANCH  24  25
ATOM     25  C   UNL     1       6.533   4.557  14.923  0.00  0.00    +0.000 A 
ATOM     26  C   UNL     1       7.556   5.260  14.259  0.00  0.00    +0.000 A 
ATOM     27  C   UNL     1       7.775   5.094  12.893  0.00  0.00    +0.000 A 
ATOM     28  C   UNL     1       6.970   4.220  12.167  0.00  0.00    +0.000 A 
ATOM     29  C   UNL     1       5.950   3.518  12.808  0.00  0.00    +0.000 A 
ATOM     30  C   UNL     1       5.735   3.677  14.181  0.00  0.00    +0.000 A 
ENDBRANCH  24  25
ENDBRANCH  22  24
ENDBRANCH   9  22
TORSDOF 7
ENDMDL
MODEL 8
REMARK VINA RESULT:      -8.0      3.741      7.014
REMARK  Name = 
REMARK  7 active torsions:
REMARK  status: ('A' for Active; 'I' for Inactive)
REMARK    1  A    between atoms: C_2  and  O_3
REMARK    2  A    between atoms: C_2  and  C_4
REMARK    3  A    between atoms: N_11  and  C_12
REMARK    4  A    between atoms: C_13  and  C_14
REMARK    5  A    between atoms: C_20  and  N_21
REMARK    6  A    between atoms: N_21  and  C_22
REMARK    7  A    between atoms: C_22  and  C_23
REMARK                            x       y       z     vdW  Elec       q    Type
REMARK                         _______ _______ _______ _____ _____    ______ ____
ROOT
ATOM      1  C   UNL     1       4.273   5.000  17.396  0.00  0.00    +0.000 A 
ATOM      2  C   UNL     1       4.464   6.260  16.819  0.00  0.00    +0.000 A 
ATOM      3  N   UNL     1       5.548   7.047  16.987  0.00  0.00    +0.000 NA
ATOM      4  C   UNL     1       6.488   6.492  17.786  0.00  0.00    +0.000 A 
ATOM      5  C   UNL     1       6.430   5.233  18.371  0.00  0.00    +0.000 A 
ATOM      6  C   UNL     1       7.652   5.151  19.069  0.00  0.00    +0.000 A 
ATOM      7  N   UNL     1       8.406   6.245  18.966  0.00  0.00    +0.000 NA
ATOM      8  N   UNL     1       7.680   7.107  18.190  0.00  0.00    +0.000 N 
ATOM      9  C   UNL     1       5.293   4.398  18.173  0.00  0.00    +0.000 A 
ENDROOT
BRANCH   1  11
ATOM     10  O   UNL     1       2.720   3.363  16.656  0.00  0.00    +0.000 OA
ATOM     11  C   UNL     1       2.923   4.448  17.176  0.00  0.00    +0.000 C 
BRANCH  11  12
ATOM     12  O   UNL     1       1.936   5.301  17.524  0.00  0.00    +0.000 OA
ATOM     13  H   UNL     1       1.827   6.040  16.888  0.00  0.00    +0.000 HD
ENDBRANCH  11  12
ENDBRANCH   1  11
BRANCH   8  14
ATOM     14  C   UNL     1       8.040   8.421  17.850  0.00  0.00    +0.000 C 
ATOM     15  C   UNL     1       8.726   9.275  18.630  0.00  0.00    +0.000 C 
BRANCH  15  16
ATOM     16  C   UNL     1       9.074  10.654  18.243  0.00  0.00    +0.000 A 
ATOM     17  C   UNL     1      10.424  11.036  18.212  0.00  0.00    +0.000 A 
ATOM     18  C   UNL     1      10.794  12.331  17.835  0.00  0.00    +0.000 A 
ATOM     19  C   UNL     1       9.821  13.259  17.473  0.00  0.00    +0.000 A 
ATOM     20  C   UNL     1       8.478  12.890  17.480  0.00  0.00    +0.000 A 
ATOM     21  C   UNL     1       8.109  11.595  17.856  0.00  0.00    +0.000 A 
ENDBRANCH  15  16
ENDBRANCH   8  14
BRANCH   9  22
ATOM     22  N   UNL     1       5.223   3.147  18.790  0.00  0.00    +0.000 N 
ATOM     23  H   UNL     1       4.979   2.376  18.171  0.00  0.00    +0.000 HD
BRANCH  22  24
ATOM     24  C   UNL     1       4.705   2.953  20.151  0.00  0.00    +0.000 C 
BRANCH  24  25
ATOM     25  C   UNL     1       3.217   3.161  20.305  0.00  0.00    +0.000 A 
ATOM     26  C   UNL     1       2.777   4.404  20.800  0.00  0.00    +0.000 A 
ATOM     27  C   UNL     1       1.423   4.731  20.821  0.00  0.00    +0.000 A 
ATOM     28  C   UNL     1       0.485   3.819  20.345  0.00  0.00    +0.000 A 
ATOM     29  C   UNL     1       0.904   2.583  19.854  0.00  0.00    +0.000 A 
ATOM     30  C   UNL     1       2.263   2.256  19.824  0.00  0.00    +0.000 A 
ENDBRANCH  24  25
ENDBRANCH  22  24
ENDBRANCH   9  22
TORSDOF 7
ENDMDL
MODEL 9
REMARK VINA RESULT:      -8.0      1.689      2.567
REMARK  Name = 
REMARK  7 active torsions:
REMARK  status: ('A' for Active; 'I' for Inactive)
REMARK    1  A    between atoms: C_2  and  O_3
REMARK    2  A    between atoms: C_2  and  C_4
REMARK    3  A    between atoms: N_11  and  C_12
REMARK    4  A    between atoms: C_13  and  C_14
REMARK    5  A    between atoms: C_20  and  N_21
REMARK    6  A    between atoms: N_21  and  C_22
REMARK    7  A    between atoms: C_22  and  C_23
REMARK                            x       y       z     vdW  Elec       q    Type
REMARK                         _______ _______ _______ _____ _____    ______ ____
ROOT
ATOM      1  C   UNL     1       3.505   3.688  18.738  0.00  0.00    +0.000 A 
ATOM      2  C   UNL     1       2.776   4.176  19.827  0.00  0.00    +0.000 A 
ATOM      3  N   UNL     1       2.358   5.450  19.989  0.00  0.00    +0.000 NA
ATOM      4  C   UNL     1       2.705   6.255  18.959  0.00  0.00    +0.000 A 
ATOM      5  C   UNL     1       3.381   5.872  17.807  0.00  0.00    +0.000 A 
ATOM      6  C   UNL     1       3.463   7.073  17.073  0.00  0.00    +0.000 A 
ATOM      7  N   UNL     1       2.921   8.122  17.693  0.00  0.00    +0.000 NA
ATOM      8  N   UNL     1       2.467   7.634  18.888  0.00  0.00    +0.000 N 
ATOM      9  C   UNL     1       3.801   4.522  17.633  0.00  0.00    +0.000 A 
ENDROOT
BRANCH   1  11
ATOM     10  O   UNL     1       3.353   1.329  18.505  0.00  0.00    +0.000 OA
ATOM     11  C   UNL     1       3.970   2.299  18.913  0.00  0.00    +0.000 C 
BRANCH  11  12
ATOM     12  O   UNL     1       5.099   2.205  19.649  0.00  0.00    +0.000 OA
ATOM     13  H   UNL     1       4.979   2.508  20.575  0.00  0.00    +0.000 HD
ENDBRANCH  11  12
ENDBRANCH   1  11
BRANCH   8  14
ATOM     14  C   UNL     1       1.867   8.381  19.914  0.00  0.00    +0.000 C 
ATOM     15  C   UNL     1       0.640   8.931  19.873  0.00  0.00    +0.000 C 
BRANCH  15  16
ATOM     16  C   UNL     1       0.049   9.723  20.966  0.00  0.00    +0.000 A 
ATOM     17  C   UNL     1      -0.464  10.998  20.687  0.00  0.00    +0.000 A 
ATOM     18  C   UNL     1      -1.047  11.773  21.696  0.00  0.00    +0.000 A 
ATOM     19  C   UNL     1      -1.134  11.279  22.995  0.00  0.00    +0.000 A 
ATOM     20  C   UNL     1      -0.646  10.007  23.284  0.00  0.00    +0.000 A 
ATOM     21  C   UNL     1      -0.065   9.233  22.275  0.00  0.00    +0.000 A 
ENDBRANCH  15  16
ENDBRANCH   8  14
BRANCH   9  22
ATOM     22  N   UNL     1       4.510   4.148  16.490  0.00  0.00    +0.000 N 
ATOM     23  H   UNL     1       4.417   3.168  16.228  0.00  0.00    +0.000 HD
BRANCH  22  24
ATOM     24  C   UNL     1       5.834   4.689  16.155  0.00  0.00    +0.000 C 
BRANCH  24  25
ATOM     25  C   UNL     1       6.213   4.597  14.696  0.00  0.00    +0.000 A 
ATOM     26  C   UNL     1       7.355   5.301  14.269  0.00  0.00    +0.000 A 
ATOM     27  C   UNL     1       7.861   5.139  12.981  0.00  0.00    +0.000 A 
ATOM     28  C   UNL     1       7.230   4.268  12.097  0.00  0.00    +0.000 A 
ATOM     29  C   UNL     1       6.096   3.565  12.503  0.00  0.00    +0.000 A 
ATOM     30  C   UNL     1       5.593   3.720  13.798  0.00  0.00    +0.000 A 
ENDBRANCH  24  25
ENDBRANCH  22  24
ENDBRANCH   9  22
TORSDOF 7
ENDMDL
