MODEL 1
REMARK VINA RESULT:      -7.7      0.000      0.000
REMARK  Name = 
REMARK  8 active torsions:
REMARK  status: ('A' for Active; 'I' for Inactive)
REMARK    1  A    between atoms: C_1  and  O_2
REMARK    2  A    between atoms: O_2  and  C_3
REMARK    3  A    between atoms: C_7  and  C_8
REMARK    4  A    between atoms: C_9  and  C_10
REMARK    5  A    between atoms: N_12  and  C_13
REMARK    6  A    between atoms: C_13  and  C_14
REMARK    7  A    between atoms: C_14  and  C_15
REMARK    8  A    between atoms: C_15  and  N_16
REMARK                            x       y       z     vdW  Elec       q    Type
REMARK                         _______ _______ _______ _____ _____    ______ ____
ROOT
ATOM      1  C   UNL     1       7.828   7.298  17.830  0.00  0.00    +0.000 C 
ATOM      2  O   UNL     1       7.859   6.563  18.805  0.00  0.00    +0.000 OA
ATOM      3  N   UNL     1       7.446   6.893  16.572  0.00  0.00    +0.000 N 
ATOM      4  H   UNL     1       7.352   7.574  15.831  0.00  0.00    +0.000 HD
ENDROOT
BRANCH   1   6
ATOM      5  C   UNL     1       8.990   9.180  18.878  0.00  0.00    +0.000 C 
ATOM      6  C   UNL     1       8.163   8.746  17.913  0.00  0.00    +0.000 C 
BRANCH   5  11
ATOM      7  C   UNL     1      10.216  13.299  19.400  0.00  0.00    +0.000 A 
ATOM      8  C   UNL     1       9.576  12.610  20.442  0.00  0.00    +0.000 A 
ATOM      9 BR   UNL     1       9.050  13.359  22.111  0.00  0.00    +0.000 Br
ATOM     10  C   UNL     1       9.195  11.262  20.277  0.00  0.00    +0.000 A 
ATOM     11  C   UNL     1       9.400  10.582  19.073  0.00  0.00    +0.000 A 
ATOM     12  C   UNL     1      10.050  11.256  18.040  0.00  0.00    +0.000 A 
ATOM     13  C   UNL     1      10.443  12.594  18.200  0.00  0.00    +0.000 A 
ATOM     14 BR   UNL     1      11.304  13.416  16.709  0.00  0.00    +0.000 Br
BRANCH   7  16
ATOM     15  C   UNL     1       9.589  15.620  19.182  0.00  0.00    +0.000 C 
ATOM     16  O   UNL     1      10.577  14.619  19.363  0.00  0.00    +0.000 OA
ENDBRANCH   7  16
ENDBRANCH   5  11
ENDBRANCH   1   6
BRANCH   3  17
ATOM     17  C   UNL     1       6.880   5.568  16.350  0.00  0.00    +0.000 C 
BRANCH  17  18
ATOM     18  C   UNL     1       5.358   5.632  16.429  0.00  0.00    +0.000 C 
BRANCH  18  19
ATOM     19  C   UNL     1       4.676   4.269  16.621  0.00  0.00    +0.000 C 
BRANCH  19  20
ATOM     20  N   UNL     1       4.125   4.147  17.985  0.00  0.00    +0.000 NA
ATOM     21  C   UNL     1       3.760   2.761  18.363  0.00  0.00    +0.000 C 
ATOM     22  C   UNL     1       2.478   2.255  17.687  0.00  0.00    +0.000 C 
ATOM     23  O   UNL     1       1.369   3.098  18.022  0.00  0.00    +0.000 OA
ATOM     24  C   UNL     1       1.620   4.450  17.619  0.00  0.00    +0.000 C 
ATOM     25  C   UNL     1       2.935   4.999  18.207  0.00  0.00    +0.000 C 
ENDBRANCH  19  20
ENDBRANCH  18  19
ENDBRANCH  17  18
ENDBRANCH   3  17
TORSDOF 7
ENDMDL
MODEL 2
REMARK VINA RESULT:      -7.6      0.879      2.296
REMARK  Name = 
REMARK  8 active torsions:
REMARK  status: ('A' for Active; 'I' for Inactive)
REMARK    1  A    between atoms: C_1  and  O_2
REMARK    2  A    between atoms: O_2  and  C_3
REMARK    3  A    between atoms: C_7  and  C_8
REMARK    4  A    between atoms: C_9  and  C_10
REMARK    5  A    between atoms: N_12  and  C_13
REMARK    6  A    between atoms: C_13  and  C_14
REMARK    7  A    between atoms: C_14  and  C_15
REMARK    8  A    between atoms: C_15  and  N_16
REMARK                            x       y       z     vdW  Elec       q    Type
REMARK                         _______ _______ _______ _____ _____    ______ ____
ROOT
ATOM      1  C   UNL     1       7.701   7.644  17.851  0.00  0.00    +0.000 C 
ATOM      2  O   UNL     1       8.091   6.817  18.661  0.00  0.00    +0.000 OA
ATOM      3  N   UNL     1       6.771   7.385  16.872  0.00  0.00    +0.000 N 
ATOM      4  H   UNL     1       6.423   8.140  16.296  0.00  0.00    +0.000 HD
ENDROOT
BRANCH   1   6
ATOM      5  C   UNL     1       8.974   9.476  18.859  0.00  0.00    +0.000 C 
ATOM      6  C   UNL     1       8.170   9.057  17.868  0.00  0.00    +0.000 C 
BRANCH   5  11
ATOM      7  C   UNL     1      10.512  13.497  19.316  0.00  0.00    +0.000 A 
ATOM      8  C   UNL     1      10.715  12.789  18.121  0.00  0.00    +0.000 A 
ATOM      9 BR   UNL     1      11.749  13.386  16.638  0.00  0.00    +0.000 Br
ATOM     10  C   UNL     1      10.196  11.487  17.966  0.00  0.00    +0.000 A 
ATOM     11  C   UNL     1       9.505  10.843  18.996  0.00  0.00    +0.000 A 
ATOM     12  C   UNL     1       9.286  11.547  20.181  0.00  0.00    +0.000 A 
ATOM     13  C   UNL     1       9.789  12.848  20.338  0.00  0.00    +0.000 A 
ATOM     14 BR   UNL     1       9.444  13.701  22.010  0.00  0.00    +0.000 Br
BRANCH   7  16
ATOM     15  C   UNL     1      10.409  15.903  19.145  0.00  0.00    +0.000 C 
ATOM     16  O   UNL     1      11.009  14.725  19.660  0.00  0.00    +0.000 OA
ENDBRANCH   7  16
ENDBRANCH   5  11
ENDBRANCH   1   6
BRANCH   3  17
ATOM     17  C   UNL     1       6.045   6.121  16.841  0.00  0.00    +0.000 C 
BRANCH  17  18
ATOM     18  C   UNL     1       4.577   6.354  17.183  0.00  0.00    +0.000 C 
BRANCH  18  19
ATOM     19  C   UNL     1       4.050   5.487  18.337  0.00  0.00    +0.000 C 
BRANCH  19  20
ATOM     20  N   UNL     1       4.370   4.064  18.111  0.00  0.00    +0.000 NA
ATOM     21  C   UNL     1       3.355   3.339  17.312  0.00  0.00    +0.000 C 
ATOM     22  C   UNL     1       2.064   3.035  18.086  0.00  0.00    +0.000 C 
ATOM     23  O   UNL     1       2.350   2.238  19.242  0.00  0.00    +0.000 OA
ATOM     24  C   UNL     1       3.276   2.910  20.104  0.00  0.00    +0.000 C 
ATOM     25  C   UNL     1       4.571   3.311  19.370  0.00  0.00    +0.000 C 
ENDBRANCH  19  20
ENDBRANCH  18  19
ENDBRANCH  17  18
ENDBRANCH   3  17
TORSDOF 7
ENDMDL
MODEL 3
REMARK VINA RESULT:      -7.6      0.880      2.166
REMARK  Name = 
REMARK  8 active torsions:
REMARK  status: ('A' for Active; 'I' for Inactive)
REMARK    1  A    between atoms: C_1  and  O_2
REMARK    2  A    between atoms: O_2  and  C_3
REMARK    3  A    between atoms: C_7  and  C_8
REMARK    4  A    between atoms: C_9  and  C_10
REMARK    5  A    between atoms: N_12  and  C_13
REMARK    6  A    between atoms: C_13  and  C_14
REMARK    7  A    between atoms: C_14  and  C_15
REMARK    8  A    between atoms: C_15  and  N_16
REMARK                            x       y       z     vdW  Elec       q    Type
REMARK                         _______ _______ _______ _____ _____    ______ ____
ROOT
ATOM      1  C   UNL     1       7.691   7.541  17.810  0.00  0.00    +0.000 C 
ATOM      2  O   UNL     1       8.092   6.713  18.613  0.00  0.00    +0.000 OA
ATOM      3  N   UNL     1       6.782   7.272  16.814  0.00  0.00    +0.000 N 
ATOM      4  H   UNL     1       6.422   8.025  16.243  0.00  0.00    +0.000 HD
ENDROOT
BRANCH   1   6
ATOM      5  C   UNL     1       8.947   9.378  18.829  0.00  0.00    +0.000 C 
ATOM      6  C   UNL     1       8.121   8.966  17.854  0.00  0.00    +0.000 C 
BRANCH   5  11
ATOM      7  C   UNL     1      10.387  13.427  19.356  0.00  0.00    +0.000 A 
ATOM      8  C   UNL     1      10.583  12.755  18.139  0.00  0.00    +0.000 A 
ATOM      9 BR   UNL     1      11.569  13.416  16.651  0.00  0.00    +0.000 Br
ATOM     10  C   UNL     1      10.096  11.444  17.962  0.00  0.00    +0.000 A 
ATOM     11  C   UNL     1       9.445  10.756  18.990  0.00  0.00    +0.000 A 
ATOM     12  C   UNL     1       9.233  11.424  20.196  0.00  0.00    +0.000 A 
ATOM     13  C   UNL     1       9.704  12.734  20.376  0.00  0.00    +0.000 A 
ATOM     14 BR   UNL     1       9.372  13.535  22.076  0.00  0.00    +0.000 Br
BRANCH   7  16
ATOM     15  C   UNL     1      10.234  15.833  19.227  0.00  0.00    +0.000 C 
ATOM     16  O   UNL     1      10.859  14.659  19.721  0.00  0.00    +0.000 OA
ENDBRANCH   7  16
ENDBRANCH   5  11
ENDBRANCH   1   6
BRANCH   3  17
ATOM     17  C   UNL     1       6.091   5.989  16.754  0.00  0.00    +0.000 C 
BRANCH  17  18
ATOM     18  C   UNL     1       5.040   5.911  17.856  0.00  0.00    +0.000 C 
BRANCH  18  19
ATOM     19  C   UNL     1       5.101   4.629  18.700  0.00  0.00    +0.000 C 
BRANCH  19  20
ATOM     20  N   UNL     1       3.772   4.305  19.256  0.00  0.00    +0.000 NA
ATOM     21  C   UNL     1       3.670   2.931  19.802  0.00  0.00    +0.000 C 
ATOM     22  C   UNL     1       3.601   1.842  18.722  0.00  0.00    +0.000 C 
ATOM     23  O   UNL     1       2.467   2.052  17.871  0.00  0.00    +0.000 OA
ATOM     24  C   UNL     1       2.534   3.340  17.247  0.00  0.00    +0.000 C 
ATOM     25  C   UNL     1       2.677   4.480  18.275  0.00  0.00    +0.000 C 
ENDBRANCH  19  20
ENDBRANCH  18  19
ENDBRANCH  17  18
ENDBRANCH   3  17
TORSDOF 7
ENDMDL
MODEL 4
REMARK VINA RESULT:      -7.5      0.889      1.242
REMARK  Name = 
REMARK  8 active torsions:
REMARK  status: ('A' for Active; 'I' for Inactive)
REMARK    1  A    between atoms: C_1  and  O_2
REMARK    2  A    between atoms: O_2  and  C_3
REMARK    3  A    between atoms: C_7  and  C_8
REMARK    4  A    between atoms: C_9  and  C_10
REMARK    5  A    between atoms: N_12  and  C_13
REMARK    6  A    between atoms: C_13  and  C_14
REMARK    7  A    between atoms: C_14  and  C_15
REMARK    8  A    between atoms: C_15  and  N_16
REMARK                            x       y       z     vdW  Elec       q    Type
REMARK                         _______ _______ _______ _____ _____    ______ ____
ROOT
ATOM      1  C   UNL     1       7.534   7.471  17.641  0.00  0.00    +0.000 C 
ATOM      2  O   UNL     1       8.051   6.553  18.259  0.00  0.00    +0.000 OA
ATOM      3  N   UNL     1       6.448   7.326  16.811  0.00  0.00    +0.000 N 
ATOM      4  H   UNL     1       6.012   8.142  16.405  0.00  0.00    +0.000 HD
ENDROOT
BRANCH   1   6
ATOM      5  C   UNL     1       8.804   9.223  18.785  0.00  0.00    +0.000 C 
ATOM      6  C   UNL     1       8.008   8.877  17.760  0.00  0.00    +0.000 C 
BRANCH   5  11
ATOM      7  C   UNL     1      10.399  13.196  19.427  0.00  0.00    +0.000 A 
ATOM      8  C   UNL     1       9.711  12.531  20.454  0.00  0.00    +0.000 A 
ATOM      9 BR   UNL     1       9.272  13.266  22.155  0.00  0.00    +0.000 Br
ATOM     10  C   UNL     1       9.210  11.229  20.251  0.00  0.00    +0.000 A 
ATOM     11  C   UNL     1       9.340  10.575  19.022  0.00  0.00    +0.000 A 
ATOM     12  C   UNL     1      10.036  11.224  18.003  0.00  0.00    +0.000 A 
ATOM     13  C   UNL     1      10.549  12.515  18.202  0.00  0.00    +0.000 A 
ATOM     14 BR   UNL     1      11.464  13.309  16.727  0.00  0.00    +0.000 Br
BRANCH   7  16
ATOM     15  C   UNL     1       9.972  15.572  19.449  0.00  0.00    +0.000 C 
ATOM     16  O   UNL     1      10.876  14.480  19.430  0.00  0.00    +0.000 OA
ENDBRANCH   7  16
ENDBRANCH   5  11
ENDBRANCH   1   6
BRANCH   3  17
ATOM     17  C   UNL     1       5.719   6.065  16.741  0.00  0.00    +0.000 C 
BRANCH  17  18
ATOM     18  C   UNL     1       4.278   6.269  17.199  0.00  0.00    +0.000 C 
BRANCH  18  19
ATOM     19  C   UNL     1       3.886   5.456  18.442  0.00  0.00    +0.000 C 
BRANCH  19  20
ATOM     20  N   UNL     1       4.056   4.010  18.197  0.00  0.00    +0.000 NA
ATOM     21  C   UNL     1       2.901   3.377  17.519  0.00  0.00    +0.000 C 
ATOM     22  C   UNL     1       1.680   3.186  18.430  0.00  0.00    +0.000 C 
ATOM     23  O   UNL     1       2.019   2.367  19.556  0.00  0.00    +0.000 OA
ATOM     24  C   UNL     1       3.088   2.957  20.307  0.00  0.00    +0.000 C 
ATOM     25  C   UNL     1       4.326   3.242  19.433  0.00  0.00    +0.000 C 
ENDBRANCH  19  20
ENDBRANCH  18  19
ENDBRANCH  17  18
ENDBRANCH   3  17
TORSDOF 7
ENDMDL
MODEL 5
REMARK VINA RESULT:      -7.4      0.860      1.090
REMARK  Name = 
REMARK  8 active torsions:
REMARK  status: ('A' for Active; 'I' for Inactive)
REMARK    1  A    between atoms: C_1  and  O_2
REMARK    2  A    between atoms: O_2  and  C_3
REMARK    3  A    between atoms: C_7  and  C_8
REMARK    4  A    between atoms: C_9  and  C_10
REMARK    5  A    between atoms: N_12  and  C_13
REMARK    6  A    between atoms: C_13  and  C_14
REMARK    7  A    between atoms: C_14  and  C_15
REMARK    8  A    between atoms: C_15  and  N_16
REMARK                            x       y       z     vdW  Elec       q    Type
REMARK                         _______ _______ _______ _____ _____    ______ ____
ROOT
ATOM      1  C   UNL     1       7.797   7.446  17.900  0.00  0.00    +0.000 C 
ATOM      2  O   UNL     1       8.219   6.613  18.688  0.00  0.00    +0.000 OA
ATOM      3  N   UNL     1       6.862   7.182  16.927  0.00  0.00    +0.000 N 
ATOM      4  H   UNL     1       6.488   7.939  16.371  0.00  0.00    +0.000 HD
ENDROOT
BRANCH   1   6
ATOM      5  C   UNL     1       8.933   9.318  18.994  0.00  0.00    +0.000 C 
ATOM      6  C   UNL     1       8.228   8.870  17.942  0.00  0.00    +0.000 C 
BRANCH   5  11
ATOM      7  C   UNL     1      10.376  13.377  19.432  0.00  0.00    +0.000 A 
ATOM      8  C   UNL     1       9.713  12.739  20.492  0.00  0.00    +0.000 A 
ATOM      9 BR   UNL     1       9.246  13.543  22.154  0.00  0.00    +0.000 Br
ATOM     10  C   UNL     1       9.261  11.411  20.355  0.00  0.00    +0.000 A 
ATOM     11  C   UNL     1       9.416  10.700  19.161  0.00  0.00    +0.000 A 
ATOM     12  C   UNL     1      10.089  11.322  18.110  0.00  0.00    +0.000 A 
ATOM     13  C   UNL     1      10.553  12.640  18.243  0.00  0.00    +0.000 A 
ATOM     14 BR   UNL     1      11.438  13.392  16.729  0.00  0.00    +0.000 Br
BRANCH   7  16
ATOM     15  C   UNL     1       9.865  15.725  19.201  0.00  0.00    +0.000 C 
ATOM     16  O   UNL     1      10.805  14.675  19.369  0.00  0.00    +0.000 OA
ENDBRANCH   7  16
ENDBRANCH   5  11
ENDBRANCH   1   6
BRANCH   3  17
ATOM     17  C   UNL     1       6.170   5.900  16.878  0.00  0.00    +0.000 C 
BRANCH  17  18
ATOM     18  C   UNL     1       4.995   5.904  17.851  0.00  0.00    +0.000 C 
BRANCH  18  19
ATOM     19  C   UNL     1       3.811   5.027  17.417  0.00  0.00    +0.000 C 
BRANCH  19  20
ATOM     20  N   UNL     1       2.786   4.969  18.478  0.00  0.00    +0.000 NA
ATOM     21  C   UNL     1       3.274   4.395  19.753  0.00  0.00    +0.000 C 
ATOM     22  C   UNL     1       3.465   2.872  19.710  0.00  0.00    +0.000 C 
ATOM     23  O   UNL     1       2.230   2.221  19.391  0.00  0.00    +0.000 OA
ATOM     24  C   UNL     1       1.730   2.675  18.127  0.00  0.00    +0.000 C 
ATOM     25  C   UNL     1       1.581   4.209  18.076  0.00  0.00    +0.000 C 
ENDBRANCH  19  20
ENDBRANCH  18  19
ENDBRANCH  17  18
ENDBRANCH   3  17
TORSDOF 7
ENDMDL
MODEL 6
REMARK VINA RESULT:      -7.3      1.580      1.825
REMARK  Name = 
REMARK  8 active torsions:
REMARK  status: ('A' for Active; 'I' for Inactive)
REMARK    1  A    between atoms: C_1  and  O_2
REMARK    2  A    between atoms: O_2  and  C_3
REMARK    3  A    between atoms: C_7  and  C_8
REMARK    4  A    between atoms: C_9  and  C_10
REMARK    5  A    between atoms: N_12  and  C_13
REMARK    6  A    between atoms: C_13  and  C_14
REMARK    7  A    between atoms: C_14  and  C_15
REMARK    8  A    between atoms: C_15  and  N_16
REMARK                            x       y       z     vdW  Elec       q    Type
REMARK                         _______ _______ _______ _____ _____    ______ ____
ROOT
ATOM      1  C   UNL     1       7.609   6.993  17.742  0.00  0.00    +0.000 C 
ATOM      2  O   UNL     1       7.676   6.853  16.531  0.00  0.00    +0.000 OA
ATOM      3  N   UNL     1       6.854   6.196  18.570  0.00  0.00    +0.000 N 
ATOM      4  H   UNL     1       6.919   6.308  19.573  0.00  0.00    +0.000 HD
ENDROOT
BRANCH   1   6
ATOM      5  C   UNL     1       8.401   9.295  18.001  0.00  0.00    +0.000 C 
ATOM      6  C   UNL     1       8.387   8.035  18.467  0.00  0.00    +0.000 C 
BRANCH   5  11
ATOM      7  C   UNL     1      10.572  12.601  19.763  0.00  0.00    +0.000 A 
ATOM      8  C   UNL     1       9.650  11.867  20.527  0.00  0.00    +0.000 A 
ATOM      9 BR   UNL     1       9.130  12.257  22.316  0.00  0.00    +0.000 Br
ATOM     10  C   UNL     1       8.958  10.779  19.957  0.00  0.00    +0.000 A 
ATOM     11  C   UNL     1       9.130  10.417  18.618  0.00  0.00    +0.000 A 
ATOM     12  C   UNL     1      10.056  11.132  17.858  0.00  0.00    +0.000 A 
ATOM     13  C   UNL     1      10.758  12.209  18.422  0.00  0.00    +0.000 A 
ATOM     14 BR   UNL     1      11.982  13.123  17.278  0.00  0.00    +0.000 Br
BRANCH   7  16
ATOM     15  C   UNL     1      10.597  14.974  20.203  0.00  0.00    +0.000 C 
ATOM     16  O   UNL     1      11.263  13.724  20.132  0.00  0.00    +0.000 OA
ENDBRANCH   7  16
ENDBRANCH   5  11
ENDBRANCH   1   6
BRANCH   3  17
ATOM     17  C   UNL     1       6.200   4.995  18.065  0.00  0.00    +0.000 C 
BRANCH  17  18
ATOM     18  C   UNL     1       4.689   5.202  18.025  0.00  0.00    +0.000 C 
BRANCH  18  19
ATOM     19  C   UNL     1       4.014   5.212  19.405  0.00  0.00    +0.000 C 
BRANCH  19  20
ATOM     20  N   UNL     1       2.567   5.475  19.278  0.00  0.00    +0.000 NA
ATOM     21  C   UNL     1       1.815   5.314  20.544  0.00  0.00    +0.000 C 
ATOM     22  C   UNL     1       1.619   3.850  20.962  0.00  0.00    +0.000 C 
ATOM     23  O   UNL     1       0.909   3.130  19.947  0.00  0.00    +0.000 OA
ATOM     24  C   UNL     1       1.618   3.180  18.702  0.00  0.00    +0.000 C 
ATOM     25  C   UNL     1       1.913   4.627  18.257  0.00  0.00    +0.000 C 
ENDBRANCH  19  20
ENDBRANCH  18  19
ENDBRANCH  17  18
ENDBRANCH   3  17
TORSDOF 7
ENDMDL
MODEL 7
REMARK VINA RESULT:      -7.2      1.590      1.971
REMARK  Name = 
REMARK  8 active torsions:
REMARK  status: ('A' for Active; 'I' for Inactive)
REMARK    1  A    between atoms: C_1  and  O_2
REMARK    2  A    between atoms: O_2  and  C_3
REMARK    3  A    between atoms: C_7  and  C_8
REMARK    4  A    between atoms: C_9  and  C_10
REMARK    5  A    between atoms: N_12  and  C_13
REMARK    6  A    between atoms: C_13  and  C_14
REMARK    7  A    between atoms: C_14  and  C_15
REMARK    8  A    between atoms: C_15  and  N_16
REMARK                            x       y       z     vdW  Elec       q    Type
REMARK                         _______ _______ _______ _____ _____    ______ ____
ROOT
ATOM      1  C   UNL     1       7.644   7.199  17.829  0.00  0.00    +0.000 C 
ATOM      2  O   UNL     1       7.318   7.306  16.656  0.00  0.00    +0.000 OA
ATOM      3  N   UNL     1       7.425   6.076  18.591  0.00  0.00    +0.000 N 
ATOM      4  H   UNL     1       7.806   6.019  19.525  0.00  0.00    +0.000 HD
ENDROOT
BRANCH   1   6
ATOM      5  C   UNL     1       8.591   9.454  17.943  0.00  0.00    +0.000 C 
ATOM      6  C   UNL     1       8.367   8.279  18.555  0.00  0.00    +0.000 C 
BRANCH   5  11
ATOM      7  C   UNL     1      10.684  12.832  19.661  0.00  0.00    +0.000 A 
ATOM      8  C   UNL     1       9.765  12.100  20.428  0.00  0.00    +0.000 A 
ATOM      9 BR   UNL     1       9.215  12.519  22.202  0.00  0.00    +0.000 Br
ATOM     10  C   UNL     1       9.099  10.988  19.874  0.00  0.00    +0.000 A 
ATOM     11  C   UNL     1       9.293  10.601  18.544  0.00  0.00    +0.000 A 
ATOM     12  C   UNL     1      10.218  11.314  17.782  0.00  0.00    +0.000 A 
ATOM     13  C   UNL     1      10.894  12.415  18.330  0.00  0.00    +0.000 A 
ATOM     14 BR   UNL     1      12.118  13.325  17.183  0.00  0.00    +0.000 Br
BRANCH   7  16
ATOM     15  C   UNL     1      10.663  15.213  20.060  0.00  0.00    +0.000 C 
ATOM     16  O   UNL     1      11.352  13.974  20.014  0.00  0.00    +0.000 OA
ENDBRANCH   7  16
ENDBRANCH   5  11
ENDBRANCH   1   6
BRANCH   3  17
ATOM     17  C   UNL     1       6.928   4.845  17.988  0.00  0.00    +0.000 C 
BRANCH  17  18
ATOM     18  C   UNL     1       5.403   4.831  18.012  0.00  0.00    +0.000 C 
BRANCH  18  19
ATOM     19  C   UNL     1       4.795   4.052  19.188  0.00  0.00    +0.000 C 
BRANCH  19  20
ATOM     20  N   UNL     1       3.385   3.710  18.917  0.00  0.00    +0.000 NA
ATOM     21  C   UNL     1       2.432   4.799  19.232  0.00  0.00    +0.000 C 
ATOM     22  C   UNL     1       2.203   5.002  20.737  0.00  0.00    +0.000 C 
ATOM     23  O   UNL     1       1.695   3.801  21.332  0.00  0.00    +0.000 OA
ATOM     24  C   UNL     1       2.604   2.712  21.129  0.00  0.00    +0.000 C 
ATOM     25  C   UNL     1       2.935   2.498  19.639  0.00  0.00    +0.000 C 
ENDBRANCH  19  20
ENDBRANCH  18  19
ENDBRANCH  17  18
ENDBRANCH   3  17
TORSDOF 7
ENDMDL
MODEL 8
REMARK VINA RESULT:      -7.2      1.307      2.451
REMARK  Name = 
REMARK  8 active torsions:
REMARK  status: ('A' for Active; 'I' for Inactive)
REMARK    1  A    between atoms: C_1  and  O_2
REMARK    2  A    between atoms: O_2  and  C_3
REMARK    3  A    between atoms: C_7  and  C_8
REMARK    4  A    between atoms: C_9  and  C_10
REMARK    5  A    between atoms: N_12  and  C_13
REMARK    6  A    between atoms: C_13  and  C_14
REMARK    7  A    between atoms: C_14  and  C_15
REMARK    8  A    between atoms: C_15  and  N_16
REMARK                            x       y       z     vdW  Elec       q    Type
REMARK                         _______ _______ _______ _____ _____    ______ ____
ROOT
ATOM      1  C   UNL     1       7.544   7.403  17.518  0.00  0.00    +0.000 C 
ATOM      2  O   UNL     1       7.054   6.996  16.476  0.00  0.00    +0.000 OA
ATOM      3  N   UNL     1       7.796   6.611  18.613  0.00  0.00    +0.000 N 
ATOM      4  H   UNL     1       8.291   6.992  19.408  0.00  0.00    +0.000 HD
ENDROOT
BRANCH   1   6
ATOM      5  C   UNL     1       8.837   9.131  18.674  0.00  0.00    +0.000 C 
ATOM      6  C   UNL     1       7.969   8.819  17.698  0.00  0.00    +0.000 C 
BRANCH   5  11
ATOM      7  C   UNL     1      10.278  13.114  19.573  0.00  0.00    +0.000 A 
ATOM      8  C   UNL     1      10.472  12.557  18.299  0.00  0.00    +0.000 A 
ATOM      9 BR   UNL     1      11.457  13.353  16.877  0.00  0.00    +0.000 Br
ATOM     10  C   UNL     1       9.985  11.268  18.002  0.00  0.00    +0.000 A 
ATOM     11  C   UNL     1       9.335  10.487  18.962  0.00  0.00    +0.000 A 
ATOM     12  C   UNL     1       9.124  11.041  20.225  0.00  0.00    +0.000 A 
ATOM     13  C   UNL     1       9.595  12.329  20.525  0.00  0.00    +0.000 A 
ATOM     14 BR   UNL     1       9.266  12.969  22.292  0.00  0.00    +0.000 Br
BRANCH   7  16
ATOM     15  C   UNL     1      10.131  15.522  19.659  0.00  0.00    +0.000 C 
ATOM     16  O   UNL     1      10.750  14.307  20.049  0.00  0.00    +0.000 OA
ENDBRANCH   7  16
ENDBRANCH   5  11
ENDBRANCH   1   6
BRANCH   3  17
ATOM     17  C   UNL     1       7.647   5.162  18.542  0.00  0.00    +0.000 C 
BRANCH  17  18
ATOM     18  C   UNL     1       6.228   4.804  18.113  0.00  0.00    +0.000 C 
BRANCH  18  19
ATOM     19  C   UNL     1       5.268   4.515  19.277  0.00  0.00    +0.000 C 
BRANCH  19  20
ATOM     20  N   UNL     1       4.425   3.340  18.981  0.00  0.00    +0.000 NA
ATOM     21  C   UNL     1       3.672   3.447  17.709  0.00  0.00    +0.000 C 
ATOM     22  C   UNL     1       2.483   4.416  17.775  0.00  0.00    +0.000 C 
ATOM     23  O   UNL     1       1.558   4.004  18.789  0.00  0.00    +0.000 OA
ATOM     24  C   UNL     1       2.200   3.948  20.068  0.00  0.00    +0.000 C 
ATOM     25  C   UNL     1       3.449   3.044  20.055  0.00  0.00    +0.000 C 
ENDBRANCH  19  20
ENDBRANCH  18  19
ENDBRANCH  17  18
ENDBRANCH   3  17
TORSDOF 7
ENDMDL
MODEL 9
REMARK VINA RESULT:      -7.1      1.130      2.464
REMARK  Name = 
REMARK  8 active torsions:
REMARK  status: ('A' for Active; 'I' for Inactive)
REMARK    1  A    between atoms: C_1  and  O_2
REMARK    2  A    between atoms: O_2  and  C_3
REMARK    3  A    between atoms: C_7  and  C_8
REMARK    4  A    between atoms: C_9  and  C_10
REMARK    5  A    between atoms: N_12  and  C_13
REMARK    6  A    between atoms: C_13  and  C_14
REMARK    7  A    between atoms: C_14  and  C_15
REMARK    8  A    between atoms: C_15  and  N_16
REMARK                            x       y       z     vdW  Elec       q    Type
REMARK                         _______ _______ _______ _____ _____    ______ ____
ROOT
ATOM      1  C   UNL     1       7.552   7.410  17.608  0.00  0.00    +0.000 C 
ATOM      2  O   UNL     1       8.164   6.495  18.139  0.00  0.00    +0.000 OA
ATOM      3  N   UNL     1       6.380   7.249  16.908  0.00  0.00    +0.000 N 
ATOM      4  H   UNL     1       5.877   8.061  16.576  0.00  0.00    +0.000 HD
ENDROOT
BRANCH   1   6
ATOM      5  C   UNL     1       8.792   9.204  18.720  0.00  0.00    +0.000 C 
ATOM      6  C   UNL     1       7.999   8.827  17.703  0.00  0.00    +0.000 C 
BRANCH   5  11
ATOM      7  C   UNL     1      10.268  13.217  19.402  0.00  0.00    +0.000 A 
ATOM      8  C   UNL     1      10.425  12.604  18.148  0.00  0.00    +0.000 A 
ATOM      9 BR   UNL     1      11.371  13.334  16.665  0.00  0.00    +0.000 Br
ATOM     10  C   UNL     1       9.926  11.305  17.922  0.00  0.00    +0.000 A 
ATOM     11  C   UNL     1       9.301  10.570  18.933  0.00  0.00    +0.000 A 
ATOM     12  C   UNL     1       9.128  11.179  20.176  0.00  0.00    +0.000 A 
ATOM     13  C   UNL     1       9.611  12.477  20.406  0.00  0.00    +0.000 A 
ATOM     14 BR   UNL     1       9.334  13.196  22.152  0.00  0.00    +0.000 Br
BRANCH   7  16
ATOM     15  C   UNL     1      12.157  14.658  19.830  0.00  0.00    +0.000 C 
ATOM     16  O   UNL     1      10.758  14.428  19.812  0.00  0.00    +0.000 OA
ENDBRANCH   7  16
ENDBRANCH   5  11
ENDBRANCH   1   6
BRANCH   3  17
ATOM     17  C   UNL     1       5.682   5.969  16.896  0.00  0.00    +0.000 C 
BRANCH  17  18
ATOM     18  C   UNL     1       4.191   6.186  17.132  0.00  0.00    +0.000 C 
BRANCH  18  19
ATOM     19  C   UNL     1       3.703   5.770  18.529  0.00  0.00    +0.000 C 
BRANCH  19  20
ATOM     20  N   UNL     1       2.504   4.916  18.432  0.00  0.00    +0.000 NA
ATOM     21  C   UNL     1       2.065   4.349  19.729  0.00  0.00    +0.000 C 
ATOM     22  C   UNL     1       2.962   3.213  20.241  0.00  0.00    +0.000 C 
ATOM     23  O   UNL     1       2.999   2.139  19.293  0.00  0.00    +0.000 OA
ATOM     24  C   UNL     1       3.486   2.598  18.026  0.00  0.00    +0.000 C 
ATOM     25  C   UNL     1       2.671   3.790  17.485  0.00  0.00    +0.000 C 
ENDBRANCH  19  20
ENDBRANCH  18  19
ENDBRANCH  17  18
ENDBRANCH   3  17
TORSDOF 7
ENDMDL
