MODEL 1
REMARK VINA RESULT:      -6.6      0.000      0.000
REMARK  Name = 
REMARK  10 active torsions:
REMARK  status: ('A' for Active; 'I' for Inactive)
REMARK    1  A    between atoms: C_1  and  O_2
REMARK    2  A    between atoms: O_2  and  C_3
REMARK    3  A    between atoms: C_3  and  C_5
REMARK    4  A    between atoms: C_17  and  C_18
REMARK    5  A    between atoms: C_20  and  O_21
REMARK    6  A    between atoms: O_21  and  C_22
REMARK    7  A    between atoms: C_23  and  O_24
REMARK    8  A    between atoms: O_24  and  C_25
REMARK    9  A    between atoms: C_26  and  O_27
REMARK   10  A    between atoms: O_27  and  C_28
REMARK                            x       y       z     vdW  Elec       q    Type
REMARK                         _______ _______ _______ _____ _____    ______ ____
ROOT
ATOM      1  C   UNL     1      -1.987  12.136  21.625  0.00  0.00    +0.000 C 
ATOM      2  C   UNL     1      -3.141  13.114  21.444  0.00  0.00    +0.000 C 
ATOM      3  C   UNL     1      -4.135  13.206  22.578  0.00  0.00    +0.000 C 
ATOM      4  O   UNL     1      -5.410  13.358  21.937  0.00  0.00    +0.000 OA
ATOM      5  N   UNL     1      -5.330  12.789  20.642  0.00  0.00    +0.000 NA
ATOM      6  C   UNL     1      -4.071  12.622  20.382  0.00  0.00    +0.000 C 
ATOM      7  C   UNL     1      -3.541  11.970  19.171  0.00  0.00    +0.000 A 
ATOM      8  C   UNL     1      -4.340  11.817  18.033  0.00  0.00    +0.000 A 
ATOM      9  C   UNL     1      -3.771  11.189  16.943  0.00  0.00    +0.000 A 
ATOM     10  C   UNL     1      -2.507  10.645  16.993  0.00  0.00    +0.000 A 
ATOM     11  C   UNL     1      -1.705  10.764  18.100  0.00  0.00    +0.000 A 
ATOM     12  C   UNL     1      -2.201  11.502  19.187  0.00  0.00    +0.000 A 
ATOM     13  C   UNL     1      -1.233  11.900  20.292  0.00  0.00    +0.000 C 
ATOM     14  O   UNL     1      -2.138  10.070  15.817  0.00  0.00    +0.000 OA
ATOM     15  C   UNL     1      -3.184  10.569  14.963  0.00  0.00    +0.000 C 
ATOM     16  O   UNL     1      -4.326  11.053  15.706  0.00  0.00    +0.000 OA
ENDROOT
BRANCH  13  17
ATOM     17  C   UNL     1      -0.347  13.067  19.823  0.00  0.00    +0.000 A 
ATOM     18  C   UNL     1      -0.871  14.191  19.162  0.00  0.00    +0.000 A 
ATOM     19  C   UNL     1      -0.056  15.262  18.784  0.00  0.00    +0.000 A 
ATOM     20  C   UNL     1       1.331  15.208  19.020  0.00  0.00    +0.000 A 
ATOM     21  C   UNL     1       1.890  14.050  19.596  0.00  0.00    +0.000 A 
ATOM     22  C   UNL     1       1.043  13.007  20.011  0.00  0.00    +0.000 A 
BRANCH  19  23
ATOM     23  O   UNL     1      -0.553  16.414  18.214  0.00  0.00    +0.000 OA
ATOM     24  C   UNL     1      -1.305  17.284  19.056  0.00  0.00    +0.000 C 
ENDBRANCH  19  23
BRANCH  20  25
ATOM     25  O   UNL     1       2.042  16.295  18.556  0.00  0.00    +0.000 OA
ATOM     26  C   UNL     1       2.415  17.285  19.507  0.00  0.00    +0.000 C 
ENDBRANCH  20  25
BRANCH  21  27
ATOM     27  O   UNL     1       3.255  13.986  19.706  0.00  0.00    +0.000 OA
ATOM     28  C   UNL     1       3.843  14.201  20.982  0.00  0.00    +0.000 C 
ENDBRANCH  21  27
ENDBRANCH  13  17
BRANCH   1  29
ATOM     29  C   UNL     1      -0.978  12.466  22.696  0.00  0.00    +0.000 C 
ATOM     30  O   UNL     1      -0.906  13.585  23.203  0.00  0.00    +0.000 OA
BRANCH  29  32
ATOM     31  C   UNL     1      -0.862  10.202  23.230  0.00  0.00    +0.000 C 
ATOM     32  O   UNL     1      -0.165  11.430  23.010  0.00  0.00    +0.000 OA
ENDBRANCH  29  32
ENDBRANCH   1  29
TORSDOF 6
ENDMDL
MODEL 2
REMARK VINA RESULT:      -6.4      0.174      2.157
REMARK  Name = 
REMARK  10 active torsions:
REMARK  status: ('A' for Active; 'I' for Inactive)
REMARK    1  A    between atoms: C_1  and  O_2
REMARK    2  A    between atoms: O_2  and  C_3
REMARK    3  A    between atoms: C_3  and  C_5
REMARK    4  A    between atoms: C_17  and  C_18
REMARK    5  A    between atoms: C_20  and  O_21
REMARK    6  A    between atoms: O_21  and  C_22
REMARK    7  A    between atoms: C_23  and  O_24
REMARK    8  A    between atoms: O_24  and  C_25
REMARK    9  A    between atoms: C_26  and  O_27
REMARK   10  A    between atoms: O_27  and  C_28
REMARK                            x       y       z     vdW  Elec       q    Type
REMARK                         _______ _______ _______ _____ _____    ______ ____
ROOT
ATOM      1  C   UNL     1      -1.897  12.039  21.720  0.00  0.00    +0.000 C 
ATOM      2  C   UNL     1      -3.022  13.057  21.588  0.00  0.00    +0.000 C 
ATOM      3  C   UNL     1      -3.995  13.147  22.740  0.00  0.00    +0.000 C 
ATOM      4  O   UNL     1      -5.274  13.357  22.126  0.00  0.00    +0.000 OA
ATOM      5  N   UNL     1      -5.233  12.824  20.813  0.00  0.00    +0.000 NA
ATOM      6  C   UNL     1      -3.985  12.626  20.527  0.00  0.00    +0.000 C 
ATOM      7  C   UNL     1      -3.494  11.995  19.289  0.00  0.00    +0.000 A 
ATOM      8  C   UNL     1      -4.316  11.901  18.161  0.00  0.00    +0.000 A 
ATOM      9  C   UNL     1      -3.785  11.288  17.044  0.00  0.00    +0.000 A 
ATOM     10  C   UNL     1      -2.538  10.703  17.056  0.00  0.00    +0.000 A 
ATOM     11  C   UNL     1      -1.715  10.765  18.152  0.00  0.00    +0.000 A 
ATOM     12  C   UNL     1      -2.170  11.485  19.269  0.00  0.00    +0.000 A 
ATOM     13  C   UNL     1      -1.173  11.820  20.368  0.00  0.00    +0.000 C 
ATOM     14  O   UNL     1      -2.206  10.152  15.858  0.00  0.00    +0.000 OA
ATOM     15  C   UNL     1      -3.250  10.709  15.037  0.00  0.00    +0.000 C 
ATOM     16  O   UNL     1      -4.363  11.206  15.813  0.00  0.00    +0.000 OA
ENDROOT
BRANCH  13  17
ATOM     17  C   UNL     1      -0.258  12.972  19.919  0.00  0.00    +0.000 A 
ATOM     18  C   UNL     1       1.126  12.973  20.165  0.00  0.00    +0.000 A 
ATOM     19  C   UNL     1       1.948  14.008  19.709  0.00  0.00    +0.000 A 
ATOM     20  C   UNL     1       1.386  15.106  19.028  0.00  0.00    +0.000 A 
ATOM     21  C   UNL     1      -0.011  15.169  18.854  0.00  0.00    +0.000 A 
ATOM     22  C   UNL     1      -0.810  14.093  19.279  0.00  0.00    +0.000 A 
BRANCH  19  23
ATOM     23  O   UNL     1       3.317  13.995  19.859  0.00  0.00    +0.000 OA
ATOM     24  C   UNL     1       3.829  14.153  21.180  0.00  0.00    +0.000 C 
ENDBRANCH  19  23
BRANCH  20  25
ATOM     25  O   UNL     1       2.283  16.091  18.674  0.00  0.00    +0.000 OA
ATOM     26  C   UNL     1       2.413  17.202  19.554  0.00  0.00    +0.000 C 
ENDBRANCH  20  25
BRANCH  21  27
ATOM     27  O   UNL     1      -0.533  16.304  18.289  0.00  0.00    +0.000 OA
ATOM     28  C   UNL     1      -1.279  17.189  19.113  0.00  0.00    +0.000 C 
ENDBRANCH  21  27
ENDBRANCH  13  17
BRANCH   1  29
ATOM     29  C   UNL     1      -0.861  12.306  22.783  0.00  0.00    +0.000 C 
ATOM     30  O   UNL     1      -0.745  13.406  23.321  0.00  0.00    +0.000 OA
BRANCH  29  32
ATOM     31  C   UNL     1      -0.806  10.016  23.208  0.00  0.00    +0.000 C 
ATOM     32  O   UNL     1      -0.077  11.236  23.053  0.00  0.00    +0.000 OA
ENDBRANCH  29  32
ENDBRANCH   1  29
TORSDOF 6
ENDMDL
MODEL 3
REMARK VINA RESULT:      -6.2      2.973      6.588
REMARK  Name = 
REMARK  10 active torsions:
REMARK  status: ('A' for Active; 'I' for Inactive)
REMARK    1  A    between atoms: C_1  and  O_2
REMARK    2  A    between atoms: O_2  and  C_3
REMARK    3  A    between atoms: C_3  and  C_5
REMARK    4  A    between atoms: C_17  and  C_18
REMARK    5  A    between atoms: C_20  and  O_21
REMARK    6  A    between atoms: O_21  and  C_22
REMARK    7  A    between atoms: C_23  and  O_24
REMARK    8  A    between atoms: O_24  and  C_25
REMARK    9  A    between atoms: C_26  and  O_27
REMARK   10  A    between atoms: O_27  and  C_28
REMARK                            x       y       z     vdW  Elec       q    Type
REMARK                         _______ _______ _______ _____ _____    ______ ____
ROOT
ATOM      1  C   UNL     1      -1.434  11.788  18.291  0.00  0.00    +0.000 C 
ATOM      2  C   UNL     1      -1.889  12.095  19.712  0.00  0.00    +0.000 C 
ATOM      3  C   UNL     1      -3.324  12.537  19.883  0.00  0.00    +0.000 C 
ATOM      4  O   UNL     1      -3.278  13.547  20.901  0.00  0.00    +0.000 OA
ATOM      5  N   UNL     1      -1.984  14.126  20.898  0.00  0.00    +0.000 NA
ATOM      6  C   UNL     1      -1.221  13.337  20.210  0.00  0.00    +0.000 C 
ATOM      7  C   UNL     1       0.189  13.608  19.877  0.00  0.00    +0.000 A 
ATOM      8  C   UNL     1       0.922  14.559  20.596  0.00  0.00    +0.000 A 
ATOM      9  C   UNL     1       2.235  14.760  20.217  0.00  0.00    +0.000 A 
ATOM     10  C   UNL     1       2.783  14.130  19.121  0.00  0.00    +0.000 A 
ATOM     11  C   UNL     1       2.084  13.205  18.387  0.00  0.00    +0.000 A 
ATOM     12  C   UNL     1       0.785  12.883  18.813  0.00  0.00    +0.000 A 
ATOM     13  C   UNL     1       0.108  11.661  18.208  0.00  0.00    +0.000 C 
ATOM     14  O   UNL     1       4.084  14.468  18.919  0.00  0.00    +0.000 OA
ATOM     15  C   UNL     1       4.357  15.139  20.164  0.00  0.00    +0.000 C 
ATOM     16  O   UNL     1       3.153  15.537  20.858  0.00  0.00    +0.000 OA
ENDROOT
BRANCH  13  17
ATOM     17  C   UNL     1       0.695  10.376  18.817  0.00  0.00    +0.000 A 
ATOM     18  C   UNL     1       0.718  10.143  20.203  0.00  0.00    +0.000 A 
ATOM     19  C   UNL     1       1.215   8.950  20.734  0.00  0.00    +0.000 A 
ATOM     20  C   UNL     1       1.753   7.968  19.879  0.00  0.00    +0.000 A 
ATOM     21  C   UNL     1       1.824   8.221  18.495  0.00  0.00    +0.000 A 
ATOM     22  C   UNL     1       1.275   9.409  17.980  0.00  0.00    +0.000 A 
BRANCH  19  23
ATOM     23  O   UNL     1       1.171   8.656  22.080  0.00  0.00    +0.000 OA
ATOM     24  C   UNL     1       0.272   9.418  22.882  0.00  0.00    +0.000 C 
ENDBRANCH  19  23
BRANCH  20  25
ATOM     25  O   UNL     1       2.263   6.857  20.518  0.00  0.00    +0.000 OA
ATOM     26  C   UNL     1       1.486   5.666  20.475  0.00  0.00    +0.000 C 
ENDBRANCH  20  25
BRANCH  21  27
ATOM     27  O   UNL     1       2.456   7.294  17.708  0.00  0.00    +0.000 OA
ATOM     28  C   UNL     1       3.874   7.337  17.616  0.00  0.00    +0.000 C 
ENDBRANCH  21  27
ENDBRANCH  13  17
BRANCH   1  29
ATOM     29  C   UNL     1      -2.052  10.585  17.624  0.00  0.00    +0.000 C 
ATOM     30  O   UNL     1      -2.437   9.608  18.266  0.00  0.00    +0.000 OA
BRANCH  29  32
ATOM     31  C   UNL     1      -3.440  10.829  15.770  0.00  0.00    +0.000 C 
ATOM     32  O   UNL     1      -2.111  10.685  16.276  0.00  0.00    +0.000 OA
ENDBRANCH  29  32
ENDBRANCH   1  29
TORSDOF 6
ENDMDL
MODEL 4
REMARK VINA RESULT:      -6.2      2.989      6.669
REMARK  Name = 
REMARK  10 active torsions:
REMARK  status: ('A' for Active; 'I' for Inactive)
REMARK    1  A    between atoms: C_1  and  O_2
REMARK    2  A    between atoms: O_2  and  C_3
REMARK    3  A    between atoms: C_3  and  C_5
REMARK    4  A    between atoms: C_17  and  C_18
REMARK    5  A    between atoms: C_20  and  O_21
REMARK    6  A    between atoms: O_21  and  C_22
REMARK    7  A    between atoms: C_23  and  O_24
REMARK    8  A    between atoms: O_24  and  C_25
REMARK    9  A    between atoms: C_26  and  O_27
REMARK   10  A    between atoms: O_27  and  C_28
REMARK                            x       y       z     vdW  Elec       q    Type
REMARK                         _______ _______ _______ _____ _____    ______ ____
ROOT
ATOM      1  C   UNL     1      -1.447  11.680  18.275  0.00  0.00    +0.000 C 
ATOM      2  C   UNL     1      -1.861  12.014  19.702  0.00  0.00    +0.000 C 
ATOM      3  C   UNL     1      -3.289  12.466  19.905  0.00  0.00    +0.000 C 
ATOM      4  O   UNL     1      -3.211  13.494  20.903  0.00  0.00    +0.000 OA
ATOM      5  N   UNL     1      -1.915  14.067  20.854  0.00  0.00    +0.000 NA
ATOM      6  C   UNL     1      -1.175  13.262  20.159  0.00  0.00    +0.000 C 
ATOM      7  C   UNL     1       0.227  13.520  19.784  0.00  0.00    +0.000 A 
ATOM      8  C   UNL     1       0.984  14.479  20.465  0.00  0.00    +0.000 A 
ATOM      9  C   UNL     1       2.287  14.667  20.047  0.00  0.00    +0.000 A 
ATOM     10  C   UNL     1       2.801  14.015  18.947  0.00  0.00    +0.000 A 
ATOM     11  C   UNL     1       2.078  13.081  18.249  0.00  0.00    +0.000 A 
ATOM     12  C   UNL     1       0.790  12.772  18.716  0.00  0.00    +0.000 A 
ATOM     13  C   UNL     1       0.092  11.543  18.152  0.00  0.00    +0.000 C 
ATOM     14  O   UNL     1       4.098  14.343  18.704  0.00  0.00    +0.000 OA
ATOM     15  C   UNL     1       4.408  15.035  19.929  0.00  0.00    +0.000 C 
ATOM     16  O   UNL     1       3.225  15.451  20.648  0.00  0.00    +0.000 OA
ENDROOT
BRANCH  13  17
ATOM     17  C   UNL     1       0.689  10.267  18.768  0.00  0.00    +0.000 A 
ATOM     18  C   UNL     1       1.294   9.267  17.987  0.00  0.00    +0.000 A 
ATOM     19  C   UNL     1       1.871   8.134  18.569  0.00  0.00    +0.000 A 
ATOM     20  C   UNL     1       1.813   7.953  19.964  0.00  0.00    +0.000 A 
ATOM     21  C   UNL     1       1.130   8.897  20.756  0.00  0.00    +0.000 A 
ATOM     22  C   UNL     1       0.599  10.051  20.152  0.00  0.00    +0.000 A 
BRANCH  19  23
ATOM     23  O   UNL     1       2.546   7.181  17.838  0.00  0.00    +0.000 OA
ATOM     24  C   UNL     1       3.891   7.477  17.470  0.00  0.00    +0.000 C 
ENDBRANCH  19  23
BRANCH  20  25
ATOM     25  O   UNL     1       2.366   6.775  20.421  0.00  0.00    +0.000 OA
ATOM     26  C   UNL     1       1.493   5.664  20.586  0.00  0.00    +0.000 C 
ENDBRANCH  20  25
BRANCH  21  27
ATOM     27  O   UNL     1       0.994   8.631  22.094  0.00  0.00    +0.000 OA
ATOM     28  C   UNL     1       0.154   9.473  22.871  0.00  0.00    +0.000 C 
ENDBRANCH  21  27
ENDBRANCH  13  17
BRANCH   1  29
ATOM     29  C   UNL     1      -2.088  10.467  17.648  0.00  0.00    +0.000 C 
ATOM     30  O   UNL     1      -2.605   9.578  18.323  0.00  0.00    +0.000 OA
BRANCH  29  32
ATOM     31  C   UNL     1      -3.214  10.881  15.651  0.00  0.00    +0.000 C 
ATOM     32  O   UNL     1      -2.012  10.455  16.296  0.00  0.00    +0.000 OA
ENDBRANCH  29  32
ENDBRANCH   1  29
TORSDOF 6
ENDMDL
MODEL 5
REMARK VINA RESULT:      -6.2      0.689      1.093
REMARK  Name = 
REMARK  10 active torsions:
REMARK  status: ('A' for Active; 'I' for Inactive)
REMARK    1  A    between atoms: C_1  and  O_2
REMARK    2  A    between atoms: O_2  and  C_3
REMARK    3  A    between atoms: C_3  and  C_5
REMARK    4  A    between atoms: C_17  and  C_18
REMARK    5  A    between atoms: C_20  and  O_21
REMARK    6  A    between atoms: O_21  and  C_22
REMARK    7  A    between atoms: C_23  and  O_24
REMARK    8  A    between atoms: O_24  and  C_25
REMARK    9  A    between atoms: C_26  and  O_27
REMARK   10  A    between atoms: O_27  and  C_28
REMARK                            x       y       z     vdW  Elec       q    Type
REMARK                         _______ _______ _______ _____ _____    ______ ____
ROOT
ATOM      1  C   UNL     1      -2.208  12.295  21.623  0.00  0.00    +0.000 C 
ATOM      2  C   UNL     1      -3.310  13.293  21.290  0.00  0.00    +0.000 C 
ATOM      3  C   UNL     1      -4.383  13.490  22.336  0.00  0.00    +0.000 C 
ATOM      4  O   UNL     1      -5.600  13.637  21.590  0.00  0.00    +0.000 OA
ATOM      5  N   UNL     1      -5.442  12.980  20.343  0.00  0.00    +0.000 NA
ATOM      6  C   UNL     1      -4.174  12.759  20.193  0.00  0.00    +0.000 C 
ATOM      7  C   UNL     1      -3.577  12.012  19.072  0.00  0.00    +0.000 A 
ATOM      8  C   UNL     1      -4.293  11.808  17.887  0.00  0.00    +0.000 A 
ATOM      9  C   UNL     1      -3.667  11.091  16.888  0.00  0.00    +0.000 A 
ATOM     10  C   UNL     1      -2.429  10.514  17.069  0.00  0.00    +0.000 A 
ATOM     11  C   UNL     1      -1.709  10.683  18.225  0.00  0.00    +0.000 A 
ATOM     12  C   UNL     1      -2.259  11.506  19.221  0.00  0.00    +0.000 A 
ATOM     13  C   UNL     1      -1.365  11.949  20.370  0.00  0.00    +0.000 C 
ATOM     14  O   UNL     1      -1.993   9.851  15.965  0.00  0.00    +0.000 OA
ATOM     15  C   UNL     1      -2.954  10.324  15.002  0.00  0.00    +0.000 C 
ATOM     16  O   UNL     1      -4.131  10.890  15.622  0.00  0.00    +0.000 OA
ENDROOT
BRANCH  13  17
ATOM     17  C   UNL     1      -0.406  13.055  19.897  0.00  0.00    +0.000 A 
ATOM     18  C   UNL     1      -0.847  14.172  19.167  0.00  0.00    +0.000 A 
ATOM     19  C   UNL     1       0.032  15.189  18.785  0.00  0.00    +0.000 A 
ATOM     20  C   UNL     1       1.404  15.084  19.088  0.00  0.00    +0.000 A 
ATOM     21  C   UNL     1       1.882  13.928  19.737  0.00  0.00    +0.000 A 
ATOM     22  C   UNL     1       0.970  12.942  20.153  0.00  0.00    +0.000 A 
BRANCH  19  23
ATOM     23  O   UNL     1      -0.385  16.336  18.146  0.00  0.00    +0.000 OA
ATOM     24  C   UNL     1      -1.178  17.248  18.901  0.00  0.00    +0.000 C 
ENDBRANCH  19  23
BRANCH  20  25
ATOM     25  O   UNL     1       2.184  16.118  18.615  0.00  0.00    +0.000 OA
ATOM     26  C   UNL     1       3.059  15.832  17.530  0.00  0.00    +0.000 C 
ENDBRANCH  20  25
BRANCH  21  27
ATOM     27  O   UNL     1       3.236  13.809  19.914  0.00  0.00    +0.000 OA
ATOM     28  C   UNL     1       3.797  14.227  21.151  0.00  0.00    +0.000 C 
ENDBRANCH  21  27
ENDBRANCH  13  17
BRANCH   1  29
ATOM     29  C   UNL     1      -1.271  12.666  22.745  0.00  0.00    +0.000 C 
ATOM     30  O   UNL     1      -0.728  11.816  23.451  0.00  0.00    +0.000 OA
BRANCH  29  32
ATOM     31  C   UNL     1      -1.382  14.457  24.230  0.00  0.00    +0.000 C 
ATOM     32  O   UNL     1      -1.117  14.001  22.901  0.00  0.00    +0.000 OA
ENDBRANCH  29  32
ENDBRANCH   1  29
TORSDOF 6
ENDMDL
MODEL 6
REMARK VINA RESULT:      -6.1      2.037      2.953
REMARK  Name = 
REMARK  10 active torsions:
REMARK  status: ('A' for Active; 'I' for Inactive)
REMARK    1  A    between atoms: C_1  and  O_2
REMARK    2  A    between atoms: O_2  and  C_3
REMARK    3  A    between atoms: C_3  and  C_5
REMARK    4  A    between atoms: C_17  and  C_18
REMARK    5  A    between atoms: C_20  and  O_21
REMARK    6  A    between atoms: O_21  and  C_22
REMARK    7  A    between atoms: C_23  and  O_24
REMARK    8  A    between atoms: O_24  and  C_25
REMARK    9  A    between atoms: C_26  and  O_27
REMARK   10  A    between atoms: O_27  and  C_28
REMARK                            x       y       z     vdW  Elec       q    Type
REMARK                         _______ _______ _______ _____ _____    ______ ____
ROOT
ATOM      1  C   UNL     1      -2.588  12.322  22.457  0.00  0.00    +0.000 C 
ATOM      2  C   UNL     1      -3.705  13.034  23.208  0.00  0.00    +0.000 C 
ATOM      3  C   UNL     1      -3.994  12.551  24.611  0.00  0.00    +0.000 C 
ATOM      4  O   UNL     1      -5.422  12.616  24.735  0.00  0.00    +0.000 OA
ATOM      5  N   UNL     1      -5.988  12.511  23.440  0.00  0.00    +0.000 NA
ATOM      6  C   UNL     1      -5.028  12.709  22.592  0.00  0.00    +0.000 C 
ATOM      7  C   UNL     1      -5.161  12.598  21.129  0.00  0.00    +0.000 A 
ATOM      8  C   UNL     1      -6.420  12.639  20.520  0.00  0.00    +0.000 A 
ATOM      9  C   UNL     1      -6.459  12.521  19.145  0.00  0.00    +0.000 A 
ATOM     10  C   UNL     1      -5.326  12.275  18.401  0.00  0.00    +0.000 A 
ATOM     11  C   UNL     1      -4.079  12.213  18.971  0.00  0.00    +0.000 A 
ATOM     12  C   UNL     1      -3.982  12.450  20.352  0.00  0.00    +0.000 A 
ATOM     13  C   UNL     1      -2.602  12.683  20.950  0.00  0.00    +0.000 C 
ATOM     14  O   UNL     1      -5.583  12.189  17.068  0.00  0.00    +0.000 OA
ATOM     15  C   UNL     1      -6.932  12.692  17.048  0.00  0.00    +0.000 C 
ATOM     16  O   UNL     1      -7.557  12.662  18.351  0.00  0.00    +0.000 OA
ENDROOT
BRANCH  13  17
ATOM     17  C   UNL     1      -2.110  14.100  20.609  0.00  0.00    +0.000 A 
ATOM     18  C   UNL     1      -2.817  15.253  20.990  0.00  0.00    +0.000 A 
ATOM     19  C   UNL     1      -2.331  16.534  20.710  0.00  0.00    +0.000 A 
ATOM     20  C   UNL     1      -1.132  16.689  19.988  0.00  0.00    +0.000 A 
ATOM     21  C   UNL     1      -0.457  15.546  19.515  0.00  0.00    +0.000 A 
ATOM     22  C   UNL     1      -0.941  14.269  19.851  0.00  0.00    +0.000 A 
BRANCH  19  23
ATOM     23  O   UNL     1      -2.956  17.681  21.147  0.00  0.00    +0.000 OA
ATOM     24  C   UNL     1      -2.950  17.931  22.550  0.00  0.00    +0.000 C 
ENDBRANCH  19  23
BRANCH  20  25
ATOM     25  O   UNL     1      -0.779  17.995  19.722  0.00  0.00    +0.000 OA
ATOM     26  C   UNL     1      -1.193  18.543  18.477  0.00  0.00    +0.000 C 
ENDBRANCH  20  25
BRANCH  21  27
ATOM     27  O   UNL     1       0.643  15.737  18.720  0.00  0.00    +0.000 OA
ATOM     28  C   UNL     1       1.930  15.681  19.319  0.00  0.00    +0.000 C 
ENDBRANCH  21  27
ENDBRANCH  13  17
BRANCH   1  29
ATOM     29  C   UNL     1      -1.187  12.511  22.983  0.00  0.00    +0.000 C 
ATOM     30  O   UNL     1      -0.861  13.505  23.631  0.00  0.00    +0.000 OA
BRANCH  29  32
ATOM     31  C   UNL     1      -0.755  10.228  23.142  0.00  0.00    +0.000 C 
ATOM     32  O   UNL     1      -0.344  11.506  22.650  0.00  0.00    +0.000 OA
ENDBRANCH  29  32
ENDBRANCH   1  29
TORSDOF 6
ENDMDL
MODEL 7
REMARK VINA RESULT:      -6.0      2.048      3.443
REMARK  Name = 
REMARK  10 active torsions:
REMARK  status: ('A' for Active; 'I' for Inactive)
REMARK    1  A    between atoms: C_1  and  O_2
REMARK    2  A    between atoms: O_2  and  C_3
REMARK    3  A    between atoms: C_3  and  C_5
REMARK    4  A    between atoms: C_17  and  C_18
REMARK    5  A    between atoms: C_20  and  O_21
REMARK    6  A    between atoms: O_21  and  C_22
REMARK    7  A    between atoms: C_23  and  O_24
REMARK    8  A    between atoms: O_24  and  C_25
REMARK    9  A    between atoms: C_26  and  O_27
REMARK   10  A    between atoms: O_27  and  C_28
REMARK                            x       y       z     vdW  Elec       q    Type
REMARK                         _______ _______ _______ _____ _____    ______ ____
ROOT
ATOM      1  C   UNL     1      -2.566  12.318  22.462  0.00  0.00    +0.000 C 
ATOM      2  C   UNL     1      -3.688  13.025  23.211  0.00  0.00    +0.000 C 
ATOM      3  C   UNL     1      -3.977  12.543  24.614  0.00  0.00    +0.000 C 
ATOM      4  O   UNL     1      -5.405  12.601  24.736  0.00  0.00    +0.000 OA
ATOM      5  N   UNL     1      -5.969  12.490  23.440  0.00  0.00    +0.000 NA
ATOM      6  C   UNL     1      -5.009  12.692  22.593  0.00  0.00    +0.000 C 
ATOM      7  C   UNL     1      -5.139  12.579  21.130  0.00  0.00    +0.000 A 
ATOM      8  C   UNL     1      -6.397  12.612  20.519  0.00  0.00    +0.000 A 
ATOM      9  C   UNL     1      -6.434  12.491  19.144  0.00  0.00    +0.000 A 
ATOM     10  C   UNL     1      -5.298  12.250  18.403  0.00  0.00    +0.000 A 
ATOM     11  C   UNL     1      -4.052  12.196  18.974  0.00  0.00    +0.000 A 
ATOM     12  C   UNL     1      -3.958  12.435  20.355  0.00  0.00    +0.000 A 
ATOM     13  C   UNL     1      -2.580  12.676  20.955  0.00  0.00    +0.000 C 
ATOM     14  O   UNL     1      -5.553  12.161  17.070  0.00  0.00    +0.000 OA
ATOM     15  C   UNL     1      -6.904  12.656  17.047  0.00  0.00    +0.000 C 
ATOM     16  O   UNL     1      -7.532  12.624  18.349  0.00  0.00    +0.000 OA
ENDROOT
BRANCH  13  17
ATOM     17  C   UNL     1      -2.096  14.095  20.612  0.00  0.00    +0.000 A 
ATOM     18  C   UNL     1      -0.902  14.333  19.910  0.00  0.00    +0.000 A 
ATOM     19  C   UNL     1      -0.501  15.628  19.569  0.00  0.00    +0.000 A 
ATOM     20  C   UNL     1      -1.275  16.734  19.972  0.00  0.00    +0.000 A 
ATOM     21  C   UNL     1      -2.426  16.523  20.757  0.00  0.00    +0.000 A 
ATOM     22  C   UNL     1      -2.833  15.208  21.046  0.00  0.00    +0.000 A 
BRANCH  19  23
ATOM     23  O   UNL     1       0.617  15.887  18.807  0.00  0.00    +0.000 OA
ATOM     24  C   UNL     1       1.714  14.986  18.934  0.00  0.00    +0.000 C 
ENDBRANCH  19  23
BRANCH  20  25
ATOM     25  O   UNL     1      -0.755  17.964  19.627  0.00  0.00    +0.000 OA
ATOM     26  C   UNL     1      -1.332  18.625  18.507  0.00  0.00    +0.000 C 
ENDBRANCH  20  25
BRANCH  21  27
ATOM     27  O   UNL     1      -3.090  17.626  21.226  0.00  0.00    +0.000 OA
ATOM     28  C   UNL     1      -2.953  17.965  22.600  0.00  0.00    +0.000 C 
ENDBRANCH  21  27
ENDBRANCH  13  17
BRANCH   1  29
ATOM     29  C   UNL     1      -1.167  12.516  22.990  0.00  0.00    +0.000 C 
ATOM     30  O   UNL     1      -0.837  13.530  23.603  0.00  0.00    +0.000 OA
BRANCH  29  32
ATOM     31  C   UNL     1      -0.800  10.221  23.158  0.00  0.00    +0.000 C 
ATOM     32  O   UNL     1      -0.331  11.492  22.700  0.00  0.00    +0.000 OA
ENDBRANCH  29  32
ENDBRANCH   1  29
TORSDOF 6
ENDMDL
MODEL 8
REMARK VINA RESULT:      -5.9      2.504      6.353
REMARK  Name = 
REMARK  10 active torsions:
REMARK  status: ('A' for Active; 'I' for Inactive)
REMARK    1  A    between atoms: C_1  and  O_2
REMARK    2  A    between atoms: O_2  and  C_3
REMARK    3  A    between atoms: C_3  and  C_5
REMARK    4  A    between atoms: C_17  and  C_18
REMARK    5  A    between atoms: C_20  and  O_21
REMARK    6  A    between atoms: O_21  and  C_22
REMARK    7  A    between atoms: C_23  and  O_24
REMARK    8  A    between atoms: O_24  and  C_25
REMARK    9  A    between atoms: C_26  and  O_27
REMARK   10  A    between atoms: O_27  and  C_28
REMARK                            x       y       z     vdW  Elec       q    Type
REMARK                         _______ _______ _______ _____ _____    ______ ____
ROOT
ATOM      1  C   UNL     1       1.144  10.463  20.651  0.00  0.00    +0.000 C 
ATOM      2  C   UNL     1       1.024  10.231  19.150  0.00  0.00    +0.000 C 
ATOM      3  C   UNL     1       1.678   8.983  18.603  0.00  0.00    +0.000 C 
ATOM      4  O   UNL     1       2.231   9.382  17.341  0.00  0.00    +0.000 OA
ATOM      5  N   UNL     1       2.478  10.777  17.382  0.00  0.00    +0.000 NA
ATOM      6  C   UNL     1       1.835  11.243  18.406  0.00  0.00    +0.000 C 
ATOM      7  C   UNL     1       1.892  12.640  18.872  0.00  0.00    +0.000 A 
ATOM      8  C   UNL     1       2.346  13.657  18.026  0.00  0.00    +0.000 A 
ATOM      9  C   UNL     1       2.377  14.938  18.540  0.00  0.00    +0.000 A 
ATOM     10  C   UNL     1       2.069  15.203  19.857  0.00  0.00    +0.000 A 
ATOM     11  C   UNL     1       1.636  14.224  20.715  0.00  0.00    +0.000 A 
ATOM     12  C   UNL     1       1.475  12.928  20.198  0.00  0.00    +0.000 A 
ATOM     13  C   UNL     1       0.722  11.904  21.034  0.00  0.00    +0.000 C 
ATOM     14  O   UNL     1       2.165  16.525  20.161  0.00  0.00    +0.000 OA
ATOM     15  C   UNL     1       2.279  17.072  18.834  0.00  0.00    +0.000 C 
ATOM     16  O   UNL     1       2.660  16.080  17.854  0.00  0.00    +0.000 OA
ENDROOT
BRANCH  13  17
ATOM     17  C   UNL     1      -0.790  12.183  20.975  0.00  0.00    +0.000 A 
ATOM     18  C   UNL     1      -1.533  12.054  19.790  0.00  0.00    +0.000 A 
ATOM     19  C   UNL     1      -2.915  12.269  19.767  0.00  0.00    +0.000 A 
ATOM     20  C   UNL     1      -3.584  12.671  20.939  0.00  0.00    +0.000 A 
ATOM     21  C   UNL     1      -2.842  12.897  22.116  0.00  0.00    +0.000 A 
ATOM     22  C   UNL     1      -1.462  12.628  22.125  0.00  0.00    +0.000 A 
BRANCH  19  23
ATOM     23  O   UNL     1      -3.683  12.066  18.641  0.00  0.00    +0.000 OA
ATOM     24  C   UNL     1      -3.427  10.885  17.884  0.00  0.00    +0.000 C 
ENDBRANCH  19  23
BRANCH  20  25
ATOM     25  O   UNL     1      -4.934  12.906  20.785  0.00  0.00    +0.000 OA
ATOM     26  C   UNL     1      -5.344  14.255  20.590  0.00  0.00    +0.000 C 
ENDBRANCH  20  25
BRANCH  21  27
ATOM     27  O   UNL     1      -3.509  13.397  23.204  0.00  0.00    +0.000 OA
ATOM     28  C   UNL     1      -3.906  12.495  24.228  0.00  0.00    +0.000 C 
ENDBRANCH  21  27
ENDBRANCH  13  17
BRANCH   1  29
ATOM     29  C   UNL     1       0.416   9.495  21.549  0.00  0.00    +0.000 C 
ATOM     30  O   UNL     1      -0.498   8.781  21.136  0.00  0.00    +0.000 OA
BRANCH  29  32
ATOM     31  C   UNL     1      -0.207   9.519  23.793  0.00  0.00    +0.000 C 
ATOM     32  O   UNL     1       0.850   9.516  22.831  0.00  0.00    +0.000 OA
ENDBRANCH  29  32
ENDBRANCH   1  29
TORSDOF 6
ENDMDL
MODEL 9
REMARK VINA RESULT:      -5.9      2.513      6.455
REMARK  Name = 
REMARK  10 active torsions:
REMARK  status: ('A' for Active; 'I' for Inactive)
REMARK    1  A    between atoms: C_1  and  O_2
REMARK    2  A    between atoms: O_2  and  C_3
REMARK    3  A    between atoms: C_3  and  C_5
REMARK    4  A    between atoms: C_17  and  C_18
REMARK    5  A    between atoms: C_20  and  O_21
REMARK    6  A    between atoms: O_21  and  C_22
REMARK    7  A    between atoms: C_23  and  O_24
REMARK    8  A    between atoms: O_24  and  C_25
REMARK    9  A    between atoms: C_26  and  O_27
REMARK   10  A    between atoms: O_27  and  C_28
REMARK                            x       y       z     vdW  Elec       q    Type
REMARK                         _______ _______ _______ _____ _____    ______ ____
ROOT
ATOM      1  C   UNL     1       1.020  10.280  20.579  0.00  0.00    +0.000 C 
ATOM      2  C   UNL     1       0.980  10.051  19.074  0.00  0.00    +0.000 C 
ATOM      3  C   UNL     1       1.635   8.789  18.562  0.00  0.00    +0.000 C 
ATOM      4  O   UNL     1       2.267   9.175  17.334  0.00  0.00    +0.000 OA
ATOM      5  N   UNL     1       2.543  10.564  17.391  0.00  0.00    +0.000 NA
ATOM      6  C   UNL     1       1.855  11.044  18.378  0.00  0.00    +0.000 C 
ATOM      7  C   UNL     1       1.917  12.439  18.849  0.00  0.00    +0.000 A 
ATOM      8  C   UNL     1       2.442  13.446  18.031  0.00  0.00    +0.000 A 
ATOM      9  C   UNL     1       2.473  14.726  18.549  0.00  0.00    +0.000 A 
ATOM     10  C   UNL     1       2.097  14.997  19.847  0.00  0.00    +0.000 A 
ATOM     11  C   UNL     1       1.595  14.028  20.678  0.00  0.00    +0.000 A 
ATOM     12  C   UNL     1       1.433  12.737  20.150  0.00  0.00    +0.000 A 
ATOM     13  C   UNL     1       0.611  11.730  20.940  0.00  0.00    +0.000 C 
ATOM     14  O   UNL     1       2.206  16.316  20.158  0.00  0.00    +0.000 OA
ATOM     15  C   UNL     1       2.408  16.861  18.841  0.00  0.00    +0.000 C 
ATOM     16  O   UNL     1       2.820  15.861  17.881  0.00  0.00    +0.000 OA
ENDROOT
BRANCH  13  17
ATOM     17  C   UNL     1      -0.888  12.044  20.798  0.00  0.00    +0.000 A 
ATOM     18  C   UNL     1      -1.678  12.454  21.886  0.00  0.00    +0.000 A 
ATOM     19  C   UNL     1      -3.028  12.779  21.727  0.00  0.00    +0.000 A 
ATOM     20  C   UNL     1      -3.640  12.650  20.465  0.00  0.00    +0.000 A 
ATOM     21  C   UNL     1      -2.890  12.150  19.381  0.00  0.00    +0.000 A 
ATOM     22  C   UNL     1      -1.521  11.877  19.556  0.00  0.00    +0.000 A 
BRANCH  19  23
ATOM     23  O   UNL     1      -3.804  13.267  22.755  0.00  0.00    +0.000 OA
ATOM     24  C   UNL     1      -3.792  12.540  23.981  0.00  0.00    +0.000 C 
ENDBRANCH  19  23
BRANCH  20  25
ATOM     25  O   UNL     1      -4.986  12.944  20.439  0.00  0.00    +0.000 OA
ATOM     26  C   UNL     1      -5.895  11.851  20.503  0.00  0.00    +0.000 C 
ENDBRANCH  20  25
BRANCH  21  27
ATOM     27  O   UNL     1      -3.546  11.931  18.198  0.00  0.00    +0.000 OA
ATOM     28  C   UNL     1      -2.872  11.214  17.173  0.00  0.00    +0.000 C 
ENDBRANCH  21  27
ENDBRANCH  13  17
BRANCH   1  29
ATOM     29  C   UNL     1       0.221   9.328  21.433  0.00  0.00    +0.000 C 
ATOM     30  O   UNL     1      -0.793   8.769  21.016  0.00  0.00    +0.000 OA
BRANCH  29  32
ATOM     31  C   UNL     1      -0.200   9.571  23.711  0.00  0.00    +0.000 C 
ATOM     32  O   UNL     1       0.715   9.180  22.685  0.00  0.00    +0.000 OA
ENDBRANCH  29  32
ENDBRANCH   1  29
TORSDOF 6
ENDMDL
