MODEL 1
REMARK VINA RESULT:      -7.0      0.000      0.000
REMARK  Name = 
REMARK  4 active torsions:
REMARK  status: ('A' for Active; 'I' for Inactive)
REMARK    1  A    between atoms: C_1  and  N_2
REMARK    2  A    between atoms: N_8  and  N_9
REMARK    3  A    between atoms: C_10  and  C_11
REMARK    4  A    between atoms: C_18  and  O_19
REMARK                            x       y       z     vdW  Elec       q    Type
REMARK                         _______ _______ _______ _____ _____    ______ ____
ROOT
ATOM      1  N   UNL     1       2.030   7.320  20.235  0.00  0.00    +0.000 NA
ATOM      2  C   UNL     1       1.920   8.409  19.553  0.00  0.00    +0.000 C 
ENDROOT
BRANCH   1  10
ATOM      3  C   UNL     1       4.822   4.282  19.132  0.00  0.00    +0.000 C 
ATOM      4  N   UNL     1       3.480   3.962  19.640  0.00  0.00    +0.000 N 
ATOM      5  C   UNL     1       3.125   2.642  19.743  0.00  0.00    +0.000 A 
ATOM      6  C   UNL     1       1.868   2.272  20.217  0.00  0.00    +0.000 A 
ATOM      7  C   UNL     1       0.962   3.256  20.589  0.00  0.00    +0.000 A 
ATOM      8  C   UNL     1       1.317   4.596  20.484  0.00  0.00    +0.000 A 
ATOM      9  C   UNL     1       2.593   4.955  20.005  0.00  0.00    +0.000 A 
ATOM     10  N   UNL     1       2.944   6.341  19.911  0.00  0.00    +0.000 N 
ATOM     11  H   UNL     1       3.881   6.617  19.582  0.00  0.00    +0.000 HD
ENDBRANCH   1  10
BRANCH   2  12
ATOM     12  C   UNL     1       0.896   9.431  19.899  0.00  0.00    +0.000 A 
ATOM     13  C   UNL     1       0.454   9.579  21.228  0.00  0.00    +0.000 A 
ATOM     14  C   UNL     1      -0.521  10.526  21.552  0.00  0.00    +0.000 A 
ATOM     15 CL   UNL     1      -1.066  10.696  23.211  0.00  0.00    +0.000 Cl
ATOM     16  C   UNL     1      -1.069  11.335  20.555  0.00  0.00    +0.000 A 
ATOM     17  C   UNL     1      -0.643  11.208  19.230  0.00  0.00    +0.000 A 
ATOM     18 CL   UNL     1      -1.371  12.255  18.017  0.00  0.00    +0.000 Cl
ATOM     19  C   UNL     1       0.344  10.254  18.892  0.00  0.00    +0.000 A 
BRANCH  19  20
ATOM     20  O   UNL     1       0.767  10.116  17.616  0.00  0.00    +0.000 OA
ATOM     21  H   UNL     1       0.534  10.731  16.906  0.00  0.00    +0.000 HD
ENDBRANCH  19  20
ENDBRANCH   2  12
TORSDOF 3
ENDMDL
MODEL 2
REMARK VINA RESULT:      -7.0      6.000      8.851
REMARK  Name = 
REMARK  4 active torsions:
REMARK  status: ('A' for Active; 'I' for Inactive)
REMARK    1  A    between atoms: C_1  and  N_2
REMARK    2  A    between atoms: N_8  and  N_9
REMARK    3  A    between atoms: C_10  and  C_11
REMARK    4  A    between atoms: C_18  and  O_19
REMARK                            x       y       z     vdW  Elec       q    Type
REMARK                         _______ _______ _______ _____ _____    ______ ____
ROOT
ATOM      1  N   UNL     1       4.542   5.167  16.615  0.00  0.00    +0.000 NA
ATOM      2  C   UNL     1       5.327   4.223  16.222  0.00  0.00    +0.000 C 
ENDROOT
BRANCH   1  10
ATOM      3  C   UNL     1       2.661   5.138  20.450  0.00  0.00    +0.000 C 
ATOM      4  N   UNL     1       2.609   6.310  19.563  0.00  0.00    +0.000 N 
ATOM      5  C   UNL     1       1.917   7.414  19.990  0.00  0.00    +0.000 A 
ATOM      6  C   UNL     1       1.829   8.557  19.197  0.00  0.00    +0.000 A 
ATOM      7  C   UNL     1       2.450   8.575  17.955  0.00  0.00    +0.000 A 
ATOM      8  C   UNL     1       3.151   7.456  17.517  0.00  0.00    +0.000 A 
ATOM      9  C   UNL     1       3.232   6.309  18.331  0.00  0.00    +0.000 A 
ATOM     10  N   UNL     1       3.965   5.168  17.867  0.00  0.00    +0.000 N 
ATOM     11  H   UNL     1       4.050   4.331  18.460  0.00  0.00    +0.000 HD
ENDBRANCH   1  10
BRANCH   2  12
ATOM     12  C   UNL     1       5.903   4.225  14.851  0.00  0.00    +0.000 A 
ATOM     13  C   UNL     1       5.355   3.407  13.843  0.00  0.00    +0.000 A 
ATOM     14  C   UNL     1       5.907   3.394  12.560  0.00  0.00    +0.000 A 
ATOM     15 CL   UNL     1       5.218   2.366  11.317  0.00  0.00    +0.000 Cl
ATOM     16  C   UNL     1       7.012   4.194  12.265  0.00  0.00    +0.000 A 
ATOM     17  C   UNL     1       7.570   5.017  13.248  0.00  0.00    +0.000 A 
ATOM     18 CL   UNL     1       8.963   6.001  12.817  0.00  0.00    +0.000 Cl
ATOM     19  C   UNL     1       7.018   5.038  14.549  0.00  0.00    +0.000 A 
BRANCH  19  20
ATOM     20  O   UNL     1       7.546   5.825  15.513  0.00  0.00    +0.000 OA
ATOM     21  H   UNL     1       7.220   5.845  16.424  0.00  0.00    +0.000 HD
ENDBRANCH  19  20
ENDBRANCH   2  12
TORSDOF 3
ENDMDL
MODEL 3
REMARK VINA RESULT:      -7.0      1.162      2.329
REMARK  Name = 
REMARK  4 active torsions:
REMARK  status: ('A' for Active; 'I' for Inactive)
REMARK    1  A    between atoms: C_1  and  N_2
REMARK    2  A    between atoms: N_8  and  N_9
REMARK    3  A    between atoms: C_10  and  C_11
REMARK    4  A    between atoms: C_18  and  O_19
REMARK                            x       y       z     vdW  Elec       q    Type
REMARK                         _______ _______ _______ _____ _____    ______ ____
ROOT
ATOM      1  N   UNL     1       1.850   7.593  20.086  0.00  0.00    +0.000 NA
ATOM      2  C   UNL     1       1.798   8.721  19.464  0.00  0.00    +0.000 C 
ENDROOT
BRANCH   1  10
ATOM      3  C   UNL     1       4.878   4.705  19.228  0.00  0.00    +0.000 C 
ATOM      4  N   UNL     1       3.556   4.321  19.746  0.00  0.00    +0.000 N 
ATOM      5  C   UNL     1       3.299   2.988  19.939  0.00  0.00    +0.000 A 
ATOM      6  C   UNL     1       2.066   2.558  20.426  0.00  0.00    +0.000 A 
ATOM      7  C   UNL     1       1.084   3.495  20.719  0.00  0.00    +0.000 A 
ATOM      8  C   UNL     1       1.339   4.848  20.522  0.00  0.00    +0.000 A 
ATOM      9  C   UNL     1       2.592   5.267  20.031  0.00  0.00    +0.000 A 
ATOM     10  N   UNL     1       2.840   6.666  19.841  0.00  0.00    +0.000 N 
ATOM     11  H   UNL     1       3.758   6.987  19.502  0.00  0.00    +0.000 HD
ENDBRANCH   1  10
BRANCH   2  12
ATOM     12  C   UNL     1       0.695   9.687  19.717  0.00  0.00    +0.000 A 
ATOM     13  C   UNL     1      -0.118  10.139  18.659  0.00  0.00    +0.000 A 
ATOM     14  C   UNL     1      -1.141  11.060  18.893  0.00  0.00    +0.000 A 
ATOM     15 CL   UNL     1      -2.142  11.618  17.564  0.00  0.00    +0.000 Cl
ATOM     16  C   UNL     1      -1.368  11.543  20.182  0.00  0.00    +0.000 A 
ATOM     17  C   UNL     1      -0.576  11.105  21.248  0.00  0.00    +0.000 A 
ATOM     18 CL   UNL     1      -0.909  11.751  22.851  0.00  0.00    +0.000 Cl
ATOM     19  C   UNL     1       0.461  10.173  21.023  0.00  0.00    +0.000 A 
BRANCH  19  20
ATOM     20  O   UNL     1       1.238   9.741  22.041  0.00  0.00    +0.000 OA
ATOM     21  H   UNL     1       0.984   9.024  22.639  0.00  0.00    +0.000 HD
ENDBRANCH  19  20
ENDBRANCH   2  12
TORSDOF 3
ENDMDL
MODEL 4
REMARK VINA RESULT:      -7.0      1.316      1.370
REMARK  Name = 
REMARK  4 active torsions:
REMARK  status: ('A' for Active; 'I' for Inactive)
REMARK    1  A    between atoms: C_1  and  N_2
REMARK    2  A    between atoms: N_8  and  N_9
REMARK    3  A    between atoms: C_10  and  C_11
REMARK    4  A    between atoms: C_18  and  O_19
REMARK                            x       y       z     vdW  Elec       q    Type
REMARK                         _______ _______ _______ _____ _____    ______ ____
ROOT
ATOM      1  N   UNL     1       2.642   6.887  19.269  0.00  0.00    +0.000 NA
ATOM      2  C   UNL     1       2.155   7.890  18.621  0.00  0.00    +0.000 C 
ENDROOT
BRANCH   1  10
ATOM      3  C   UNL     1       4.348   3.560  17.203  0.00  0.00    +0.000 C 
ATOM      4  N   UNL     1       3.164   3.421  18.065  0.00  0.00    +0.000 N 
ATOM      5  C   UNL     1       2.593   2.180  18.185  0.00  0.00    +0.000 A 
ATOM      6  C   UNL     1       1.470   1.982  18.985  0.00  0.00    +0.000 A 
ATOM      7  C   UNL     1       0.920   3.058  19.669  0.00  0.00    +0.000 A 
ATOM      8  C   UNL     1       1.494   4.319  19.547  0.00  0.00    +0.000 A 
ATOM      9  C   UNL     1       2.631   4.503  18.736  0.00  0.00    +0.000 A 
ATOM     10  N   UNL     1       3.214   5.808  18.629  0.00  0.00    +0.000 N 
ATOM     11  H   UNL     1       4.057   5.953  18.056  0.00  0.00    +0.000 HD
ENDBRANCH   1  10
BRANCH   2  12
ATOM     12  C   UNL     1       1.506   9.021  19.335  0.00  0.00    +0.000 A 
ATOM     13  C   UNL     1       1.027   8.858  20.649  0.00  0.00    +0.000 A 
ATOM     14  C   UNL     1       0.400   9.915  21.314  0.00  0.00    +0.000 A 
ATOM     15 CL   UNL     1      -0.197   9.695  22.949  0.00  0.00    +0.000 Cl
ATOM     16  C   UNL     1       0.241  11.147  20.677  0.00  0.00    +0.000 A 
ATOM     17  C   UNL     1       0.712  11.333  19.374  0.00  0.00    +0.000 A 
ATOM     18 CL   UNL     1       0.482  12.907  18.623  0.00  0.00    +0.000 Cl
ATOM     19  C   UNL     1       1.349  10.271  18.693  0.00  0.00    +0.000 A 
BRANCH  19  20
ATOM     20  O   UNL     1       1.809  10.432  17.433  0.00  0.00    +0.000 OA
ATOM     21  H   UNL     1       1.410  10.006  16.661  0.00  0.00    +0.000 HD
ENDBRANCH  19  20
ENDBRANCH   2  12
TORSDOF 3
ENDMDL
MODEL 5
REMARK VINA RESULT:      -6.9      1.669      2.673
REMARK  Name = 
REMARK  4 active torsions:
REMARK  status: ('A' for Active; 'I' for Inactive)
REMARK    1  A    between atoms: C_1  and  N_2
REMARK    2  A    between atoms: N_8  and  N_9
REMARK    3  A    between atoms: C_10  and  C_11
REMARK    4  A    between atoms: C_18  and  O_19
REMARK                            x       y       z     vdW  Elec       q    Type
REMARK                         _______ _______ _______ _____ _____    ______ ____
ROOT
ATOM      1  N   UNL     1       2.187   6.949  18.944  0.00  0.00    +0.000 NA
ATOM      2  C   UNL     1       2.188   8.211  18.681  0.00  0.00    +0.000 C 
ENDROOT
BRANCH   1  10
ATOM      3  C   UNL     1       4.851   4.243  16.989  0.00  0.00    +0.000 C 
ATOM      4  N   UNL     1       3.625   3.785  17.658  0.00  0.00    +0.000 N 
ATOM      5  C   UNL     1       3.334   2.445  17.631  0.00  0.00    +0.000 A 
ATOM      6  C   UNL     1       2.187   1.947  18.246  0.00  0.00    +0.000 A 
ATOM      7  C   UNL     1       1.325   2.821  18.894  0.00  0.00    +0.000 A 
ATOM      8  C   UNL     1       1.615   4.181  18.922  0.00  0.00    +0.000 A 
ATOM      9  C   UNL     1       2.779   4.670  18.298  0.00  0.00    +0.000 A 
ATOM     10  N   UNL     1       3.065   6.074  18.343  0.00  0.00    +0.000 N 
ATOM     11  H   UNL     1       3.923   6.442  17.908  0.00  0.00    +0.000 HD
ENDBRANCH   1  10
BRANCH   2  12
ATOM     12  C   UNL     1       1.202   9.128  19.314  0.00  0.00    +0.000 A 
ATOM     13  C   UNL     1       0.490  10.061  18.535  0.00  0.00    +0.000 A 
ATOM     14  C   UNL     1      -0.423  10.935  19.131  0.00  0.00    +0.000 A 
ATOM     15 CL   UNL     1      -1.298  12.096  18.148  0.00  0.00    +0.000 Cl
ATOM     16  C   UNL     1      -0.637  10.891  20.509  0.00  0.00    +0.000 A 
ATOM     17  C   UNL     1       0.056   9.970  21.301  0.00  0.00    +0.000 A 
ATOM     18 CL   UNL     1      -0.255   9.964  23.033  0.00  0.00    +0.000 Cl
ATOM     19  C   UNL     1       0.980   9.081  20.708  0.00  0.00    +0.000 A 
BRANCH  19  20
ATOM     20  O   UNL     1       1.660   8.186  21.459  0.00  0.00    +0.000 OA
ATOM     21  H   UNL     1       2.286   7.547  21.092  0.00  0.00    +0.000 HD
ENDBRANCH  19  20
ENDBRANCH   2  12
TORSDOF 3
ENDMDL
MODEL 6
REMARK VINA RESULT:      -6.8      6.147      8.540
REMARK  Name = 
REMARK  4 active torsions:
REMARK  status: ('A' for Active; 'I' for Inactive)
REMARK    1  A    between atoms: C_1  and  N_2
REMARK    2  A    between atoms: N_8  and  N_9
REMARK    3  A    between atoms: C_10  and  C_11
REMARK    4  A    between atoms: C_18  and  O_19
REMARK                            x       y       z     vdW  Elec       q    Type
REMARK                         _______ _______ _______ _____ _____    ______ ____
ROOT
ATOM      1  N   UNL     1       4.530   5.339  16.549  0.00  0.00    +0.000 NA
ATOM      2  C   UNL     1       5.329   4.384  16.214  0.00  0.00    +0.000 C 
ENDROOT
BRANCH   1  10
ATOM      3  C   UNL     1       2.750   5.446  20.430  0.00  0.00    +0.000 C 
ATOM      4  N   UNL     1       2.560   4.311  19.515  0.00  0.00    +0.000 N 
ATOM      5  C   UNL     1       1.797   3.255  19.943  0.00  0.00    +0.000 A 
ATOM      6  C   UNL     1       1.580   2.149  19.124  0.00  0.00    +0.000 A 
ATOM      7  C   UNL     1       2.146   2.116  17.857  0.00  0.00    +0.000 A 
ATOM      8  C   UNL     1       2.922   3.183  17.420  0.00  0.00    +0.000 A 
ATOM      9  C   UNL     1       3.132   4.296  18.259  0.00  0.00    +0.000 A 
ATOM     10  N   UNL     1       3.929   5.390  17.788  0.00  0.00    +0.000 N 
ATOM     11  H   UNL     1       4.073   6.219  18.383  0.00  0.00    +0.000 HD
ENDBRANCH   1  10
BRANCH   2  12
ATOM     12  C   UNL     1       5.932   4.331  14.855  0.00  0.00    +0.000 A 
ATOM     13  C   UNL     1       5.400   3.477  13.869  0.00  0.00    +0.000 A 
ATOM     14  C   UNL     1       5.977   3.411  12.598  0.00  0.00    +0.000 A 
ATOM     15 CL   UNL     1       5.307   2.339  11.382  0.00  0.00    +0.000 Cl
ATOM     16  C   UNL     1       7.091   4.195  12.295  0.00  0.00    +0.000 A 
ATOM     17  C   UNL     1       7.634   5.053  13.256  0.00  0.00    +0.000 A 
ATOM     18 CL   UNL     1       9.040   6.014  12.815  0.00  0.00    +0.000 Cl
ATOM     19  C   UNL     1       7.057   5.127  14.544  0.00  0.00    +0.000 A 
BRANCH  19  20
ATOM     20  O   UNL     1       7.570   5.949  15.487  0.00  0.00    +0.000 OA
ATOM     21  H   UNL     1       7.203   6.820  15.692  0.00  0.00    +0.000 HD
ENDBRANCH  19  20
ENDBRANCH   2  12
TORSDOF 3
ENDMDL
MODEL 7
REMARK VINA RESULT:      -6.8      4.076      7.532
REMARK  Name = 
REMARK  4 active torsions:
REMARK  status: ('A' for Active; 'I' for Inactive)
REMARK    1  A    between atoms: C_1  and  N_2
REMARK    2  A    between atoms: N_8  and  N_9
REMARK    3  A    between atoms: C_10  and  C_11
REMARK    4  A    between atoms: C_18  and  O_19
REMARK                            x       y       z     vdW  Elec       q    Type
REMARK                         _______ _______ _______ _____ _____    ______ ____
ROOT
ATOM      1  N   UNL     1       2.165   7.404  20.207  0.00  0.00    +0.000 NA
ATOM      2  C   UNL     1       2.153   6.116  20.169  0.00  0.00    +0.000 C 
ENDROOT
BRANCH   1  10
ATOM      3  C   UNL     1      -0.102   9.557  23.117  0.00  0.00    +0.000 C 
ATOM      4  N   UNL     1      -0.044   9.974  21.709  0.00  0.00    +0.000 N 
ATOM      5  C   UNL     1      -0.758  11.081  21.331  0.00  0.00    +0.000 A 
ATOM      6  C   UNL     1      -0.746  11.528  20.011  0.00  0.00    +0.000 A 
ATOM      7  C   UNL     1       0.000  10.839  19.065  0.00  0.00    +0.000 A 
ATOM      8  C   UNL     1       0.724   9.713  19.442  0.00  0.00    +0.000 A 
ATOM      9  C   UNL     1       0.704   9.275  20.781  0.00  0.00    +0.000 A 
ATOM     10  N   UNL     1       1.462   8.117  21.154  0.00  0.00    +0.000 N 
ATOM     11  H   UNL     1       1.472   7.798  22.133  0.00  0.00    +0.000 HD
ENDBRANCH   1  10
BRANCH   2  12
ATOM     12  C   UNL     1       2.887   5.372  19.110  0.00  0.00    +0.000 A 
ATOM     13  C   UNL     1       3.585   6.065  18.102  0.00  0.00    +0.000 A 
ATOM     14  C   UNL     1       4.259   5.368  17.096  0.00  0.00    +0.000 A 
ATOM     15 CL   UNL     1       5.120   6.245  15.844  0.00  0.00    +0.000 Cl
ATOM     16  C   UNL     1       4.245   3.972  17.082  0.00  0.00    +0.000 A 
ATOM     17  C   UNL     1       3.561   3.264  18.075  0.00  0.00    +0.000 A 
ATOM     18 CL   UNL     1       3.578   1.506  18.002  0.00  0.00    +0.000 Cl
ATOM     19  C   UNL     1       2.878   3.959  19.097  0.00  0.00    +0.000 A 
BRANCH  19  20
ATOM     20  O   UNL     1       2.210   3.291  20.063  0.00  0.00    +0.000 OA
ATOM     21  H   UNL     1       1.245   3.247  20.114  0.00  0.00    +0.000 HD
ENDBRANCH  19  20
ENDBRANCH   2  12
TORSDOF 3
ENDMDL
MODEL 8
REMARK VINA RESULT:      -6.8      4.223      7.363
REMARK  Name = 
REMARK  4 active torsions:
REMARK  status: ('A' for Active; 'I' for Inactive)
REMARK    1  A    between atoms: C_1  and  N_2
REMARK    2  A    between atoms: N_8  and  N_9
REMARK    3  A    between atoms: C_10  and  C_11
REMARK    4  A    between atoms: C_18  and  O_19
REMARK                            x       y       z     vdW  Elec       q    Type
REMARK                         _______ _______ _______ _____ _____    ______ ____
ROOT
ATOM      1  N   UNL     1       2.191   7.821  18.791  0.00  0.00    +0.000 NA
ATOM      2  C   UNL     1       3.045   7.536  17.869  0.00  0.00    +0.000 C 
ENDROOT
BRANCH   1  10
ATOM      3  C   UNL     1       0.446  11.706  19.122  0.00  0.00    +0.000 C 
ATOM      4  N   UNL     1       0.387  10.727  20.219  0.00  0.00    +0.000 N 
ATOM      5  C   UNL     1      -0.237  11.095  21.382  0.00  0.00    +0.000 A 
ATOM      6  C   UNL     1      -0.326  10.215  22.459  0.00  0.00    +0.000 A 
ATOM      7  C   UNL     1       0.228   8.947  22.350  0.00  0.00    +0.000 A 
ATOM      8  C   UNL     1       0.865   8.570  21.173  0.00  0.00    +0.000 A 
ATOM      9  C   UNL     1       0.945   9.471  20.092  0.00  0.00    +0.000 A 
ATOM     10  N   UNL     1       1.599   9.062  18.884  0.00  0.00    +0.000 N 
ATOM     11  H   UNL     1       1.646   9.703  18.079  0.00  0.00    +0.000 HD
ENDBRANCH   1  10
BRANCH   2  12
ATOM     12  C   UNL     1       3.701   6.202  17.817  0.00  0.00    +0.000 A 
ATOM     13  C   UNL     1       5.105   6.095  17.781  0.00  0.00    +0.000 A 
ATOM     14  C   UNL     1       5.722   4.843  17.713  0.00  0.00    +0.000 A 
ATOM     15 CL   UNL     1       7.472   4.726  17.662  0.00  0.00    +0.000 Cl
ATOM     16  C   UNL     1       4.947   3.683  17.680  0.00  0.00    +0.000 A 
ATOM     17  C   UNL     1       3.552   3.764  17.719  0.00  0.00    +0.000 A 
ATOM     18 CL   UNL     1       2.630   2.267  17.672  0.00  0.00    +0.000 Cl
ATOM     19  C   UNL     1       2.919   5.025  17.789  0.00  0.00    +0.000 A 
BRANCH  19  20
ATOM     20  O   UNL     1       1.571   5.123  17.825  0.00  0.00    +0.000 OA
ATOM     21  H   UNL     1       0.984   4.365  17.953  0.00  0.00    +0.000 HD
ENDBRANCH  19  20
ENDBRANCH   2  12
TORSDOF 3
ENDMDL
MODEL 9
REMARK VINA RESULT:      -6.7      4.050      7.399
REMARK  Name = 
REMARK  4 active torsions:
REMARK  status: ('A' for Active; 'I' for Inactive)
REMARK    1  A    between atoms: C_1  and  N_2
REMARK    2  A    between atoms: N_8  and  N_9
REMARK    3  A    between atoms: C_10  and  C_11
REMARK    4  A    between atoms: C_18  and  O_19
REMARK                            x       y       z     vdW  Elec       q    Type
REMARK                         _______ _______ _______ _____ _____    ______ ____
ROOT
ATOM      1  N   UNL     1       2.028   8.141  19.340  0.00  0.00    +0.000 NA
ATOM      2  C   UNL     1       2.448   7.605  18.244  0.00  0.00    +0.000 C 
ENDROOT
BRANCH   1  10
ATOM      3  C   UNL     1      -0.626  11.487  19.390  0.00  0.00    +0.000 C 
ATOM      4  N   UNL     1      -0.311  10.721  20.605  0.00  0.00    +0.000 N 
ATOM      5  C   UNL     1      -0.885  11.116  21.786  0.00  0.00    +0.000 A 
ATOM      6  C   UNL     1      -0.627  10.434  22.974  0.00  0.00    +0.000 A 
ATOM      7  C   UNL     1       0.226   9.338  22.959  0.00  0.00    +0.000 A 
ATOM      8  C   UNL     1       0.811   8.934  21.764  0.00  0.00    +0.000 A 
ATOM      9  C   UNL     1       0.539   9.634  20.571  0.00  0.00    +0.000 A 
ATOM     10  N   UNL     1       1.146   9.199  19.348  0.00  0.00    +0.000 N 
ATOM     11  H   UNL     1       0.939   9.688  18.465  0.00  0.00    +0.000 HD
ENDBRANCH   1  10
BRANCH   2  12
ATOM     12  C   UNL     1       3.433   6.491  18.263  0.00  0.00    +0.000 A 
ATOM     13  C   UNL     1       4.613   6.566  17.497  0.00  0.00    +0.000 A 
ATOM     14  C   UNL     1       5.530   5.512  17.499  0.00  0.00    +0.000 A 
ATOM     15 CL   UNL     1       6.992   5.617  16.536  0.00  0.00    +0.000 Cl
ATOM     16  C   UNL     1       5.282   4.371  18.263  0.00  0.00    +0.000 A 
ATOM     17  C   UNL     1       4.120   4.276  19.034  0.00  0.00    +0.000 A 
ATOM     18 CL   UNL     1       3.863   2.811  19.975  0.00  0.00    +0.000 Cl
ATOM     19  C   UNL     1       3.187   5.337  19.040  0.00  0.00    +0.000 A 
BRANCH  19  20
ATOM     20  O   UNL     1       2.056   5.262  19.777  0.00  0.00    +0.000 OA
ATOM     21  H   UNL     1       1.313   4.682  19.559  0.00  0.00    +0.000 HD
ENDBRANCH  19  20
ENDBRANCH   2  12
TORSDOF 3
ENDMDL
