MODEL 1
REMARK VINA RESULT:      -7.4      0.000      0.000
REMARK  Name = 
REMARK  4 active torsions:
REMARK  status: ('A' for Active; 'I' for Inactive)
REMARK    1  A    between atoms: S_2  and  C_4
REMARK    2  A    between atoms: S_2  and  N_16
REMARK    3  A    between atoms: C_9  and  C_10
REMARK    4  A    between atoms: C_24  and  C_25
REMARK                            x       y       z     vdW  Elec       q    Type
REMARK                         _______ _______ _______ _____ _____    ______ ____
ROOT
ATOM      1  N   UNL     1      -2.756  13.200  22.811  0.00  0.00    +0.000 NA
ATOM      2  C   UNL     1      -2.243  11.816  22.969  0.00  0.00    +0.000 C 
ATOM      3  C   UNL     1      -0.738  11.868  22.672  0.00  0.00    +0.000 C 
ATOM      4  C   UNL     1      -0.328  11.024  21.473  0.00  0.00    +0.000 C 
ATOM      5  N   UNL     1      -0.397  11.924  20.332  0.00  0.00    +0.000 N 
ATOM      6  C   UNL     1      -1.052  11.529  19.179  0.00  0.00    +0.000 A 
ATOM      7  C   UNL     1      -1.186  12.387  18.086  0.00  0.00    +0.000 A 
ATOM      8  C   UNL     1      -1.840  11.967  16.926  0.00  0.00    +0.000 A 
ATOM      9  C   UNL     1      -2.362  10.679  16.862  0.00  0.00    +0.000 A 
ATOM     10  C   UNL     1      -2.197   9.884  17.981  0.00  0.00    +0.000 A 
ATOM     11  N   UNL     1      -1.540  10.270  19.105  0.00  0.00    +0.000 NA
ATOM     12  C   UNL     1      -0.338  13.321  20.743  0.00  0.00    +0.000 C 
ATOM     13  C   UNL     1      -0.424  13.306  22.275  0.00  0.00    +0.000 C 
ATOM     14  C   UNL     1      -1.584  14.111  22.827  0.00  0.00    +0.000 C 
ENDROOT
BRANCH   9  15
ATOM     15  C   UNL     1      -3.051  10.140  15.650  0.00  0.00    +0.000 C 
ATOM     16  F   UNL     1      -2.469  10.519  14.477  0.00  0.00    +0.000 F 
ATOM     17  F   UNL     1      -3.067   8.777  15.627  0.00  0.00    +0.000 F 
ATOM     18  F   UNL     1      -4.354  10.525  15.559  0.00  0.00    +0.000 F 
ENDBRANCH   9  15
BRANCH   1  20
ATOM     19  O   UNL     1      -3.670  12.544  20.513  0.00  0.00    +0.000 OA
ATOM     20  S   UNL     1      -3.907  13.487  21.574  0.00  0.00    +0.000 S 
ATOM     21  O   UNL     1      -3.857  14.921  21.346  0.00  0.00    +0.000 OA
BRANCH  20  22
ATOM     22  C   UNL     1      -5.513  13.138  22.264  0.00  0.00    +0.000 A 
ATOM     23  C   UNL     1      -5.604  13.051  23.668  0.00  0.00    +0.000 A 
ATOM     24  C   UNL     1      -6.801  12.682  24.279  0.00  0.00    +0.000 A 
ATOM     25  C   UNL     1      -7.910  12.415  23.495  0.00  0.00    +0.000 A 
ATOM     26  C   UNL     1      -7.839  12.547  22.104  0.00  0.00    +0.000 A 
ATOM     27  C   UNL     1      -6.648  12.918  21.433  0.00  0.00    +0.000 A 
BRANCH  27  28
ATOM     28  C   UNL     1      -6.690  13.038  19.942  0.00  0.00    +0.000 A 
ATOM     29  C   UNL     1      -6.643  11.925  19.086  0.00  0.00    +0.000 A 
ATOM     30  C   UNL     1      -6.792  12.038  17.698  0.00  0.00    +0.000 A 
ATOM     31  C   UNL     1      -6.874  13.290  17.109  0.00  0.00    +0.000 A 
ATOM     32  C   UNL     1      -6.802  14.422  17.910  0.00  0.00    +0.000 A 
ATOM     33  C   UNL     1      -6.732  14.296  19.306  0.00  0.00    +0.000 A 
ENDBRANCH  27  28
ENDBRANCH  20  22
ENDBRANCH   1  20
TORSDOF 4
ENDMDL
MODEL 2
REMARK VINA RESULT:      -7.4      2.128      5.433
REMARK  Name = 
REMARK  4 active torsions:
REMARK  status: ('A' for Active; 'I' for Inactive)
REMARK    1  A    between atoms: S_2  and  C_4
REMARK    2  A    between atoms: S_2  and  N_16
REMARK    3  A    between atoms: C_9  and  C_10
REMARK    4  A    between atoms: C_24  and  C_25
REMARK                            x       y       z     vdW  Elec       q    Type
REMARK                         _______ _______ _______ _____ _____    ______ ____
ROOT
ATOM      1  N   UNL     1      -5.993  14.242  22.064  0.00  0.00    +0.000 NA
ATOM      2  C   UNL     1      -6.566  14.899  20.862  0.00  0.00    +0.000 C 
ATOM      3  C   UNL     1      -7.825  14.109  20.486  0.00  0.00    +0.000 C 
ATOM      4  C   UNL     1      -7.748  13.467  19.107  0.00  0.00    +0.000 C 
ATOM      5  N   UNL     1      -7.206  12.136  19.337  0.00  0.00    +0.000 N 
ATOM      6  C   UNL     1      -6.158  11.674  18.562  0.00  0.00    +0.000 A 
ATOM      7  C   UNL     1      -5.576  10.426  18.791  0.00  0.00    +0.000 A 
ATOM      8  C   UNL     1      -4.526   9.971  17.989  0.00  0.00    +0.000 A 
ATOM      9  C   UNL     1      -4.058  10.772  16.953  0.00  0.00    +0.000 A 
ATOM     10  C   UNL     1      -4.677  11.997  16.785  0.00  0.00    +0.000 A 
ATOM     11  N   UNL     1      -5.716  12.440  17.538  0.00  0.00    +0.000 NA
ATOM     12  C   UNL     1      -7.385  11.713  20.720  0.00  0.00    +0.000 C 
ATOM     13  C   UNL     1      -7.916  12.944  21.465  0.00  0.00    +0.000 C 
ATOM     14  C   UNL     1      -7.049  13.369  22.635  0.00  0.00    +0.000 C 
ENDROOT
BRANCH   9  15
ATOM     15  C   UNL     1      -2.959  10.351  16.033  0.00  0.00    +0.000 C 
ATOM     16  F   UNL     1      -3.037   9.045  15.651  0.00  0.00    +0.000 F 
ATOM     17  F   UNL     1      -2.950  11.070  14.874  0.00  0.00    +0.000 F 
ATOM     18  F   UNL     1      -1.718  10.506  16.571  0.00  0.00    +0.000 F 
ENDBRANCH   9  15
BRANCH   1  20
ATOM     19  O   UNL     1      -3.920  13.851  20.616  0.00  0.00    +0.000 OA
ATOM     20  S   UNL     1      -4.438  13.537  21.922  0.00  0.00    +0.000 S 
ATOM     21  O   UNL     1      -4.612  12.164  22.364  0.00  0.00    +0.000 OA
BRANCH  20  22
ATOM     22  C   UNL     1      -3.393  14.331  23.128  0.00  0.00    +0.000 A 
ATOM     23  C   UNL     1      -3.958  15.384  23.875  0.00  0.00    +0.000 A 
ATOM     24  C   UNL     1      -3.179  16.120  24.764  0.00  0.00    +0.000 A 
ATOM     25  C   UNL     1      -1.841  15.800  24.921  0.00  0.00    +0.000 A 
ATOM     26  C   UNL     1      -1.286  14.725  24.219  0.00  0.00    +0.000 A 
ATOM     27  C   UNL     1      -2.033  13.945  23.303  0.00  0.00    +0.000 A 
BRANCH  27  28
ATOM     28  C   UNL     1      -1.340  12.811  22.615  0.00  0.00    +0.000 A 
ATOM     29  C   UNL     1      -1.277  11.516  23.156  0.00  0.00    +0.000 A 
ATOM     30  C   UNL     1      -0.721  10.437  22.458  0.00  0.00    +0.000 A 
ATOM     31  C   UNL     1      -0.101  10.646  21.236  0.00  0.00    +0.000 A 
ATOM     32  C   UNL     1      -0.035  11.935  20.721  0.00  0.00    +0.000 A 
ATOM     33  C   UNL     1      -0.663  12.996  21.391  0.00  0.00    +0.000 A 
ENDBRANCH  27  28
ENDBRANCH  20  22
ENDBRANCH   1  20
TORSDOF 4
ENDMDL
MODEL 3
REMARK VINA RESULT:      -7.2      2.272      3.675
REMARK  Name = 
REMARK  4 active torsions:
REMARK  status: ('A' for Active; 'I' for Inactive)
REMARK    1  A    between atoms: S_2  and  C_4
REMARK    2  A    between atoms: S_2  and  N_16
REMARK    3  A    between atoms: C_9  and  C_10
REMARK    4  A    between atoms: C_24  and  C_25
REMARK                            x       y       z     vdW  Elec       q    Type
REMARK                         _______ _______ _______ _____ _____    ______ ____
ROOT
ATOM      1  N   UNL     1      -4.549  13.715  21.959  0.00  0.00    +0.000 NA
ATOM      2  C   UNL     1      -3.891  12.927  23.032  0.00  0.00    +0.000 C 
ATOM      3  C   UNL     1      -2.744  13.790  23.573  0.00  0.00    +0.000 C 
ATOM      4  C   UNL     1      -1.370  13.163  23.380  0.00  0.00    +0.000 C 
ATOM      5  N   UNL     1      -0.899  13.667  22.099  0.00  0.00    +0.000 N 
ATOM      6  C   UNL     1      -0.377  12.792  21.163  0.00  0.00    +0.000 A 
ATOM      7  C   UNL     1       0.033  13.232  19.903  0.00  0.00    +0.000 A 
ATOM      8  C   UNL     1       0.569  12.336  18.975  0.00  0.00    +0.000 A 
ATOM      9  C   UNL     1       0.694  10.992  19.313  0.00  0.00    +0.000 A 
ATOM     10  C   UNL     1       0.266  10.626  20.576  0.00  0.00    +0.000 A 
ATOM     11  N   UNL     1      -0.231  11.489  21.497  0.00  0.00    +0.000 NA
ATOM     12  C   UNL     1      -1.598  14.885  21.709  0.00  0.00    +0.000 C 
ATOM     13  C   UNL     1      -2.725  15.062  22.734  0.00  0.00    +0.000 C 
ATOM     14  C   UNL     1      -4.107  15.124  22.113  0.00  0.00    +0.000 C 
ENDROOT
BRANCH   9  15
ATOM     15  C   UNL     1       1.282   9.973  18.391  0.00  0.00    +0.000 C 
ATOM     16  F   UNL     1       0.375   9.424  17.536  0.00  0.00    +0.000 F 
ATOM     17  F   UNL     1       2.261  10.495  17.599  0.00  0.00    +0.000 F 
ATOM     18  F   UNL     1       1.857   8.927  19.045  0.00  0.00    +0.000 F 
ENDBRANCH   9  15
BRANCH   1  20
ATOM     19  O   UNL     1      -3.258  12.380  20.199  0.00  0.00    +0.000 OA
ATOM     20  S   UNL     1      -4.500  13.087  20.366  0.00  0.00    +0.000 S 
ATOM     21  O   UNL     1      -4.859  14.209  19.514  0.00  0.00    +0.000 OA
BRANCH  20  22
ATOM     22  C   UNL     1      -5.824  11.902  20.231  0.00  0.00    +0.000 A 
ATOM     23  C   UNL     1      -6.836  11.955  21.210  0.00  0.00    +0.000 A 
ATOM     24  C   UNL     1      -7.851  11.000  21.234  0.00  0.00    +0.000 A 
ATOM     25  C   UNL     1      -7.866  10.002  20.274  0.00  0.00    +0.000 A 
ATOM     26  C   UNL     1      -6.892   9.973  19.271  0.00  0.00    +0.000 A 
ATOM     27  C   UNL     1      -5.839  10.918  19.202  0.00  0.00    +0.000 A 
BRANCH  27  28
ATOM     28  C   UNL     1      -4.858  10.797  18.078  0.00  0.00    +0.000 A 
ATOM     29  C   UNL     1      -4.948  11.563  16.903  0.00  0.00    +0.000 A 
ATOM     30  C   UNL     1      -3.968  11.523  15.904  0.00  0.00    +0.000 A 
ATOM     31  C   UNL     1      -2.919  10.621  15.997  0.00  0.00    +0.000 A 
ATOM     32  C   UNL     1      -2.858   9.762  17.086  0.00  0.00    +0.000 A 
ATOM     33  C   UNL     1      -3.802   9.863  18.119  0.00  0.00    +0.000 A 
ENDBRANCH  27  28
ENDBRANCH  20  22
ENDBRANCH   1  20
TORSDOF 4
ENDMDL
MODEL 4
REMARK VINA RESULT:      -6.9      0.761      1.328
REMARK  Name = 
REMARK  4 active torsions:
REMARK  status: ('A' for Active; 'I' for Inactive)
REMARK    1  A    between atoms: S_2  and  C_4
REMARK    2  A    between atoms: S_2  and  N_16
REMARK    3  A    between atoms: C_9  and  C_10
REMARK    4  A    between atoms: C_24  and  C_25
REMARK                            x       y       z     vdW  Elec       q    Type
REMARK                         _______ _______ _______ _____ _____    ______ ____
ROOT
ATOM      1  N   UNL     1      -2.800  13.398  22.821  0.00  0.00    +0.000 NA
ATOM      2  C   UNL     1      -2.473  11.965  23.033  0.00  0.00    +0.000 C 
ATOM      3  C   UNL     1      -0.961  11.822  22.824  0.00  0.00    +0.000 C 
ATOM      4  C   UNL     1      -0.593  10.903  21.666  0.00  0.00    +0.000 C 
ATOM      5  N   UNL     1      -0.484  11.777  20.507  0.00  0.00    +0.000 N 
ATOM      6  C   UNL     1      -1.119  11.438  19.326  0.00  0.00    +0.000 A 
ATOM      7  C   UNL     1      -1.083  12.278  18.211  0.00  0.00    +0.000 A 
ATOM      8  C   UNL     1      -1.719  11.913  17.022  0.00  0.00    +0.000 A 
ATOM      9  C   UNL     1      -2.395  10.700  16.951  0.00  0.00    +0.000 A 
ATOM     10  C   UNL     1      -2.393   9.918  18.092  0.00  0.00    +0.000 A 
ATOM     11  N   UNL     1      -1.756  10.247  19.245  0.00  0.00    +0.000 NA
ATOM     12  C   UNL     1      -0.274  13.165  20.896  0.00  0.00    +0.000 C 
ATOM     13  C   UNL     1      -0.446  13.199  22.420  0.00  0.00    +0.000 C 
ATOM     14  C   UNL     1      -1.525  14.156  22.889  0.00  0.00    +0.000 C 
ENDROOT
BRANCH   9  15
ATOM     15  C   UNL     1      -3.078  10.221  15.711  0.00  0.00    +0.000 C 
ATOM     16  F   UNL     1      -3.361   8.887  15.724  0.00  0.00    +0.000 F 
ATOM     17  F   UNL     1      -4.272  10.846  15.503  0.00  0.00    +0.000 F 
ATOM     18  F   UNL     1      -2.349  10.434  14.581  0.00  0.00    +0.000 F 
ENDBRANCH   9  15
BRANCH   1  20
ATOM     19  O   UNL     1      -3.909  12.655  20.639  0.00  0.00    +0.000 OA
ATOM     20  S   UNL     1      -3.835  13.794  21.514  0.00  0.00    +0.000 S 
ATOM     21  O   UNL     1      -3.362  15.087  21.046  0.00  0.00    +0.000 OA
BRANCH  20  22
ATOM     22  C   UNL     1      -5.459  14.064  22.198  0.00  0.00    +0.000 A 
ATOM     23  C   UNL     1      -5.530  14.685  23.460  0.00  0.00    +0.000 A 
ATOM     24  C   UNL     1      -6.754  14.840  24.107  0.00  0.00    +0.000 A 
ATOM     25  C   UNL     1      -7.909  14.389  23.491  0.00  0.00    +0.000 A 
ATOM     26  C   UNL     1      -7.851  13.816  22.216  0.00  0.00    +0.000 A 
ATOM     27  C   UNL     1      -6.633  13.635  21.516  0.00  0.00    +0.000 A 
BRANCH  27  28
ATOM     28  C   UNL     1      -6.690  13.020  20.152  0.00  0.00    +0.000 A 
ATOM     29  C   UNL     1      -6.563  13.771  18.972  0.00  0.00    +0.000 A 
ATOM     30  C   UNL     1      -6.509  13.176  17.706  0.00  0.00    +0.000 A 
ATOM     31  C   UNL     1      -6.700  11.810  17.572  0.00  0.00    +0.000 A 
ATOM     32  C   UNL     1      -6.948  11.046  18.705  0.00  0.00    +0.000 A 
ATOM     33  C   UNL     1      -6.923  11.640  19.977  0.00  0.00    +0.000 A 
ENDBRANCH  27  28
ENDBRANCH  20  22
ENDBRANCH   1  20
TORSDOF 4
ENDMDL
MODEL 5
REMARK VINA RESULT:      -6.8      0.849      1.069
REMARK  Name = 
REMARK  4 active torsions:
REMARK  status: ('A' for Active; 'I' for Inactive)
REMARK    1  A    between atoms: S_2  and  C_4
REMARK    2  A    between atoms: S_2  and  N_16
REMARK    3  A    between atoms: C_9  and  C_10
REMARK    4  A    between atoms: C_24  and  C_25
REMARK                            x       y       z     vdW  Elec       q    Type
REMARK                         _______ _______ _______ _____ _____    ______ ____
ROOT
ATOM      1  N   UNL     1      -2.831  13.574  22.770  0.00  0.00    +0.000 NA
ATOM      2  C   UNL     1      -2.508  12.147  23.020  0.00  0.00    +0.000 C 
ATOM      3  C   UNL     1      -0.995  11.996  22.817  0.00  0.00    +0.000 C 
ATOM      4  C   UNL     1      -0.627  11.046  21.684  0.00  0.00    +0.000 C 
ATOM      5  N   UNL     1      -0.515  11.888  20.503  0.00  0.00    +0.000 N 
ATOM      6  C   UNL     1      -1.148  11.520  19.330  0.00  0.00    +0.000 A 
ATOM      7  C   UNL     1      -1.108  12.330  18.194  0.00  0.00    +0.000 A 
ATOM      8  C   UNL     1      -1.743  11.935  17.014  0.00  0.00    +0.000 A 
ATOM      9  C   UNL     1      -2.421  10.722  16.973  0.00  0.00    +0.000 A 
ATOM     10  C   UNL     1      -2.422   9.971  18.135  0.00  0.00    +0.000 A 
ATOM     11  N   UNL     1      -1.787  10.328  19.280  0.00  0.00    +0.000 NA
ATOM     12  C   UNL     1      -0.302  13.287  20.856  0.00  0.00    +0.000 C 
ATOM     13  C   UNL     1      -0.477  13.360  22.378  0.00  0.00    +0.000 C 
ATOM     14  C   UNL     1      -1.555  14.331  22.820  0.00  0.00    +0.000 C 
ENDROOT
BRANCH   9  15
ATOM     15  C   UNL     1      -3.102  10.211  15.745  0.00  0.00    +0.000 C 
ATOM     16  F   UNL     1      -4.388  10.644  15.615  0.00  0.00    +0.000 F 
ATOM     17  F   UNL     1      -2.469  10.600  14.602  0.00  0.00    +0.000 F 
ATOM     18  F   UNL     1      -3.161   8.852  15.690  0.00  0.00    +0.000 F 
ENDBRANCH   9  15
BRANCH   1  20
ATOM     19  O   UNL     1      -3.980  12.759  20.634  0.00  0.00    +0.000 OA
ATOM     20  S   UNL     1      -3.863  13.938  21.451  0.00  0.00    +0.000 S 
ATOM     21  O   UNL     1      -3.354  15.190  20.916  0.00  0.00    +0.000 OA
BRANCH  20  22
ATOM     22  C   UNL     1      -5.473  14.292  22.130  0.00  0.00    +0.000 A 
ATOM     23  C   UNL     1      -5.518  14.807  23.441  0.00  0.00    +0.000 A 
ATOM     24  C   UNL     1      -6.739  15.014  24.079  0.00  0.00    +0.000 A 
ATOM     25  C   UNL     1      -7.915  14.724  23.408  0.00  0.00    +0.000 A 
ATOM     26  C   UNL     1      -7.877  14.259  22.089  0.00  0.00    +0.000 A 
ATOM     27  C   UNL     1      -6.664  14.031  21.395  0.00  0.00    +0.000 A 
BRANCH  27  28
ATOM     28  C   UNL     1      -6.743  13.542  19.982  0.00  0.00    +0.000 A 
ATOM     29  C   UNL     1      -6.958  12.193  19.654  0.00  0.00    +0.000 A 
ATOM     30  C   UNL     1      -7.139  11.761  18.335  0.00  0.00    +0.000 A 
ATOM     31  C   UNL     1      -6.991  12.654  17.285  0.00  0.00    +0.000 A 
ATOM     32  C   UNL     1      -6.660  13.975  17.561  0.00  0.00    +0.000 A 
ATOM     33  C   UNL     1      -6.557  14.414  18.890  0.00  0.00    +0.000 A 
ENDBRANCH  27  28
ENDBRANCH  20  22
ENDBRANCH   1  20
TORSDOF 4
ENDMDL
MODEL 6
REMARK VINA RESULT:      -6.6      2.173      3.067
REMARK  Name = 
REMARK  4 active torsions:
REMARK  status: ('A' for Active; 'I' for Inactive)
REMARK    1  A    between atoms: S_2  and  C_4
REMARK    2  A    between atoms: S_2  and  N_16
REMARK    3  A    between atoms: C_9  and  C_10
REMARK    4  A    between atoms: C_24  and  C_25
REMARK                            x       y       z     vdW  Elec       q    Type
REMARK                         _______ _______ _______ _____ _____    ______ ____
ROOT
ATOM      1  N   UNL     1      -3.573  15.042  22.678  0.00  0.00    +0.000 NA
ATOM      2  C   UNL     1      -2.464  14.701  23.603  0.00  0.00    +0.000 C 
ATOM      3  C   UNL     1      -1.321  15.679  23.301  0.00  0.00    +0.000 C 
ATOM      4  C   UNL     1      -0.051  14.994  22.813  0.00  0.00    +0.000 C 
ATOM      5  N   UNL     1      -0.166  14.969  21.362  0.00  0.00    +0.000 N 
ATOM      6  C   UNL     1       0.075  13.795  20.672  0.00  0.00    +0.000 A 
ATOM      7  C   UNL     1      -0.081  13.719  19.286  0.00  0.00    +0.000 A 
ATOM      8  C   UNL     1       0.179  12.528  18.604  0.00  0.00    +0.000 A 
ATOM      9  C   UNL     1       0.597  11.408  19.315  0.00  0.00    +0.000 A 
ATOM     10  C   UNL     1       0.727  11.553  20.684  0.00  0.00    +0.000 A 
ATOM     11  N   UNL     1       0.504  12.710  21.357  0.00  0.00    +0.000 NA
ATOM     12  C   UNL     1      -1.114  15.966  20.879  0.00  0.00    +0.000 C 
ATOM     13  C   UNL     1      -1.785  16.540  22.132  0.00  0.00    +0.000 C 
ATOM     14  C   UNL     1      -3.295  16.395  22.135  0.00  0.00    +0.000 C 
ENDROOT
BRANCH   9  15
ATOM     15  C   UNL     1       0.923  10.105  18.661  0.00  0.00    +0.000 C 
ATOM     16  F   UNL     1      -0.073   9.632  17.858  0.00  0.00    +0.000 F 
ATOM     17  F   UNL     1       2.026  10.186  17.864  0.00  0.00    +0.000 F 
ATOM     18  F   UNL     1       1.185   9.108  19.551  0.00  0.00    +0.000 F 
ENDBRANCH   9  15
BRANCH   1  20
ATOM     19  O   UNL     1      -3.078  12.795  21.558  0.00  0.00    +0.000 OA
ATOM     20  S   UNL     1      -4.046  13.860  21.531  0.00  0.00    +0.000 S 
ATOM     21  O   UNL     1      -4.321  14.610  20.317  0.00  0.00    +0.000 OA
BRANCH  20  22
ATOM     22  C   UNL     1      -5.605  13.193  22.080  0.00  0.00    +0.000 A 
ATOM     23  C   UNL     1      -5.904  13.304  23.453  0.00  0.00    +0.000 A 
ATOM     24  C   UNL     1      -7.054  12.719  23.978  0.00  0.00    +0.000 A 
ATOM     25  C   UNL     1      -7.915  12.037  23.135  0.00  0.00    +0.000 A 
ATOM     26  C   UNL     1      -7.648  11.965  21.763  0.00  0.00    +0.000 A 
ATOM     27  C   UNL     1      -6.494  12.541  21.179  0.00  0.00    +0.000 A 
BRANCH  27  28
ATOM     28  C   UNL     1      -6.316  12.412  19.698  0.00  0.00    +0.000 A 
ATOM     29  C   UNL     1      -7.056  13.168  18.774  0.00  0.00    +0.000 A 
ATOM     30  C   UNL     1      -6.808  13.121  17.396  0.00  0.00    +0.000 A 
ATOM     31  C   UNL     1      -5.885  12.220  16.888  0.00  0.00    +0.000 A 
ATOM     32  C   UNL     1      -5.218  11.369  17.758  0.00  0.00    +0.000 A 
ATOM     33  C   UNL     1      -5.416  11.478  19.143  0.00  0.00    +0.000 A 
ENDBRANCH  27  28
ENDBRANCH  20  22
ENDBRANCH   1  20
TORSDOF 4
ENDMDL
MODEL 7
REMARK VINA RESULT:      -6.6      4.045      7.052
REMARK  Name = 
REMARK  4 active torsions:
REMARK  status: ('A' for Active; 'I' for Inactive)
REMARK    1  A    between atoms: S_2  and  C_4
REMARK    2  A    between atoms: S_2  and  N_16
REMARK    3  A    between atoms: C_9  and  C_10
REMARK    4  A    between atoms: C_24  and  C_25
REMARK                            x       y       z     vdW  Elec       q    Type
REMARK                         _______ _______ _______ _____ _____    ______ ____
ROOT
ATOM      1  N   UNL     1      -1.595  15.926  21.279  0.00  0.00    +0.000 NA
ATOM      2  C   UNL     1      -2.776  15.189  20.761  0.00  0.00    +0.000 C 
ATOM      3  C   UNL     1      -3.234  14.247  21.881  0.00  0.00    +0.000 C 
ATOM      4  C   UNL     1      -3.158  12.773  21.503  0.00  0.00    +0.000 C 
ATOM      5  N   UNL     1      -1.837  12.339  21.930  0.00  0.00    +0.000 N 
ATOM      6  C   UNL     1      -1.033  11.622  21.063  0.00  0.00    +0.000 A 
ATOM      7  C   UNL     1       0.262  11.237  21.418  0.00  0.00    +0.000 A 
ATOM      8  C   UNL     1       1.055  10.501  20.534  0.00  0.00    +0.000 A 
ATOM      9  C   UNL     1       0.548  10.151  19.288  0.00  0.00    +0.000 A 
ATOM     10  C   UNL     1      -0.740  10.567  19.000  0.00  0.00    +0.000 A 
ATOM     11  N   UNL     1      -1.532  11.258  19.859  0.00  0.00    +0.000 NA
ATOM     12  C   UNL     1      -1.277  13.228  22.941  0.00  0.00    +0.000 C 
ATOM     13  C   UNL     1      -2.242  14.418  23.025  0.00  0.00    +0.000 C 
ATOM     14  C   UNL     1      -1.582  15.756  22.754  0.00  0.00    +0.000 C 
ENDROOT
BRANCH   9  15
ATOM     15  C   UNL     1       1.317   9.343  18.294  0.00  0.00    +0.000 C 
ATOM     16  F   UNL     1       2.249  10.064  17.608  0.00  0.00    +0.000 F 
ATOM     17  F   UNL     1       2.005   8.321  18.879  0.00  0.00    +0.000 F 
ATOM     18  F   UNL     1       0.529   8.762  17.349  0.00  0.00    +0.000 F 
ENDBRANCH   9  15
BRANCH   1  20
ATOM     19  O   UNL     1      -0.102  14.370  19.902  0.00  0.00    +0.000 OA
ATOM     20  S   UNL     1      -0.095  15.685  20.486  0.00  0.00    +0.000 S 
ATOM     21  O   UNL     1       0.907  16.082  21.461  0.00  0.00    +0.000 OA
BRANCH  20  22
ATOM     22  C   UNL     1      -0.011  16.871  19.158  0.00  0.00    +0.000 A 
ATOM     23  C   UNL     1      -1.184  17.594  18.867  0.00  0.00    +0.000 A 
ATOM     24  C   UNL     1      -1.229  18.465  17.780  0.00  0.00    +0.000 A 
ATOM     25  C   UNL     1      -0.101  18.627  16.992  0.00  0.00    +0.000 A 
ATOM     26  C   UNL     1       1.081  17.948  17.306  0.00  0.00    +0.000 A 
ATOM     27  C   UNL     1       1.180  17.052  18.398  0.00  0.00    +0.000 A 
BRANCH  27  28
ATOM     28  C   UNL     1       2.498  16.388  18.647  0.00  0.00    +0.000 A 
ATOM     29  C   UNL     1       3.483  16.940  19.484  0.00  0.00    +0.000 A 
ATOM     30  C   UNL     1       4.668  16.264  19.797  0.00  0.00    +0.000 A 
ATOM     31  C   UNL     1       4.959  15.055  19.183  0.00  0.00    +0.000 A 
ATOM     32  C   UNL     1       4.066  14.532  18.257  0.00  0.00    +0.000 A 
ATOM     33  C   UNL     1       2.846  15.180  18.009  0.00  0.00    +0.000 A 
ENDBRANCH  27  28
ENDBRANCH  20  22
ENDBRANCH   1  20
TORSDOF 4
ENDMDL
MODEL 8
REMARK VINA RESULT:      -6.6      3.608      7.112
REMARK  Name = 
REMARK  4 active torsions:
REMARK  status: ('A' for Active; 'I' for Inactive)
REMARK    1  A    between atoms: S_2  and  C_4
REMARK    2  A    between atoms: S_2  and  N_16
REMARK    3  A    between atoms: C_9  and  C_10
REMARK    4  A    between atoms: C_24  and  C_25
REMARK                            x       y       z     vdW  Elec       q    Type
REMARK                         _______ _______ _______ _____ _____    ______ ____
ROOT
ATOM      1  N   UNL     1      -2.409  10.746  18.026  0.00  0.00    +0.000 NA
ATOM      2  C   UNL     1      -3.455   9.745  18.355  0.00  0.00    +0.000 C 
ATOM      3  C   UNL     1      -4.681  10.091  17.500  0.00  0.00    +0.000 C 
ATOM      4  C   UNL     1      -5.910  10.456  18.321  0.00  0.00    +0.000 C 
ATOM      5  N   UNL     1      -5.845  11.901  18.481  0.00  0.00    +0.000 N 
ATOM      6  C   UNL     1      -6.017  12.465  19.732  0.00  0.00    +0.000 A 
ATOM      7  C   UNL     1      -5.905  13.842  19.933  0.00  0.00    +0.000 A 
ATOM      8  C   UNL     1      -6.096  14.395  21.202  0.00  0.00    +0.000 A 
ATOM      9  C   UNL     1      -6.399  13.563  22.274  0.00  0.00    +0.000 A 
ATOM     10  C   UNL     1      -6.491  12.210  22.004  0.00  0.00    +0.000 A 
ATOM     11  N   UNL     1      -6.337  11.661  20.773  0.00  0.00    +0.000 NA
ATOM     12  C   UNL     1      -4.996  12.518  17.470  0.00  0.00    +0.000 C 
ATOM     13  C   UNL     1      -4.327  11.355  16.726  0.00  0.00    +0.000 C 
ATOM     14  C   UNL     1      -2.811  11.404  16.758  0.00  0.00    +0.000 C 
ENDROOT
BRANCH   9  15
ATOM     15  C   UNL     1      -6.645  14.074  23.656  0.00  0.00    +0.000 C 
ATOM     16  F   UNL     1      -7.912  14.538  23.850  0.00  0.00    +0.000 F 
ATOM     17  F   UNL     1      -6.460  13.112  24.605  0.00  0.00    +0.000 F 
ATOM     18  F   UNL     1      -5.819  15.098  24.005  0.00  0.00    +0.000 F 
ENDBRANCH   9  15
BRANCH   1  20
ATOM     19  O   UNL     1      -3.024  12.113  20.100  0.00  0.00    +0.000 OA
ATOM     20  S   UNL     1      -1.887  11.793  19.278  0.00  0.00    +0.000 S 
ATOM     21  O   UNL     1      -1.120  12.826  18.601  0.00  0.00    +0.000 OA
BRANCH  20  22
ATOM     22  C   UNL     1      -0.731  10.875  20.278  0.00  0.00    +0.000 A 
ATOM     23  C   UNL     1       0.029   9.880  19.632  0.00  0.00    +0.000 A 
ATOM     24  C   UNL     1       0.879   9.052  20.362  0.00  0.00    +0.000 A 
ATOM     25  C   UNL     1       0.984   9.224  21.732  0.00  0.00    +0.000 A 
ATOM     26  C   UNL     1       0.269  10.243  22.371  0.00  0.00    +0.000 A 
ATOM     27  C   UNL     1      -0.609  11.111  21.677  0.00  0.00    +0.000 A 
BRANCH  27  28
ATOM     28  C   UNL     1      -1.315  12.172  22.462  0.00  0.00    +0.000 A 
ATOM     29  C   UNL     1      -0.840  13.490  22.558  0.00  0.00    +0.000 A 
ATOM     30  C   UNL     1      -1.561  14.503  23.202  0.00  0.00    +0.000 A 
ATOM     31  C   UNL     1      -2.733  14.198  23.878  0.00  0.00    +0.000 A 
ATOM     32  C   UNL     1      -3.175  12.882  23.908  0.00  0.00    +0.000 A 
ATOM     33  C   UNL     1      -2.487  11.889  23.194  0.00  0.00    +0.000 A 
ENDBRANCH  27  28
ENDBRANCH  20  22
ENDBRANCH   1  20
TORSDOF 4
ENDMDL
MODEL 9
REMARK VINA RESULT:      -6.6      3.614      7.069
REMARK  Name = 
REMARK  4 active torsions:
REMARK  status: ('A' for Active; 'I' for Inactive)
REMARK    1  A    between atoms: S_2  and  C_4
REMARK    2  A    between atoms: S_2  and  N_16
REMARK    3  A    between atoms: C_9  and  C_10
REMARK    4  A    between atoms: C_24  and  C_25
REMARK                            x       y       z     vdW  Elec       q    Type
REMARK                         _______ _______ _______ _____ _____    ______ ____
ROOT
ATOM      1  N   UNL     1      -2.364  10.750  18.064  0.00  0.00    +0.000 NA
ATOM      2  C   UNL     1      -3.412   9.748  18.384  0.00  0.00    +0.000 C 
ATOM      3  C   UNL     1      -4.630  10.092  17.517  0.00  0.00    +0.000 C 
ATOM      4  C   UNL     1      -5.868  10.456  18.327  0.00  0.00    +0.000 C 
ATOM      5  N   UNL     1      -5.806  11.901  18.487  0.00  0.00    +0.000 N 
ATOM      6  C   UNL     1      -5.991  12.465  19.737  0.00  0.00    +0.000 A 
ATOM      7  C   UNL     1      -5.883  13.843  19.938  0.00  0.00    +0.000 A 
ATOM      8  C   UNL     1      -6.086  14.396  21.205  0.00  0.00    +0.000 A 
ATOM      9  C   UNL     1      -6.398  13.563  22.274  0.00  0.00    +0.000 A 
ATOM     10  C   UNL     1      -6.486  12.210  22.004  0.00  0.00    +0.000 A 
ATOM     11  N   UNL     1      -6.319  11.661  20.774  0.00  0.00    +0.000 NA
ATOM     12  C   UNL     1      -4.948  12.519  17.483  0.00  0.00    +0.000 C 
ATOM     13  C   UNL     1      -4.271  11.357  16.746  0.00  0.00    +0.000 C 
ATOM     14  C   UNL     1      -2.756  11.408  16.792  0.00  0.00    +0.000 C 
ENDROOT
BRANCH   9  15
ATOM     15  C   UNL     1      -6.657  14.075  23.654  0.00  0.00    +0.000 C 
ATOM     16  F   UNL     1      -5.813  15.076  24.033  0.00  0.00    +0.000 F 
ATOM     17  F   UNL     1      -7.914  14.586  23.789  0.00  0.00    +0.000 F 
ATOM     18  F   UNL     1      -6.546  13.114  24.612  0.00  0.00    +0.000 F 
ENDBRANCH   9  15
BRANCH   1  20
ATOM     19  O   UNL     1      -3.006  12.144  20.111  0.00  0.00    +0.000 OA
ATOM     20  S   UNL     1      -1.855  11.799  19.320  0.00  0.00    +0.000 S 
ATOM     21  O   UNL     1      -1.055  12.813  18.654  0.00  0.00    +0.000 OA
BRANCH  20  22
ATOM     22  C   UNL     1      -0.740  10.870  20.356  0.00  0.00    +0.000 A 
ATOM     23  C   UNL     1       0.028   9.866  19.734  0.00  0.00    +0.000 A 
ATOM     24  C   UNL     1       0.847   9.030  20.490  0.00  0.00    +0.000 A 
ATOM     25  C   UNL     1       0.912   9.202  21.862  0.00  0.00    +0.000 A 
ATOM     26  C   UNL     1       0.189  10.229  22.479  0.00  0.00    +0.000 A 
ATOM     27  C   UNL     1      -0.658  11.106  21.758  0.00  0.00    +0.000 A 
BRANCH  27  28
ATOM     28  C   UNL     1      -1.376  12.175  22.520  0.00  0.00    +0.000 A 
ATOM     29  C   UNL     1      -2.599  11.952  23.174  0.00  0.00    +0.000 A 
ATOM     30  C   UNL     1      -3.210  12.925  23.975  0.00  0.00    +0.000 A 
ATOM     31  C   UNL     1      -2.672  14.201  24.049  0.00  0.00    +0.000 A 
ATOM     32  C   UNL     1      -1.528  14.497  23.320  0.00  0.00    +0.000 A 
ATOM     33  C   UNL     1      -0.880  13.493  22.583  0.00  0.00    +0.000 A 
ENDBRANCH  27  28
ENDBRANCH  20  22
ENDBRANCH   1  20
TORSDOF 4
ENDMDL
