MODEL 1
REMARK VINA RESULT:      -7.9      0.000      0.000
REMARK  Name = 
REMARK  8 active torsions:
REMARK  status: ('A' for Active; 'I' for Inactive)
REMARK    1  A    between atoms: C_1  and  C_2
REMARK    2  A    between atoms: N_4  and  C_5
REMARK    3  A    between atoms: C_5  and  C_6
REMARK    4  A    between atoms: C_5  and  C_12
REMARK    5  A    between atoms: N_14  and  C_15
REMARK    6  A    between atoms: C_19  and  C_21
REMARK    7  A    between atoms: C_22  and  C_23
REMARK    8  A    between atoms: C_27  and  C_28
REMARK                            x       y       z     vdW  Elec       q    Type
REMARK                         _______ _______ _______ _____ _____    ______ ____
ROOT
ATOM      1  C   UNL     1       2.312   7.017  18.203  0.00  0.00    +0.000 C 
ATOM      2  C   UNL     1       2.272   7.395  19.709  0.00  0.00    +0.000 C 
ATOM      3  N   UNL     1       1.975   8.797  19.308  0.00  0.00    +0.000 NA
ATOM      4  C   UNL     1       2.595   8.523  17.995  0.00  0.00    +0.000 C 
ENDROOT
BRANCH   3   5
ATOM      5  C   UNL     1       0.528   9.106  19.327  0.00  0.00    +0.000 C 
ATOM      6  C   UNL     1      -0.151  10.075  18.338  0.00  0.00    +0.000 C 
ATOM      7  C   UNL     1       0.075  11.546  18.656  0.00  0.00    +0.000 C 
ATOM      8  N   UNL     1      -0.295  11.856  20.034  0.00  0.00    +0.000 N 
ATOM      9  C   UNL     1      -0.884  13.115  20.248  0.00  0.00    +0.000 C 
ATOM     10  O   UNL     1      -1.067  13.909  19.324  0.00  0.00    +0.000 OA
ATOM     11  C   UNL     1       0.307  10.991  21.064  0.00  0.00    +0.000 C 
ATOM     12  C   UNL     1       0.098   9.501  20.751  0.00  0.00    +0.000 C 
BRANCH   9  13
ATOM     13  C   UNL     1      -1.366  13.522  21.602  0.00  0.00    +0.000 A 
ATOM     14  C   UNL     1      -0.538  14.298  22.447  0.00  0.00    +0.000 A 
ATOM     15  C   UNL     1       0.840  14.810  22.098  0.00  0.00    +0.000 C 
ATOM     16  C   UNL     1      -1.024  14.689  23.711  0.00  0.00    +0.000 A 
ATOM     17  C   UNL     1      -2.299  14.328  24.130  0.00  0.00    +0.000 A 
ATOM     18  C   UNL     1      -3.133  13.621  23.277  0.00  0.00    +0.000 A 
ATOM     19  C   UNL     1      -2.704  13.252  21.987  0.00  0.00    +0.000 A 
ATOM     20  C   UNL     1      -3.737  12.664  21.071  0.00  0.00    +0.000 C 
ENDBRANCH   9  13
ENDBRANCH   3   5
BRANCH   1  21
ATOM     21  C   UNL     1       3.209   5.998  17.532  0.00  0.00    +0.000 C 
BRANCH  21  22
ATOM     22  C   UNL     1       2.802   4.583  17.890  0.00  0.00    +0.000 A 
ATOM     23  C   UNL     1       1.474   4.228  18.168  0.00  0.00    +0.000 A 
ATOM     24  C   UNL     1       1.153   2.923  18.550  0.00  0.00    +0.000 A 
ATOM     25  C   UNL     1       2.152   1.959  18.658  0.00  0.00    +0.000 A 
ATOM     26  C   UNL     1       3.472   2.288  18.358  0.00  0.00    +0.000 A 
ATOM     27  C   UNL     1       3.793   3.588  17.971  0.00  0.00    +0.000 A 
ENDBRANCH  21  22
BRANCH  21  31
ATOM     28  C   UNL     1       6.884   6.835  17.398  0.00  0.00    +0.000 C 
ATOM     29  C   UNL     1       5.496   6.598  16.875  0.00  0.00    +0.000 C 
ATOM     30  O   UNL     1       5.209   6.746  15.691  0.00  0.00    +0.000 OA
ATOM     31  N   UNL     1       4.591   6.256  17.853  0.00  0.00    +0.000 N 
ATOM     32  H   UNL     1       4.898   6.171  18.812  0.00  0.00    +0.000 HD
ENDBRANCH  21  31
ENDBRANCH   1  21
TORSDOF 5
ENDMDL
MODEL 2
REMARK VINA RESULT:      -7.8      2.407      9.863
REMARK  Name = 
REMARK  8 active torsions:
REMARK  status: ('A' for Active; 'I' for Inactive)
REMARK    1  A    between atoms: C_1  and  C_2
REMARK    2  A    between atoms: N_4  and  C_5
REMARK    3  A    between atoms: C_5  and  C_6
REMARK    4  A    between atoms: C_5  and  C_12
REMARK    5  A    between atoms: N_14  and  C_15
REMARK    6  A    between atoms: C_19  and  C_21
REMARK    7  A    between atoms: C_22  and  C_23
REMARK    8  A    between atoms: C_27  and  C_28
REMARK                            x       y       z     vdW  Elec       q    Type
REMARK                         _______ _______ _______ _____ _____    ______ ____
ROOT
ATOM      1  C   UNL     1       0.042   9.638  19.526  0.00  0.00    +0.000 C 
ATOM      2  C   UNL     1       1.495   9.588  18.978  0.00  0.00    +0.000 C 
ATOM      3  N   UNL     1       1.784   8.504  19.956  0.00  0.00    +0.000 NA
ATOM      4  C   UNL     1       0.664   8.994  20.787  0.00  0.00    +0.000 C 
ENDROOT
BRANCH   3   5
ATOM      5  C   UNL     1       1.656   7.152  19.369  0.00  0.00    +0.000 C 
ATOM      6  C   UNL     1       2.067   5.859  20.103  0.00  0.00    +0.000 C 
ATOM      7  C   UNL     1       3.569   5.609  20.124  0.00  0.00    +0.000 C 
ATOM      8  N   UNL     1       4.136   5.653  18.780  0.00  0.00    +0.000 N 
ATOM      9  C   UNL     1       5.179   4.747  18.519  0.00  0.00    +0.000 C 
ATOM     10  O   UNL     1       5.592   3.970  19.380  0.00  0.00    +0.000 OA
ATOM     11  C   UNL     1       3.808   6.855  17.991  0.00  0.00    +0.000 C 
ATOM     12  C   UNL     1       2.296   7.128  17.970  0.00  0.00    +0.000 C 
BRANCH   9  13
ATOM     13  C   UNL     1       5.795   4.650  17.161  0.00  0.00    +0.000 A 
ATOM     14  C   UNL     1       5.148   3.914  16.140  0.00  0.00    +0.000 A 
ATOM     15  C   UNL     1       3.820   3.205  16.273  0.00  0.00    +0.000 C 
ATOM     16  C   UNL     1       5.736   3.855  14.860  0.00  0.00    +0.000 A 
ATOM     17  C   UNL     1       6.933   4.510  14.592  0.00  0.00    +0.000 A 
ATOM     18  C   UNL     1       7.534   5.282  15.575  0.00  0.00    +0.000 A 
ATOM     19  C   UNL     1       6.953   5.407  16.853  0.00  0.00    +0.000 A 
ATOM     20  C   UNL     1       7.568   6.412  17.782  0.00  0.00    +0.000 C 
ENDBRANCH   9  13
ENDBRANCH   3   5
BRANCH   1  21
ATOM     21  C   UNL     1      -0.843  10.856  19.681  0.00  0.00    +0.000 C 
BRANCH  21  22
ATOM     22  C   UNL     1      -1.918  10.899  18.612  0.00  0.00    +0.000 A 
ATOM     23  C   UNL     1      -3.077  11.678  18.740  0.00  0.00    +0.000 A 
ATOM     24  C   UNL     1      -4.068  11.643  17.758  0.00  0.00    +0.000 A 
ATOM     25  C   UNL     1      -3.915  10.830  16.637  0.00  0.00    +0.000 A 
ATOM     26  C   UNL     1      -2.757  10.071  16.481  0.00  0.00    +0.000 A 
ATOM     27  C   UNL     1      -1.764  10.110  17.459  0.00  0.00    +0.000 A 
ENDBRANCH  21  22
BRANCH  21  31
ATOM     28  C   UNL     1       1.162  13.891  20.678  0.00  0.00    +0.000 C 
ATOM     29  C   UNL     1       0.332  12.654  20.869  0.00  0.00    +0.000 C 
ATOM     30  O   UNL     1       0.068  12.209  21.981  0.00  0.00    +0.000 OA
ATOM     31  N   UNL     1      -0.047  12.060  19.687  0.00  0.00    +0.000 N 
ATOM     32  H   UNL     1       0.225  12.475  18.807  0.00  0.00    +0.000 HD
ENDBRANCH  21  31
ENDBRANCH   1  21
TORSDOF 5
ENDMDL
MODEL 3
REMARK VINA RESULT:      -7.7      0.271      1.808
REMARK  Name = 
REMARK  8 active torsions:
REMARK  status: ('A' for Active; 'I' for Inactive)
REMARK    1  A    between atoms: C_1  and  C_2
REMARK    2  A    between atoms: N_4  and  C_5
REMARK    3  A    between atoms: C_5  and  C_6
REMARK    4  A    between atoms: C_5  and  C_12
REMARK    5  A    between atoms: N_14  and  C_15
REMARK    6  A    between atoms: C_19  and  C_21
REMARK    7  A    between atoms: C_22  and  C_23
REMARK    8  A    between atoms: C_27  and  C_28
REMARK                            x       y       z     vdW  Elec       q    Type
REMARK                         _______ _______ _______ _____ _____    ______ ____
ROOT
ATOM      1  C   UNL     1       2.337   7.029  18.294  0.00  0.00    +0.000 C 
ATOM      2  C   UNL     1       2.262   7.408  19.798  0.00  0.00    +0.000 C 
ATOM      3  N   UNL     1       2.024   8.819  19.390  0.00  0.00    +0.000 NA
ATOM      4  C   UNL     1       2.676   8.525  18.096  0.00  0.00    +0.000 C 
ENDROOT
BRANCH   3   5
ATOM      5  C   UNL     1       0.589   9.176  19.363  0.00  0.00    +0.000 C 
ATOM      6  C   UNL     1      -0.039  10.118  18.315  0.00  0.00    +0.000 C 
ATOM      7  C   UNL     1       0.230  11.595  18.569  0.00  0.00    +0.000 C 
ATOM      8  N   UNL     1      -0.156  11.983  19.922  0.00  0.00    +0.000 N 
ATOM      9  C   UNL     1      -0.705  13.269  20.064  0.00  0.00    +0.000 C 
ATOM     10  O   UNL     1      -0.844  14.023  19.101  0.00  0.00    +0.000 OA
ATOM     11  C   UNL     1       0.397  11.148  21.005  0.00  0.00    +0.000 C 
ATOM     12  C   UNL     1       0.145   9.652  20.757  0.00  0.00    +0.000 C 
BRANCH   9  13
ATOM     13  C   UNL     1      -1.201  13.755  21.387  0.00  0.00    +0.000 A 
ATOM     14  C   UNL     1      -2.484  13.376  21.847  0.00  0.00    +0.000 A 
ATOM     15  C   UNL     1      -3.444  12.463  21.121  0.00  0.00    +0.000 C 
ATOM     16  C   UNL     1      -2.921  13.829  23.108  0.00  0.00    +0.000 A 
ATOM     17  C   UNL     1      -2.109  14.633  23.901  0.00  0.00    +0.000 A 
ATOM     18  C   UNL     1      -0.828  14.952  23.477  0.00  0.00    +0.000 A 
ATOM     19  C   UNL     1      -0.335  14.480  22.244  0.00  0.00    +0.000 A 
ATOM     20  C   UNL     1       1.120  14.713  21.962  0.00  0.00    +0.000 C 
ENDBRANCH   9  13
ENDBRANCH   3   5
BRANCH   1  21
ATOM     21  C   UNL     1       3.220   5.981  17.650  0.00  0.00    +0.000 C 
BRANCH  21  22
ATOM     22  C   UNL     1       2.851   4.586  18.115  0.00  0.00    +0.000 A 
ATOM     23  C   UNL     1       3.809   3.662  18.557  0.00  0.00    +0.000 A 
ATOM     24  C   UNL     1       3.432   2.368  18.922  0.00  0.00    +0.000 A 
ATOM     25  C   UNL     1       2.096   1.981  18.850  0.00  0.00    +0.000 A 
ATOM     26  C   UNL     1       1.128   2.895  18.439  0.00  0.00    +0.000 A 
ATOM     27  C   UNL     1       1.503   4.190  18.080  0.00  0.00    +0.000 A 
ENDBRANCH  21  22
BRANCH  21  31
ATOM     28  C   UNL     1       6.862   6.899  17.309  0.00  0.00    +0.000 C 
ATOM     29  C   UNL     1       5.455   6.620  16.864  0.00  0.00    +0.000 C 
ATOM     30  O   UNL     1       5.104   6.738  15.694  0.00  0.00    +0.000 OA
ATOM     31  N   UNL     1       4.611   6.277  17.894  0.00  0.00    +0.000 N 
ATOM     32  H   UNL     1       4.969   6.218  18.838  0.00  0.00    +0.000 HD
ENDBRANCH  21  31
ENDBRANCH   1  21
TORSDOF 5
ENDMDL
MODEL 4
REMARK VINA RESULT:      -7.6      2.592      9.899
REMARK  Name = 
REMARK  8 active torsions:
REMARK  status: ('A' for Active; 'I' for Inactive)
REMARK    1  A    between atoms: C_1  and  C_2
REMARK    2  A    between atoms: N_4  and  C_5
REMARK    3  A    between atoms: C_5  and  C_6
REMARK    4  A    between atoms: C_5  and  C_12
REMARK    5  A    between atoms: N_14  and  C_15
REMARK    6  A    between atoms: C_19  and  C_21
REMARK    7  A    between atoms: C_22  and  C_23
REMARK    8  A    between atoms: C_27  and  C_28
REMARK                            x       y       z     vdW  Elec       q    Type
REMARK                         _______ _______ _______ _____ _____    ______ ____
ROOT
ATOM      1  C   UNL     1       0.054   9.894  18.957  0.00  0.00    +0.000 C 
ATOM      2  C   UNL     1       1.543   9.772  18.532  0.00  0.00    +0.000 C 
ATOM      3  N   UNL     1       1.735   8.789  19.631  0.00  0.00    +0.000 NA
ATOM      4  C   UNL     1       0.564   9.372  20.320  0.00  0.00    +0.000 C 
ENDROOT
BRANCH   3   5
ATOM      5  C   UNL     1       1.627   7.386  19.174  0.00  0.00    +0.000 C 
ATOM      6  C   UNL     1       2.074   6.175  20.018  0.00  0.00    +0.000 C 
ATOM      7  C   UNL     1       3.581   5.956  20.039  0.00  0.00    +0.000 C 
ATOM      8  N   UNL     1       4.128   5.886  18.687  0.00  0.00    +0.000 N 
ATOM      9  C   UNL     1       5.185   4.980  18.494  0.00  0.00    +0.000 C 
ATOM     10  O   UNL     1       5.626   4.293  19.417  0.00  0.00    +0.000 OA
ATOM     11  C   UNL     1       3.765   7.003  17.796  0.00  0.00    +0.000 C 
ATOM     12  C   UNL     1       2.247   7.245  17.773  0.00  0.00    +0.000 C 
BRANCH   9  13
ATOM     13  C   UNL     1       5.784   4.769  17.142  0.00  0.00    +0.000 A 
ATOM     14  C   UNL     1       5.137   3.931  16.203  0.00  0.00    +0.000 A 
ATOM     15  C   UNL     1       3.825   3.215  16.421  0.00  0.00    +0.000 C 
ATOM     16  C   UNL     1       5.709   3.765  14.925  0.00  0.00    +0.000 A 
ATOM     17  C   UNL     1       6.889   4.414  14.579  0.00  0.00    +0.000 A 
ATOM     18  C   UNL     1       7.489   5.283  15.478  0.00  0.00    +0.000 A 
ATOM     19  C   UNL     1       6.924   5.515  16.748  0.00  0.00    +0.000 A 
ATOM     20  C   UNL     1       7.532   6.611  17.571  0.00  0.00    +0.000 C 
ENDBRANCH   9  13
ENDBRANCH   3   5
BRANCH   1  21
ATOM     21  C   UNL     1      -0.818  11.131  18.920  0.00  0.00    +0.000 C 
BRANCH  21  22
ATOM     22  C   UNL     1      -1.999  10.949  17.988  0.00  0.00    +0.000 A 
ATOM     23  C   UNL     1      -1.955  10.098  16.874  0.00  0.00    +0.000 A 
ATOM     24  C   UNL     1      -3.047  10.004  16.009  0.00  0.00    +0.000 A 
ATOM     25  C   UNL     1      -4.195  10.757  16.246  0.00  0.00    +0.000 A 
ATOM     26  C   UNL     1      -4.266  11.585  17.364  0.00  0.00    +0.000 A 
ATOM     27  C   UNL     1      -3.178  11.675  18.231  0.00  0.00    +0.000 A 
ENDBRANCH  21  22
BRANCH  21  31
ATOM     28  C   UNL     1       0.813  14.530  18.816  0.00  0.00    +0.000 C 
ATOM     29  C   UNL     1      -0.075  13.434  19.331  0.00  0.00    +0.000 C 
ATOM     30  O   UNL     1      -0.732  13.554  20.360  0.00  0.00    +0.000 OA
ATOM     31  N   UNL     1      -0.032  12.289  18.569  0.00  0.00    +0.000 N 
ATOM     32  H   UNL     1       0.549  12.259  17.742  0.00  0.00    +0.000 HD
ENDBRANCH  21  31
ENDBRANCH   1  21
TORSDOF 5
ENDMDL
MODEL 5
REMARK VINA RESULT:      -7.5      2.419      9.750
REMARK  Name = 
REMARK  8 active torsions:
REMARK  status: ('A' for Active; 'I' for Inactive)
REMARK    1  A    between atoms: C_1  and  C_2
REMARK    2  A    between atoms: N_4  and  C_5
REMARK    3  A    between atoms: C_5  and  C_6
REMARK    4  A    between atoms: C_5  and  C_12
REMARK    5  A    between atoms: N_14  and  C_15
REMARK    6  A    between atoms: C_19  and  C_21
REMARK    7  A    between atoms: C_22  and  C_23
REMARK    8  A    between atoms: C_27  and  C_28
REMARK                            x       y       z     vdW  Elec       q    Type
REMARK                         _______ _______ _______ _____ _____    ______ ____
ROOT
ATOM      1  C   UNL     1       0.012   9.588  19.846  0.00  0.00    +0.000 C 
ATOM      2  C   UNL     1       1.521   9.442  19.507  0.00  0.00    +0.000 C 
ATOM      3  N   UNL     1       1.573   8.271  20.423  0.00  0.00    +0.000 NA
ATOM      4  C   UNL     1       0.385   8.803  21.125  0.00  0.00    +0.000 C 
ENDROOT
BRANCH   3   5
ATOM      5  C   UNL     1       1.424   6.980  19.716  0.00  0.00    +0.000 C 
ATOM      6  C   UNL     1       1.738   5.613  20.357  0.00  0.00    +0.000 C 
ATOM      7  C   UNL     1       3.225   5.293  20.438  0.00  0.00    +0.000 C 
ATOM      8  N   UNL     1       3.870   5.424  19.135  0.00  0.00    +0.000 N 
ATOM      9  C   UNL     1       4.889   4.497  18.854  0.00  0.00    +0.000 C 
ATOM     10  O   UNL     1       5.219   3.631  19.666  0.00  0.00    +0.000 OA
ATOM     11  C   UNL     1       3.639   6.701  18.436  0.00  0.00    +0.000 C 
ATOM     12  C   UNL     1       2.143   7.045  18.357  0.00  0.00    +0.000 C 
BRANCH   9  13
ATOM     13  C   UNL     1       5.578   4.485  17.529  0.00  0.00    +0.000 A 
ATOM     14  C   UNL     1       6.904   4.967  17.415  0.00  0.00    +0.000 A 
ATOM     15  C   UNL     1       7.750   5.491  18.552  0.00  0.00    +0.000 C 
ATOM     16  C   UNL     1       7.542   4.925  16.159  0.00  0.00    +0.000 A 
ATOM     17  C   UNL     1       6.890   4.416  15.042  0.00  0.00    +0.000 A 
ATOM     18  C   UNL     1       5.615   3.886  15.167  0.00  0.00    +0.000 A 
ATOM     19  C   UNL     1       4.960   3.865  16.414  0.00  0.00    +0.000 A 
ATOM     20  C   UNL     1       3.670   3.101  16.490  0.00  0.00    +0.000 C 
ENDBRANCH   9  13
ENDBRANCH   3   5
BRANCH   1  21
ATOM     21  C   UNL     1      -0.785  10.869  19.973  0.00  0.00    +0.000 C 
BRANCH  21  22
ATOM     22  C   UNL     1      -1.849  10.967  18.898  0.00  0.00    +0.000 A 
ATOM     23  C   UNL     1      -2.998  11.759  19.045  0.00  0.00    +0.000 A 
ATOM     24  C   UNL     1      -3.980  11.776  18.054  0.00  0.00    +0.000 A 
ATOM     25  C   UNL     1      -3.830  11.003  16.905  0.00  0.00    +0.000 A 
ATOM     26  C   UNL     1      -2.682  10.232  16.731  0.00  0.00    +0.000 A 
ATOM     27  C   UNL     1      -1.697  10.220  17.717  0.00  0.00    +0.000 A 
ENDBRANCH  21  22
BRANCH  21  31
ATOM     28  C   UNL     1       1.316  13.857  20.911  0.00  0.00    +0.000 C 
ATOM     29  C   UNL     1       0.376  12.704  21.117  0.00  0.00    +0.000 C 
ATOM     30  O   UNL     1      -0.051  12.398  22.225  0.00  0.00    +0.000 OA
ATOM     31  N   UNL     1       0.096  12.012  19.961  0.00  0.00    +0.000 N 
ATOM     32  H   UNL     1       0.501  12.313  19.086  0.00  0.00    +0.000 HD
ENDBRANCH  21  31
ENDBRANCH   1  21
TORSDOF 5
ENDMDL
MODEL 6
REMARK VINA RESULT:      -7.4      0.949      1.079
REMARK  Name = 
REMARK  8 active torsions:
REMARK  status: ('A' for Active; 'I' for Inactive)
REMARK    1  A    between atoms: C_1  and  C_2
REMARK    2  A    between atoms: N_4  and  C_5
REMARK    3  A    between atoms: C_5  and  C_6
REMARK    4  A    between atoms: C_5  and  C_12
REMARK    5  A    between atoms: N_14  and  C_15
REMARK    6  A    between atoms: C_19  and  C_21
REMARK    7  A    between atoms: C_22  and  C_23
REMARK    8  A    between atoms: C_27  and  C_28
REMARK                            x       y       z     vdW  Elec       q    Type
REMARK                         _______ _______ _______ _____ _____    ______ ____
ROOT
ATOM      1  C   UNL     1       1.832   7.226  18.666  0.00  0.00    +0.000 C 
ATOM      2  C   UNL     1       1.895   7.924  20.052  0.00  0.00    +0.000 C 
ATOM      3  N   UNL     1       1.615   9.216  19.370  0.00  0.00    +0.000 NA
ATOM      4  C   UNL     1       2.145   8.638  18.117  0.00  0.00    +0.000 C 
ENDROOT
BRANCH   3   5
ATOM      5  C   UNL     1       0.181   9.582  19.397  0.00  0.00    +0.000 C 
ATOM      6  C   UNL     1      -0.445  10.654  18.482  0.00  0.00    +0.000 C 
ATOM      7  C   UNL     1      -0.165  12.085  18.921  0.00  0.00    +0.000 C 
ATOM      8  N   UNL     1      -0.543  12.297  20.315  0.00  0.00    +0.000 N 
ATOM      9  C   UNL     1      -1.084  13.558  20.624  0.00  0.00    +0.000 C 
ATOM     10  O   UNL     1      -1.222  14.431  19.766  0.00  0.00    +0.000 OA
ATOM     11  C   UNL     1       0.009  11.328  21.279  0.00  0.00    +0.000 C 
ATOM     12  C   UNL     1      -0.254   9.877  20.843  0.00  0.00    +0.000 C 
BRANCH   9  13
ATOM     13  C   UNL     1      -1.570  13.873  22.001  0.00  0.00    +0.000 A 
ATOM     14  C   UNL     1      -0.790  14.682  22.861  0.00  0.00    +0.000 A 
ATOM     15  C   UNL     1       0.535  15.318  22.508  0.00  0.00    +0.000 C 
ATOM     16  C   UNL     1      -1.280  14.985  24.147  0.00  0.00    +0.000 A 
ATOM     17  C   UNL     1      -2.513  14.506  24.575  0.00  0.00    +0.000 A 
ATOM     18  C   UNL     1      -3.305  13.766  23.710  0.00  0.00    +0.000 A 
ATOM     19  C   UNL     1      -2.873  13.481  22.398  0.00  0.00    +0.000 A 
ATOM     20  C   UNL     1      -3.874  12.845  21.479  0.00  0.00    +0.000 C 
ENDBRANCH   9  13
ENDBRANCH   3   5
BRANCH   1  21
ATOM     21  C   UNL     1       2.657   6.050  18.188  0.00  0.00    +0.000 C 
BRANCH  21  22
ATOM     22  C   UNL     1       2.207   4.758  18.840  0.00  0.00    +0.000 A 
ATOM     23  C   UNL     1       2.266   4.552  20.226  0.00  0.00    +0.000 A 
ATOM     24  C   UNL     1       1.895   3.325  20.779  0.00  0.00    +0.000 A 
ATOM     25  C   UNL     1       1.459   2.289  19.955  0.00  0.00    +0.000 A 
ATOM     26  C   UNL     1       1.368   2.486  18.579  0.00  0.00    +0.000 A 
ATOM     27  C   UNL     1       1.732   3.713  18.027  0.00  0.00    +0.000 A 
ENDBRANCH  21  22
BRANCH  21  31
ATOM     28  C   UNL     1       6.412   6.237  17.886  0.00  0.00    +0.000 C 
ATOM     29  C   UNL     1       5.005   5.884  17.494  0.00  0.00    +0.000 C 
ATOM     30  O   UNL     1       4.743   5.321  16.436  0.00  0.00    +0.000 OA
ATOM     31  N   UNL     1       4.061   6.299  18.405  0.00  0.00    +0.000 N 
ATOM     32  H   UNL     1       4.353   6.774  19.248  0.00  0.00    +0.000 HD
ENDBRANCH  21  31
ENDBRANCH   1  21
TORSDOF 5
ENDMDL
MODEL 7
REMARK VINA RESULT:      -7.4      1.020      1.966
REMARK  Name = 
REMARK  8 active torsions:
REMARK  status: ('A' for Active; 'I' for Inactive)
REMARK    1  A    between atoms: C_1  and  C_2
REMARK    2  A    between atoms: N_4  and  C_5
REMARK    3  A    between atoms: C_5  and  C_6
REMARK    4  A    between atoms: C_5  and  C_12
REMARK    5  A    between atoms: N_14  and  C_15
REMARK    6  A    between atoms: C_19  and  C_21
REMARK    7  A    between atoms: C_22  and  C_23
REMARK    8  A    between atoms: C_27  and  C_28
REMARK                            x       y       z     vdW  Elec       q    Type
REMARK                         _______ _______ _______ _____ _____    ______ ____
ROOT
ATOM      1  C   UNL     1       1.760   7.447  18.570  0.00  0.00    +0.000 C 
ATOM      2  C   UNL     1       1.926   8.231  19.901  0.00  0.00    +0.000 C 
ATOM      3  N   UNL     1       1.581   9.476  19.164  0.00  0.00    +0.000 NA
ATOM      4  C   UNL     1       2.016   8.822  17.911  0.00  0.00    +0.000 C 
ENDROOT
BRANCH   3   5
ATOM      5  C   UNL     1       0.151   9.837  19.283  0.00  0.00    +0.000 C 
ATOM      6  C   UNL     1      -0.543  10.886  18.390  0.00  0.00    +0.000 C 
ATOM      7  C   UNL     1      -0.242  12.327  18.777  0.00  0.00    +0.000 C 
ATOM      8  N   UNL     1      -0.523  12.569  20.189  0.00  0.00    +0.000 N 
ATOM      9  C   UNL     1      -1.048  13.834  20.507  0.00  0.00    +0.000 C 
ATOM     10  O   UNL     1      -1.250  14.687  19.641  0.00  0.00    +0.000 OA
ATOM     11  C   UNL     1       0.100  11.623  21.133  0.00  0.00    +0.000 C 
ATOM     12  C   UNL     1      -0.184  10.163  20.748  0.00  0.00    +0.000 C 
BRANCH   9  13
ATOM     13  C   UNL     1      -1.439  14.178  21.907  0.00  0.00    +0.000 A 
ATOM     14  C   UNL     1      -2.632  13.654  22.459  0.00  0.00    +0.000 A 
ATOM     15  C   UNL     1      -3.585  12.713  21.760  0.00  0.00    +0.000 C 
ATOM     16  C   UNL     1      -2.969  13.974  23.790  0.00  0.00    +0.000 A 
ATOM     17  C   UNL     1      -2.147  14.789  24.560  0.00  0.00    +0.000 A 
ATOM     18  C   UNL     1      -0.948  15.251  24.039  0.00  0.00    +0.000 A 
ATOM     19  C   UNL     1      -0.550  14.915  22.730  0.00  0.00    +0.000 A 
ATOM     20  C   UNL     1       0.843  15.297  22.325  0.00  0.00    +0.000 C 
ENDBRANCH   9  13
ENDBRANCH   3   5
BRANCH   1  21
ATOM     21  C   UNL     1       2.555   6.246  18.103  0.00  0.00    +0.000 C 
BRANCH  21  22
ATOM     22  C   UNL     1       2.090   4.975  18.784  0.00  0.00    +0.000 A 
ATOM     23  C   UNL     1       2.245   4.758  20.161  0.00  0.00    +0.000 A 
ATOM     24  C   UNL     1       1.854   3.548  20.738  0.00  0.00    +0.000 A 
ATOM     25  C   UNL     1       1.303   2.542  19.949  0.00  0.00    +0.000 A 
ATOM     26  C   UNL     1       1.116   2.751  18.584  0.00  0.00    +0.000 A 
ATOM     27  C   UNL     1       1.500   3.962  18.008  0.00  0.00    +0.000 A 
ENDBRANCH  21  22
BRANCH  21  31
ATOM     28  C   UNL     1       6.315   6.264  17.803  0.00  0.00    +0.000 C 
ATOM     29  C   UNL     1       4.898   5.913  17.450  0.00  0.00    +0.000 C 
ATOM     30  O   UNL     1       4.617   5.231  16.470  0.00  0.00    +0.000 OA
ATOM     31  N   UNL     1       3.967   6.472  18.296  0.00  0.00    +0.000 N 
ATOM     32  H   UNL     1       4.274   7.039  19.074  0.00  0.00    +0.000 HD
ENDBRANCH  21  31
ENDBRANCH   1  21
TORSDOF 5
ENDMDL
MODEL 8
REMARK VINA RESULT:      -7.1      1.248      2.264
REMARK  Name = 
REMARK  8 active torsions:
REMARK  status: ('A' for Active; 'I' for Inactive)
REMARK    1  A    between atoms: C_1  and  C_2
REMARK    2  A    between atoms: N_4  and  C_5
REMARK    3  A    between atoms: C_5  and  C_6
REMARK    4  A    between atoms: C_5  and  C_12
REMARK    5  A    between atoms: N_14  and  C_15
REMARK    6  A    between atoms: C_19  and  C_21
REMARK    7  A    between atoms: C_22  and  C_23
REMARK    8  A    between atoms: C_27  and  C_28
REMARK                            x       y       z     vdW  Elec       q    Type
REMARK                         _______ _______ _______ _____ _____    ______ ____
ROOT
ATOM      1  C   UNL     1       1.758   8.049  18.101  0.00  0.00    +0.000 C 
ATOM      2  C   UNL     1       1.412   8.576  19.520  0.00  0.00    +0.000 C 
ATOM      3  N   UNL     1       1.381   9.953  18.958  0.00  0.00    +0.000 NA
ATOM      4  C   UNL     1       2.255   9.493  17.858  0.00  0.00    +0.000 C 
ENDROOT
BRANCH   3   5
ATOM      5  C   UNL     1       0.016  10.399  18.602  0.00  0.00    +0.000 C 
ATOM      6  C   UNL     1      -0.301  11.783  17.998  0.00  0.00    +0.000 C 
ATOM      7  C   UNL     1      -0.292  12.918  19.012  0.00  0.00    +0.000 C 
ATOM      8  N   UNL     1      -1.164  12.628  20.146  0.00  0.00    +0.000 N 
ATOM      9  C   UNL     1      -1.859  13.723  20.688  0.00  0.00    +0.000 C 
ATOM     10  O   UNL     1      -1.730  14.860  20.234  0.00  0.00    +0.000 OA
ATOM     11  C   UNL     1      -0.940  11.327  20.803  0.00  0.00    +0.000 C 
ATOM     12  C   UNL     1      -0.933  10.170  19.791  0.00  0.00    +0.000 C 
BRANCH   9  13
ATOM     13  C   UNL     1      -2.832  13.542  21.807  0.00  0.00    +0.000 A 
ATOM     14  C   UNL     1      -4.129  13.041  21.545  0.00  0.00    +0.000 A 
ATOM     15  C   UNL     1      -4.652  12.619  20.192  0.00  0.00    +0.000 C 
ATOM     16  C   UNL     1      -5.022  12.857  22.620  0.00  0.00    +0.000 A 
ATOM     17  C   UNL     1      -4.645  13.156  23.924  0.00  0.00    +0.000 A 
ATOM     18  C   UNL     1      -3.354  13.588  24.188  0.00  0.00    +0.000 A 
ATOM     19  C   UNL     1      -2.414  13.739  23.147  0.00  0.00    +0.000 A 
ATOM     20  C   UNL     1      -0.997  14.022  23.550  0.00  0.00    +0.000 C 
ENDBRANCH   9  13
ENDBRANCH   3   5
BRANCH   1  21
ATOM     21  C   UNL     1       2.663   6.888  17.744  0.00  0.00    +0.000 C 
BRANCH  21  22
ATOM     22  C   UNL     1       2.303   5.644  18.531  0.00  0.00    +0.000 A 
ATOM     23  C   UNL     1       2.628   5.490  19.887  0.00  0.00    +0.000 A 
ATOM     24  C   UNL     1       2.328   4.304  20.559  0.00  0.00    +0.000 A 
ATOM     25  C   UNL     1       1.701   3.258  19.887  0.00  0.00    +0.000 A 
ATOM     26  C   UNL     1       1.346   3.404  18.548  0.00  0.00    +0.000 A 
ATOM     27  C   UNL     1       1.639   4.591  17.878  0.00  0.00    +0.000 A 
ENDBRANCH  21  22
BRANCH  21  31
ATOM     28  C   UNL     1       6.406   7.236  17.446  0.00  0.00    +0.000 C 
ATOM     29  C   UNL     1       5.030   6.735  17.114  0.00  0.00    +0.000 C 
ATOM     30  O   UNL     1       4.820   5.971  16.177  0.00  0.00    +0.000 OA
ATOM     31  N   UNL     1       4.046   7.255  17.924  0.00  0.00    +0.000 N 
ATOM     32  H   UNL     1       4.294   7.895  18.666  0.00  0.00    +0.000 HD
ENDBRANCH  21  31
ENDBRANCH   1  21
TORSDOF 5
ENDMDL
MODEL 9
REMARK VINA RESULT:      -7.0      1.231      2.139
REMARK  Name = 
REMARK  8 active torsions:
REMARK  status: ('A' for Active; 'I' for Inactive)
REMARK    1  A    between atoms: C_1  and  C_2
REMARK    2  A    between atoms: N_4  and  C_5
REMARK    3  A    between atoms: C_5  and  C_6
REMARK    4  A    between atoms: C_5  and  C_12
REMARK    5  A    between atoms: N_14  and  C_15
REMARK    6  A    between atoms: C_19  and  C_21
REMARK    7  A    between atoms: C_22  and  C_23
REMARK    8  A    between atoms: C_27  and  C_28
REMARK                            x       y       z     vdW  Elec       q    Type
REMARK                         _______ _______ _______ _____ _____    ______ ____
ROOT
ATOM      1  C   UNL     1       1.848   7.417  18.373  0.00  0.00    +0.000 C 
ATOM      2  C   UNL     1       1.524   8.104  19.728  0.00  0.00    +0.000 C 
ATOM      3  N   UNL     1       1.578   9.417  19.029  0.00  0.00    +0.000 NA
ATOM      4  C   UNL     1       2.430   8.798  17.992  0.00  0.00    +0.000 C 
ENDROOT
BRANCH   3   5
ATOM      5  C   UNL     1       0.243   9.902  18.613  0.00  0.00    +0.000 C 
ATOM      6  C   UNL     1       0.008  11.249  17.899  0.00  0.00    +0.000 C 
ATOM      7  C   UNL     1       0.059  12.458  18.824  0.00  0.00    +0.000 C 
ATOM      8  N   UNL     1      -0.845  12.299  19.959  0.00  0.00    +0.000 N 
ATOM      9  C   UNL     1      -1.492  13.466  20.402  0.00  0.00    +0.000 C 
ATOM     10  O   UNL     1      -1.297  14.558  19.866  0.00  0.00    +0.000 OA
ATOM     11  C   UNL     1      -0.699  11.043  20.717  0.00  0.00    +0.000 C 
ATOM     12  C   UNL     1      -0.736   9.813  19.797  0.00  0.00    +0.000 C 
BRANCH   9  13
ATOM     13  C   UNL     1      -2.491  13.421  21.512  0.00  0.00    +0.000 A 
ATOM     14  C   UNL     1      -3.804  12.954  21.266  0.00  0.00    +0.000 A 
ATOM     15  C   UNL     1      -4.321  12.442  19.942  0.00  0.00    +0.000 C 
ATOM     16  C   UNL     1      -4.722  12.899  22.334  0.00  0.00    +0.000 A 
ATOM     17  C   UNL     1      -4.354  13.291  23.615  0.00  0.00    +0.000 A 
ATOM     18  C   UNL     1      -3.051  13.690  23.869  0.00  0.00    +0.000 A 
ATOM     19  C   UNL     1      -2.088  13.713  22.840  0.00  0.00    +0.000 A 
ATOM     20  C   UNL     1      -0.667  13.969  23.246  0.00  0.00    +0.000 C 
ENDBRANCH   9  13
ENDBRANCH   3   5
BRANCH   1  21
ATOM     21  C   UNL     1       2.686   6.176  18.146  0.00  0.00    +0.000 C 
BRANCH  21  22
ATOM     22  C   UNL     1       2.214   5.025  19.012  0.00  0.00    +0.000 A 
ATOM     23  C   UNL     1       1.400   3.995  18.519  0.00  0.00    +0.000 A 
ATOM     24  C   UNL     1       0.942   2.984  19.366  0.00  0.00    +0.000 A 
ATOM     25  C   UNL     1       1.290   2.989  20.714  0.00  0.00    +0.000 A 
ATOM     26  C   UNL     1       2.120   3.989  21.215  0.00  0.00    +0.000 A 
ATOM     27  C   UNL     1       2.584   4.995  20.368  0.00  0.00    +0.000 A 
ENDBRANCH  21  22
BRANCH  21  31
ATOM     28  C   UNL     1       6.448   6.327  17.924  0.00  0.00    +0.000 C 
ATOM     29  C   UNL     1       5.053   5.902  17.561  0.00  0.00    +0.000 C 
ATOM     30  O   UNL     1       4.822   5.159  16.613  0.00  0.00    +0.000 OA
ATOM     31  N   UNL     1       4.083   6.467  18.356  0.00  0.00    +0.000 N 
ATOM     32  H   UNL     1       4.350   7.086  19.109  0.00  0.00    +0.000 HD
ENDBRANCH  21  31
ENDBRANCH   1  21
TORSDOF 5
ENDMDL
