MODEL 1
REMARK VINA RESULT:      -6.2      0.000      0.000
REMARK  Name = 
REMARK  8 active torsions:
REMARK  status: ('A' for Active; 'I' for Inactive)
REMARK    1  A    between atoms: C_1  and  C_2
REMARK    2  A    between atoms: C_4  and  C_5
REMARK    3  A    between atoms: C_6  and  S_7
REMARK    4  A    between atoms: S_7  and  N_10
REMARK    5  A    between atoms: N_10  and  C_11
REMARK    6  A    between atoms: C_11  and  C_12
REMARK    7  A    between atoms: C_12  and  O_13
REMARK    8  A    between atoms: C_14  and  C_15
REMARK                            x       y       z     vdW  Elec       q    Type
REMARK                         _______ _______ _______ _____ _____    ______ ____
ROOT
ATOM      1  C   UNL     1       1.925   9.164  18.174  0.00  0.00    +0.000 C 
ATOM      2  C   UNL     1       2.627   7.843  18.289  0.00  0.00    +0.000 A 
ATOM      3  C   UNL     1       2.296   6.938  19.295  0.00  0.00    +0.000 A 
ATOM      4  C   UNL     1       2.979   5.713  19.445  0.00  0.00    +0.000 A 
ATOM      5  C   UNL     1       2.540   4.837  20.589  0.00  0.00    +0.000 C 
ATOM      6  C   UNL     1       4.033   5.396  18.551  0.00  0.00    +0.000 A 
ATOM      7  C   UNL     1       4.356   6.295  17.502  0.00  0.00    +0.000 A 
ATOM      8  C   UNL     1       5.469   6.100  16.506  0.00  0.00    +0.000 C 
ATOM      9  C   UNL     1       3.650   7.513  17.401  0.00  0.00    +0.000 A 
ENDROOT
BRANCH   6  10
ATOM     10  S   UNL     1       5.066   3.946  18.826  0.00  0.00    +0.000 S 
ATOM     11  O   UNL     1       6.413   4.296  18.436  0.00  0.00    +0.000 OA
ATOM     12  O   UNL     1       4.815   3.355  20.119  0.00  0.00    +0.000 OA
BRANCH  10  13
ATOM     13  N   UNL     1       4.537   2.822  17.674  0.00  0.00    +0.000 NA
ATOM     14  H   UNL     1       5.364   2.502  17.171  0.00  0.00    +0.000 HD
BRANCH  13  15
ATOM     15  C   UNL     1       3.625   1.754  18.136  0.00  0.00    +0.000 C 
BRANCH  15  16
ATOM     16  C   UNL     1       2.171   2.216  17.982  0.00  0.00    +0.000 C 
BRANCH  16  17
ATOM     17  O   UNL     1       2.060   3.194  16.949  0.00  0.00    +0.000 OA
ATOM     18  H   UNL     1       2.920   3.640  16.878  0.00  0.00    +0.000 HD
ENDBRANCH  16  17
ENDBRANCH  15  16
ENDBRANCH  13  15
ENDBRANCH  10  13
ENDBRANCH   6  10
TORSDOF 5
ENDMDL
MODEL 2
REMARK VINA RESULT:      -6.0      1.818      3.170
REMARK  Name = 
REMARK  8 active torsions:
REMARK  status: ('A' for Active; 'I' for Inactive)
REMARK    1  A    between atoms: C_1  and  C_2
REMARK    2  A    between atoms: C_4  and  C_5
REMARK    3  A    between atoms: C_6  and  S_7
REMARK    4  A    between atoms: S_7  and  N_10
REMARK    5  A    between atoms: N_10  and  C_11
REMARK    6  A    between atoms: C_11  and  C_12
REMARK    7  A    between atoms: C_12  and  O_13
REMARK    8  A    between atoms: C_14  and  C_15
REMARK                            x       y       z     vdW  Elec       q    Type
REMARK                         _______ _______ _______ _____ _____    ______ ____
ROOT
ATOM      1  C   UNL     1       1.086   7.851  21.404  0.00  0.00    +0.000 C 
ATOM      2  C   UNL     1       1.756   6.866  20.492  0.00  0.00    +0.000 A 
ATOM      3  C   UNL     1       1.739   5.500  20.769  0.00  0.00    +0.000 A 
ATOM      4  C   UNL     1       2.404   4.568  19.946  0.00  0.00    +0.000 A 
ATOM      5  C   UNL     1       2.328   3.126  20.373  0.00  0.00    +0.000 C 
ATOM      6  C   UNL     1       3.114   5.032  18.810  0.00  0.00    +0.000 A 
ATOM      7  C   UNL     1       3.110   6.416  18.499  0.00  0.00    +0.000 A 
ATOM      8  C   UNL     1       3.847   7.048  17.347  0.00  0.00    +0.000 C 
ATOM      9  C   UNL     1       2.439   7.311  19.360  0.00  0.00    +0.000 A 
ENDROOT
BRANCH   6  10
ATOM     10  S   UNL     1       4.146   3.910  17.849  0.00  0.00    +0.000 S 
ATOM     11  O   UNL     1       3.554   2.595  17.941  0.00  0.00    +0.000 OA
ATOM     12  O   UNL     1       4.476   4.470  16.561  0.00  0.00    +0.000 OA
BRANCH  10  13
ATOM     13  N   UNL     1       5.597   3.817  18.719  0.00  0.00    +0.000 NA
ATOM     14  H   UNL     1       6.002   2.903  18.521  0.00  0.00    +0.000 HD
BRANCH  13  15
ATOM     15  C   UNL     1       6.529   4.960  18.608  0.00  0.00    +0.000 C 
BRANCH  15  16
ATOM     16  C   UNL     1       7.709   4.576  17.708  0.00  0.00    +0.000 C 
BRANCH  16  17
ATOM     17  O   UNL     1       7.488   5.021  16.370  0.00  0.00    +0.000 OA
ATOM     18  H   UNL     1       8.326   4.921  15.889  0.00  0.00    +0.000 HD
ENDBRANCH  16  17
ENDBRANCH  15  16
ENDBRANCH  13  15
ENDBRANCH  10  13
ENDBRANCH   6  10
TORSDOF 5
ENDMDL
MODEL 3
REMARK VINA RESULT:      -6.0      1.708      3.174
REMARK  Name = 
REMARK  8 active torsions:
REMARK  status: ('A' for Active; 'I' for Inactive)
REMARK    1  A    between atoms: C_1  and  C_2
REMARK    2  A    between atoms: C_4  and  C_5
REMARK    3  A    between atoms: C_6  and  S_7
REMARK    4  A    between atoms: S_7  and  N_10
REMARK    5  A    between atoms: N_10  and  C_11
REMARK    6  A    between atoms: C_11  and  C_12
REMARK    7  A    between atoms: C_12  and  O_13
REMARK    8  A    between atoms: C_14  and  C_15
REMARK                            x       y       z     vdW  Elec       q    Type
REMARK                         _______ _______ _______ _____ _____    ______ ____
ROOT
ATOM      1  C   UNL     1       0.902   8.026  21.094  0.00  0.00    +0.000 C 
ATOM      2  C   UNL     1       1.722   6.989  20.384  0.00  0.00    +0.000 A 
ATOM      3  C   UNL     1       1.786   5.678  20.851  0.00  0.00    +0.000 A 
ATOM      4  C   UNL     1       2.589   4.705  20.222  0.00  0.00    +0.000 A 
ATOM      5  C   UNL     1       2.589   3.333  20.844  0.00  0.00    +0.000 C 
ATOM      6  C   UNL     1       3.355   5.070  19.086  0.00  0.00    +0.000 A 
ATOM      7  C   UNL     1       3.271   6.393  18.581  0.00  0.00    +0.000 A 
ATOM      8  C   UNL     1       4.052   6.924  17.407  0.00  0.00    +0.000 C 
ATOM      9  C   UNL     1       2.461   7.333  19.252  0.00  0.00    +0.000 A 
ENDROOT
BRANCH   6  10
ATOM     10  S   UNL     1       4.549   3.923  18.374  0.00  0.00    +0.000 S 
ATOM     11  O   UNL     1       5.285   3.333  19.469  0.00  0.00    +0.000 OA
ATOM     12  O   UNL     1       3.940   3.082  17.371  0.00  0.00    +0.000 OA
BRANCH  10  13
ATOM     13  N   UNL     1       5.658   4.913  17.562  0.00  0.00    +0.000 NA
ATOM     14  H   UNL     1       5.346   5.875  17.692  0.00  0.00    +0.000 HD
BRANCH  13  15
ATOM     15  C   UNL     1       7.095   4.674  17.816  0.00  0.00    +0.000 C 
BRANCH  15  16
ATOM     16  C   UNL     1       7.638   5.752  18.759  0.00  0.00    +0.000 C 
BRANCH  16  17
ATOM     17  O   UNL     1       7.348   5.427  20.118  0.00  0.00    +0.000 OA
ATOM     18  H   UNL     1       8.142   5.015  20.494  0.00  0.00    +0.000 HD
ENDBRANCH  16  17
ENDBRANCH  15  16
ENDBRANCH  13  15
ENDBRANCH  10  13
ENDBRANCH   6  10
TORSDOF 5
ENDMDL
MODEL 4
REMARK VINA RESULT:      -6.0      1.753      3.762
REMARK  Name = 
REMARK  8 active torsions:
REMARK  status: ('A' for Active; 'I' for Inactive)
REMARK    1  A    between atoms: C_1  and  C_2
REMARK    2  A    between atoms: C_4  and  C_5
REMARK    3  A    between atoms: C_6  and  S_7
REMARK    4  A    between atoms: S_7  and  N_10
REMARK    5  A    between atoms: N_10  and  C_11
REMARK    6  A    between atoms: C_11  and  C_12
REMARK    7  A    between atoms: C_12  and  O_13
REMARK    8  A    between atoms: C_14  and  C_15
REMARK                            x       y       z     vdW  Elec       q    Type
REMARK                         _______ _______ _______ _____ _____    ______ ____
ROOT
ATOM      1  C   UNL     1       1.592   9.148  18.603  0.00  0.00    +0.000 C 
ATOM      2  C   UNL     1       2.448   7.922  18.473  0.00  0.00    +0.000 A 
ATOM      3  C   UNL     1       3.353   7.784  17.423  0.00  0.00    +0.000 A 
ATOM      4  C   UNL     1       4.129   6.618  17.261  0.00  0.00    +0.000 A 
ATOM      5  C   UNL     1       5.049   6.586  16.070  0.00  0.00    +0.000 C 
ATOM      6  C   UNL     1       3.982   5.556  18.189  0.00  0.00    +0.000 A 
ATOM      7  C   UNL     1       3.088   5.700  19.282  0.00  0.00    +0.000 A 
ATOM      8  C   UNL     1       2.810   4.642  20.318  0.00  0.00    +0.000 C 
ATOM      9  C   UNL     1       2.326   6.881  19.393  0.00  0.00    +0.000 A 
ENDROOT
BRANCH   6  10
ATOM     10  S   UNL     1       4.794   3.972  17.910  0.00  0.00    +0.000 S 
ATOM     11  O   UNL     1       4.025   2.964  18.604  0.00  0.00    +0.000 OA
ATOM     12  O   UNL     1       5.139   3.793  16.520  0.00  0.00    +0.000 OA
BRANCH  10  13
ATOM     13  N   UNL     1       6.257   4.090  18.756  0.00  0.00    +0.000 NA
ATOM     14  H   UNL     1       6.477   3.156  19.100  0.00  0.00    +0.000 HD
BRANCH  13  15
ATOM     15  C   UNL     1       7.372   4.797  18.088  0.00  0.00    +0.000 C 
BRANCH  15  16
ATOM     16  C   UNL     1       7.821   5.981  18.951  0.00  0.00    +0.000 C 
BRANCH  16  17
ATOM     17  O   UNL     1       7.875   7.178  18.175  0.00  0.00    +0.000 OA
ATOM     18  H   UNL     1       7.537   7.899  18.730  0.00  0.00    +0.000 HD
ENDBRANCH  16  17
ENDBRANCH  15  16
ENDBRANCH  13  15
ENDBRANCH  10  13
ENDBRANCH   6  10
TORSDOF 5
ENDMDL
MODEL 5
REMARK VINA RESULT:      -6.0      0.762      2.340
REMARK  Name = 
REMARK  8 active torsions:
REMARK  status: ('A' for Active; 'I' for Inactive)
REMARK    1  A    between atoms: C_1  and  C_2
REMARK    2  A    between atoms: C_4  and  C_5
REMARK    3  A    between atoms: C_6  and  S_7
REMARK    4  A    between atoms: S_7  and  N_10
REMARK    5  A    between atoms: N_10  and  C_11
REMARK    6  A    between atoms: C_11  and  C_12
REMARK    7  A    between atoms: C_12  and  O_13
REMARK    8  A    between atoms: C_14  and  C_15
REMARK                            x       y       z     vdW  Elec       q    Type
REMARK                         _______ _______ _______ _____ _____    ______ ____
ROOT
ATOM      1  C   UNL     1       1.588   9.116  18.009  0.00  0.00    +0.000 C 
ATOM      2  C   UNL     1       2.468   7.929  18.272  0.00  0.00    +0.000 A 
ATOM      3  C   UNL     1       3.557   7.645  17.451  0.00  0.00    +0.000 A 
ATOM      4  C   UNL     1       4.364   6.507  17.657  0.00  0.00    +0.000 A 
ATOM      5  C   UNL     1       5.494   6.303  16.682  0.00  0.00    +0.000 C 
ATOM      6  C   UNL     1       4.057   5.627  18.725  0.00  0.00    +0.000 A 
ATOM      7  C   UNL     1       2.971   5.925  19.588  0.00  0.00    +0.000 A 
ATOM      8  C   UNL     1       2.515   5.062  20.736  0.00  0.00    +0.000 C 
ATOM      9  C   UNL     1       2.187   7.069  19.333  0.00  0.00    +0.000 A 
ENDROOT
BRANCH   6  10
ATOM     10  S   UNL     1       4.928   4.060  18.904  0.00  0.00    +0.000 S 
ATOM     11  O   UNL     1       6.335   4.322  18.702  0.00  0.00    +0.000 OA
ATOM     12  O   UNL     1       4.484   3.340  20.073  0.00  0.00    +0.000 OA
BRANCH  10  13
ATOM     13  N   UNL     1       4.439   3.146  17.564  0.00  0.00    +0.000 NA
ATOM     14  H   UNL     1       4.836   2.214  17.680  0.00  0.00    +0.000 HD
BRANCH  13  15
ATOM     15  C   UNL     1       3.005   3.182  17.204  0.00  0.00    +0.000 C 
BRANCH  15  16
ATOM     16  C   UNL     1       2.306   1.931  17.747  0.00  0.00    +0.000 C 
BRANCH  16  17
ATOM     17  O   UNL     1       1.979   2.094  19.127  0.00  0.00    +0.000 OA
ATOM     18  H   UNL     1       2.123   1.238  19.562  0.00  0.00    +0.000 HD
ENDBRANCH  16  17
ENDBRANCH  15  16
ENDBRANCH  13  15
ENDBRANCH  10  13
ENDBRANCH   6  10
TORSDOF 5
ENDMDL
MODEL 6
REMARK VINA RESULT:      -5.9      2.266      4.126
REMARK  Name = 
REMARK  8 active torsions:
REMARK  status: ('A' for Active; 'I' for Inactive)
REMARK    1  A    between atoms: C_1  and  C_2
REMARK    2  A    between atoms: C_4  and  C_5
REMARK    3  A    between atoms: C_6  and  S_7
REMARK    4  A    between atoms: S_7  and  N_10
REMARK    5  A    between atoms: N_10  and  C_11
REMARK    6  A    between atoms: C_11  and  C_12
REMARK    7  A    between atoms: C_12  and  O_13
REMARK    8  A    between atoms: C_14  and  C_15
REMARK                            x       y       z     vdW  Elec       q    Type
REMARK                         _______ _______ _______ _____ _____    ______ ____
ROOT
ATOM      1  C   UNL     1       6.461   4.755  14.221  0.00  0.00    +0.000 C 
ATOM      2  C   UNL     1       5.523   4.904  15.383  0.00  0.00    +0.000 A 
ATOM      3  C   UNL     1       5.145   6.161  15.846  0.00  0.00    +0.000 A 
ATOM      4  C   UNL     1       4.302   6.316  16.966  0.00  0.00    +0.000 A 
ATOM      5  C   UNL     1       3.990   7.731  17.379  0.00  0.00    +0.000 C 
ATOM      6  C   UNL     1       3.832   5.162  17.641  0.00  0.00    +0.000 A 
ATOM      7  C   UNL     1       4.183   3.875  17.158  0.00  0.00    +0.000 A 
ATOM      8  C   UNL     1       3.783   2.570  17.796  0.00  0.00    +0.000 C 
ATOM      9  C   UNL     1       5.038   3.773  16.040  0.00  0.00    +0.000 A 
ENDROOT
BRANCH   6  10
ATOM     10  S   UNL     1       2.926   5.309  19.192  0.00  0.00    +0.000 S 
ATOM     11  O   UNL     1       3.805   4.864  20.249  0.00  0.00    +0.000 OA
ATOM     12  O   UNL     1       2.256   6.584  19.293  0.00  0.00    +0.000 OA
BRANCH  10  13
ATOM     13  N   UNL     1       1.709   4.135  19.087  0.00  0.00    +0.000 NA
ATOM     14  H   UNL     1       2.141   3.295  18.701  0.00  0.00    +0.000 HD
BRANCH  13  15
ATOM     15  C   UNL     1       0.868   3.920  20.285  0.00  0.00    +0.000 C 
BRANCH  15  16
ATOM     16  C   UNL     1       1.384   2.707  21.066  0.00  0.00    +0.000 C 
BRANCH  16  17
ATOM     17  O   UNL     1       2.312   3.113  22.072  0.00  0.00    +0.000 OA
ATOM     18  H   UNL     1       2.940   3.726  21.656  0.00  0.00    +0.000 HD
ENDBRANCH  16  17
ENDBRANCH  15  16
ENDBRANCH  13  15
ENDBRANCH  10  13
ENDBRANCH   6  10
TORSDOF 5
ENDMDL
MODEL 7
REMARK VINA RESULT:      -5.8      2.166      4.590
REMARK  Name = 
REMARK  8 active torsions:
REMARK  status: ('A' for Active; 'I' for Inactive)
REMARK    1  A    between atoms: C_1  and  C_2
REMARK    2  A    between atoms: C_4  and  C_5
REMARK    3  A    between atoms: C_6  and  S_7
REMARK    4  A    between atoms: S_7  and  N_10
REMARK    5  A    between atoms: N_10  and  C_11
REMARK    6  A    between atoms: C_11  and  C_12
REMARK    7  A    between atoms: C_12  and  O_13
REMARK    8  A    between atoms: C_14  and  C_15
REMARK                            x       y       z     vdW  Elec       q    Type
REMARK                         _______ _______ _______ _____ _____    ______ ____
ROOT
ATOM      1  C   UNL     1       1.067   2.671  21.955  0.00  0.00    +0.000 C 
ATOM      2  C   UNL     1       1.930   3.111  20.810  0.00  0.00    +0.000 A 
ATOM      3  C   UNL     1       2.528   2.183  19.960  0.00  0.00    +0.000 A 
ATOM      4  C   UNL     1       3.379   2.580  18.908  0.00  0.00    +0.000 A 
ATOM      5  C   UNL     1       3.981   1.476  18.081  0.00  0.00    +0.000 C 
ATOM      6  C   UNL     1       3.638   3.960  18.713  0.00  0.00    +0.000 A 
ATOM      7  C   UNL     1       3.008   4.917  19.551  0.00  0.00    +0.000 A 
ATOM      8  C   UNL     1       3.219   6.407  19.477  0.00  0.00    +0.000 C 
ATOM      9  C   UNL     1       2.173   4.468  20.596  0.00  0.00    +0.000 A 
ENDROOT
BRANCH   6  10
ATOM     10  S   UNL     1       4.874   4.504  17.521  0.00  0.00    +0.000 S 
ATOM     11  O   UNL     1       4.822   3.594  16.399  0.00  0.00    +0.000 OA
ATOM     12  O   UNL     1       4.806   5.930  17.303  0.00  0.00    +0.000 OA
BRANCH  10  13
ATOM     13  N   UNL     1       6.359   4.206  18.280  0.00  0.00    +0.000 NA
ATOM     14  H   UNL     1       6.512   3.198  18.245  0.00  0.00    +0.000 HD
BRANCH  13  15
ATOM     15  C   UNL     1       7.511   5.036  17.868  0.00  0.00    +0.000 C 
BRANCH  15  16
ATOM     16  C   UNL     1       7.844   6.042  18.975  0.00  0.00    +0.000 C 
BRANCH  16  17
ATOM     17  O   UNL     1       7.790   5.417  20.257  0.00  0.00    +0.000 OA
ATOM     18  H   UNL     1       8.680   5.085  20.456  0.00  0.00    +0.000 HD
ENDBRANCH  16  17
ENDBRANCH  15  16
ENDBRANCH  13  15
ENDBRANCH  10  13
ENDBRANCH   6  10
TORSDOF 5
ENDMDL
MODEL 8
REMARK VINA RESULT:      -5.8      1.722      3.549
REMARK  Name = 
REMARK  8 active torsions:
REMARK  status: ('A' for Active; 'I' for Inactive)
REMARK    1  A    between atoms: C_1  and  C_2
REMARK    2  A    between atoms: C_4  and  C_5
REMARK    3  A    between atoms: C_6  and  S_7
REMARK    4  A    between atoms: S_7  and  N_10
REMARK    5  A    between atoms: N_10  and  C_11
REMARK    6  A    between atoms: C_11  and  C_12
REMARK    7  A    between atoms: C_12  and  O_13
REMARK    8  A    between atoms: C_14  and  C_15
REMARK                            x       y       z     vdW  Elec       q    Type
REMARK                         _______ _______ _______ _____ _____    ______ ____
ROOT
ATOM      1  C   UNL     1       0.652   8.282  21.115  0.00  0.00    +0.000 C 
ATOM      2  C   UNL     1       1.557   7.264  20.486  0.00  0.00    +0.000 A 
ATOM      3  C   UNL     1       2.330   7.579  19.370  0.00  0.00    +0.000 A 
ATOM      4  C   UNL     1       3.150   6.619  18.741  0.00  0.00    +0.000 A 
ATOM      5  C   UNL     1       3.913   7.083  17.529  0.00  0.00    +0.000 C 
ATOM      6  C   UNL     1       3.185   5.298  19.254  0.00  0.00    +0.000 A 
ATOM      7  C   UNL     1       2.428   4.975  20.410  0.00  0.00    +0.000 A 
ATOM      8  C   UNL     1       2.347   3.608  21.038  0.00  0.00    +0.000 C 
ATOM      9  C   UNL     1       1.615   5.967  20.997  0.00  0.00    +0.000 A 
ENDROOT
BRANCH   6  10
ATOM     10  S   UNL     1       4.051   3.990  18.367  0.00  0.00    +0.000 S 
ATOM     11  O   UNL     1       5.123   3.528  19.219  0.00  0.00    +0.000 OA
ATOM     12  O   UNL     1       3.127   3.046  17.784  0.00  0.00    +0.000 OA
BRANCH  10  13
ATOM     13  N   UNL     1       4.807   4.782  17.074  0.00  0.00    +0.000 NA
ATOM     14  H   UNL     1       5.165   5.665  17.436  0.00  0.00    +0.000 HD
BRANCH  13  15
ATOM     15  C   UNL     1       5.763   3.997  16.263  0.00  0.00    +0.000 C 
BRANCH  15  16
ATOM     16  C   UNL     1       7.188   4.502  16.513  0.00  0.00    +0.000 C 
BRANCH  16  17
ATOM     17  O   UNL     1       7.614   4.174  17.836  0.00  0.00    +0.000 OA
ATOM     18  H   UNL     1       7.154   4.774  18.445  0.00  0.00    +0.000 HD
ENDBRANCH  16  17
ENDBRANCH  15  16
ENDBRANCH  13  15
ENDBRANCH  10  13
ENDBRANCH   6  10
TORSDOF 5
ENDMDL
MODEL 9
REMARK VINA RESULT:      -5.8      2.036      2.590
REMARK  Name = 
REMARK  8 active torsions:
REMARK  status: ('A' for Active; 'I' for Inactive)
REMARK    1  A    between atoms: C_1  and  C_2
REMARK    2  A    between atoms: C_4  and  C_5
REMARK    3  A    between atoms: C_6  and  S_7
REMARK    4  A    between atoms: S_7  and  N_10
REMARK    5  A    between atoms: N_10  and  C_11
REMARK    6  A    between atoms: C_11  and  C_12
REMARK    7  A    between atoms: C_12  and  O_13
REMARK    8  A    between atoms: C_14  and  C_15
REMARK                            x       y       z     vdW  Elec       q    Type
REMARK                         _______ _______ _______ _____ _____    ______ ____
ROOT
ATOM      1  C   UNL     1       1.757   9.150  17.865  0.00  0.00    +0.000 C 
ATOM      2  C   UNL     1       2.496   7.845  17.816  0.00  0.00    +0.000 A 
ATOM      3  C   UNL     1       1.845   6.639  18.059  0.00  0.00    +0.000 A 
ATOM      4  C   UNL     1       2.536   5.410  18.063  0.00  0.00    +0.000 A 
ATOM      5  C   UNL     1       1.718   4.182  18.366  0.00  0.00    +0.000 C 
ATOM      6  C   UNL     1       3.932   5.402  17.818  0.00  0.00    +0.000 A 
ATOM      7  C   UNL     1       4.601   6.621  17.535  0.00  0.00    +0.000 A 
ATOM      8  C   UNL     1       6.081   6.762  17.290  0.00  0.00    +0.000 C 
ATOM      9  C   UNL     1       3.866   7.826  17.553  0.00  0.00    +0.000 A 
ENDROOT
BRANCH   6  10
ATOM     10  S   UNL     1       4.893   3.890  18.015  0.00  0.00    +0.000 S 
ATOM     11  O   UNL     1       5.735   4.062  19.177  0.00  0.00    +0.000 OA
ATOM     12  O   UNL     1       4.061   2.717  17.888  0.00  0.00    +0.000 OA
BRANCH  10  13
ATOM     13  N   UNL     1       5.945   3.878  16.688  0.00  0.00    +0.000 NA
ATOM     14  H   UNL     1       6.654   3.171  16.879  0.00  0.00    +0.000 HD
BRANCH  13  15
ATOM     15  C   UNL     1       5.338   3.818  15.341  0.00  0.00    +0.000 C 
BRANCH  15  16
ATOM     16  C   UNL     1       6.391   4.170  14.285  0.00  0.00    +0.000 C 
BRANCH  16  17
ATOM     17  O   UNL     1       6.375   3.219  13.220  0.00  0.00    +0.000 OA
ATOM     18  H   UNL     1       7.103   3.446  12.618  0.00  0.00    +0.000 HD
ENDBRANCH  16  17
ENDBRANCH  15  16
ENDBRANCH  13  15
ENDBRANCH  10  13
ENDBRANCH   6  10
TORSDOF 5
ENDMDL
