MODEL 1
REMARK VINA RESULT:      -8.0      0.000      0.000
REMARK  Name = 
REMARK  9 active torsions:
REMARK  status: ('A' for Active; 'I' for Inactive)
REMARK    1  A    between atoms: C_1  and  C_2
REMARK    2  A    between atoms: C_2  and  C_3
REMARK    3  A    between atoms: C_3  and  N_4
REMARK    4  A    between atoms: N_4  and  C_5
REMARK    5  A    between atoms: C_5  and  C_6
REMARK    6  A    between atoms: C_6  and  C_7
REMARK    7  A    between atoms: C_8  and  C_10
REMARK    8  A    between atoms: C_12  and  N_13
REMARK    9  A    between atoms: N_16  and  C_17
REMARK                            x       y       z     vdW  Elec       q    Type
REMARK                         _______ _______ _______ _____ _____    ______ ____
ROOT
ATOM      1  C   UNL     1       3.884   5.164  18.423  0.00  0.00    +0.000 A 
ATOM      2  C   UNL     1       3.246   6.403  18.276  0.00  0.00    +0.000 A 
ATOM      3  C   UNL     1       2.383   6.871  19.253  0.00  0.00    +0.000 A 
ATOM      4  N   UNL     1       2.044   6.066  20.275  0.00  0.00    +0.000 NA
ATOM      5  C   UNL     1       2.534   4.826  20.373  0.00  0.00    +0.000 A 
ATOM      6  C   UNL     1       2.012   4.022  21.377  0.00  0.00    +0.000 A 
ATOM      7  C   UNL     1       2.449   2.716  21.580  0.00  0.00    +0.000 A 
ATOM      8  C   UNL     1       3.473   2.215  20.789  0.00  0.00    +0.000 A 
ATOM      9  C   UNL     1       4.003   3.008  19.769  0.00  0.00    +0.000 A 
ATOM     10  C   UNL     1       3.513   4.317  19.504  0.00  0.00    +0.000 A 
ENDROOT
BRANCH   3  11
ATOM     11  N   UNL     1       1.776   8.110  19.209  0.00  0.00    +0.000 N 
ATOM     12  C   UNL     1       1.409   8.702  20.512  0.00  0.00    +0.000 C 
ATOM     13  C   UNL     1       0.220   9.673  20.340  0.00  0.00    +0.000 C 
ATOM     14  N   UNL     1       0.467  10.714  19.316  0.00  0.00    +0.000 NA
ATOM     15  C   UNL     1      -0.727  11.542  19.143  0.00  0.00    +0.000 C 
ATOM     16  C   UNL     1       0.830  10.059  18.040  0.00  0.00    +0.000 C 
ATOM     17  C   UNL     1       2.043   9.108  18.170  0.00  0.00    +0.000 C 
ENDBRANCH   3  11
BRANCH   1  19
ATOM     18  N   UNL     1       6.214   4.912  17.394  0.00  0.00    +0.000 N 
ATOM     19  C   UNL     1       4.814   4.681  17.348  0.00  0.00    +0.000 C 
ATOM     20  O   UNL     1       4.305   4.066  16.409  0.00  0.00    +0.000 OA
BRANCH  18  21
ATOM     21  C   UNL     1       6.994   4.315  16.293  0.00  0.00    +0.000 C 
BRANCH  21  23
ATOM     22  C   UNL     1       6.516   4.160  13.782  0.00  0.00    +0.000 C 
ATOM     23  C   UNL     1       6.922   5.047  14.945  0.00  0.00    +0.000 C 
ENDBRANCH  21  23
ENDBRANCH  18  21
BRANCH  18  24
ATOM     24  C   UNL     1       6.906   5.489  18.564  0.00  0.00    +0.000 C 
BRANCH  24  25
ATOM     25  C   UNL     1       7.877   6.649  18.348  0.00  0.00    +0.000 C 
ATOM     26  C   UNL     1       7.244   7.737  17.490  0.00  0.00    +0.000 C 
ENDBRANCH  24  25
ENDBRANCH  18  24
ENDBRANCH   1  19
TORSDOF 6
ENDMDL
MODEL 2
REMARK VINA RESULT:      -8.0      0.587      1.113
REMARK  Name = 
REMARK  9 active torsions:
REMARK  status: ('A' for Active; 'I' for Inactive)
REMARK    1  A    between atoms: C_1  and  C_2
REMARK    2  A    between atoms: C_2  and  C_3
REMARK    3  A    between atoms: C_3  and  N_4
REMARK    4  A    between atoms: N_4  and  C_5
REMARK    5  A    between atoms: C_5  and  C_6
REMARK    6  A    between atoms: C_6  and  C_7
REMARK    7  A    between atoms: C_8  and  C_10
REMARK    8  A    between atoms: C_12  and  N_13
REMARK    9  A    between atoms: N_16  and  C_17
REMARK                            x       y       z     vdW  Elec       q    Type
REMARK                         _______ _______ _______ _____ _____    ______ ____
ROOT
ATOM      1  C   UNL     1       3.890   5.299  18.452  0.00  0.00    +0.000 A 
ATOM      2  C   UNL     1       3.340   6.578  18.286  0.00  0.00    +0.000 A 
ATOM      3  C   UNL     1       2.465   7.096  19.226  0.00  0.00    +0.000 A 
ATOM      4  N   UNL     1       2.027   6.310  20.224  0.00  0.00    +0.000 NA
ATOM      5  C   UNL     1       2.431   5.040  20.335  0.00  0.00    +0.000 A 
ATOM      6  C   UNL     1       1.811   4.266  21.308  0.00  0.00    +0.000 A 
ATOM      7  C   UNL     1       2.153   2.933  21.519  0.00  0.00    +0.000 A 
ATOM      8  C   UNL     1       3.178   2.371  20.773  0.00  0.00    +0.000 A 
ATOM      9  C   UNL     1       3.806   3.133  19.785  0.00  0.00    +0.000 A 
ATOM     10  C   UNL     1       3.414   4.473  19.509  0.00  0.00    +0.000 A 
ENDROOT
BRANCH   3  11
ATOM     11  N   UNL     1       1.942   8.372  19.164  0.00  0.00    +0.000 N 
ATOM     12  C   UNL     1       1.923   9.003  17.828  0.00  0.00    +0.000 C 
ATOM     13  C   UNL     1       1.964  10.541  17.965  0.00  0.00    +0.000 C 
ATOM     14  N   UNL     1       0.890  11.073  18.836  0.00  0.00    +0.000 NA
ATOM     15  C   UNL     1       1.040  12.520  18.993  0.00  0.00    +0.000 C 
ATOM     16  C   UNL     1       0.962  10.402  20.153  0.00  0.00    +0.000 C 
ATOM     17  C   UNL     1       0.885   8.860  20.054  0.00  0.00    +0.000 C 
ENDBRANCH   3  11
BRANCH   1  19
ATOM     18  N   UNL     1       6.232   5.019  17.459  0.00  0.00    +0.000 N 
ATOM     19  C   UNL     1       4.836   4.763  17.418  0.00  0.00    +0.000 C 
ATOM     20  O   UNL     1       4.345   4.080  16.518  0.00  0.00    +0.000 OA
BRANCH  18  21
ATOM     21  C   UNL     1       7.030   4.365  16.405  0.00  0.00    +0.000 C 
BRANCH  21  23
ATOM     22  C   UNL     1       6.474   4.219  13.910  0.00  0.00    +0.000 C 
ATOM     23  C   UNL     1       7.039   5.064  15.037  0.00  0.00    +0.000 C 
ENDBRANCH  21  23
ENDBRANCH  18  21
BRANCH  18  24
ATOM     24  C   UNL     1       6.905   5.683  18.593  0.00  0.00    +0.000 C 
BRANCH  24  25
ATOM     25  C   UNL     1       8.009   6.700  18.303  0.00  0.00    +0.000 C 
ATOM     26  C   UNL     1       7.463   7.888  17.523  0.00  0.00    +0.000 C 
ENDBRANCH  24  25
ENDBRANCH  18  24
ENDBRANCH   1  19
TORSDOF 6
ENDMDL
MODEL 3
REMARK VINA RESULT:      -7.0      1.015      1.519
REMARK  Name = 
REMARK  9 active torsions:
REMARK  status: ('A' for Active; 'I' for Inactive)
REMARK    1  A    between atoms: C_1  and  C_2
REMARK    2  A    between atoms: C_2  and  C_3
REMARK    3  A    between atoms: C_3  and  N_4
REMARK    4  A    between atoms: N_4  and  C_5
REMARK    5  A    between atoms: C_5  and  C_6
REMARK    6  A    between atoms: C_6  and  C_7
REMARK    7  A    between atoms: C_8  and  C_10
REMARK    8  A    between atoms: C_12  and  N_13
REMARK    9  A    between atoms: N_16  and  C_17
REMARK                            x       y       z     vdW  Elec       q    Type
REMARK                         _______ _______ _______ _____ _____    ______ ____
ROOT
ATOM      1  C   UNL     1       3.455   5.699  18.386  0.00  0.00    +0.000 A 
ATOM      2  C   UNL     1       2.809   6.930  18.566  0.00  0.00    +0.000 A 
ATOM      3  C   UNL     1       2.149   7.212  19.751  0.00  0.00    +0.000 A 
ATOM      4  N   UNL     1       2.002   6.244  20.672  0.00  0.00    +0.000 NA
ATOM      5  C   UNL     1       2.494   5.017  20.472  0.00  0.00    +0.000 A 
ATOM      6  C   UNL     1       2.165   4.048  21.411  0.00  0.00    +0.000 A 
ATOM      7  C   UNL     1       2.623   2.737  21.311  0.00  0.00    +0.000 A 
ATOM      8  C   UNL     1       3.476   2.396  20.272  0.00  0.00    +0.000 A 
ATOM      9  C   UNL     1       3.811   3.357  19.315  0.00  0.00    +0.000 A 
ATOM     10  C   UNL     1       3.288   4.680  19.365  0.00  0.00    +0.000 A 
ENDROOT
BRANCH   3  11
ATOM     11  N   UNL     1       1.553   8.427  20.025  0.00  0.00    +0.000 N 
ATOM     12  C   UNL     1       1.220   9.267  18.855  0.00  0.00    +0.000 C 
ATOM     13  C   UNL     1       1.202  10.758  19.259  0.00  0.00    +0.000 C 
ATOM     14  N   UNL     1       0.305  11.036  20.405  0.00  0.00    +0.000 NA
ATOM     15  C   UNL     1       0.402  12.444  20.789  0.00  0.00    +0.000 C 
ATOM     16  C   UNL     1       0.687  10.165  21.538  0.00  0.00    +0.000 C 
ATOM     17  C   UNL     1       0.679   8.660  21.177  0.00  0.00    +0.000 C 
ENDBRANCH   3  11
BRANCH   1  19
ATOM     18  N   UNL     1       5.299   6.161  16.672  0.00  0.00    +0.000 N 
ATOM     19  C   UNL     1       4.162   5.420  17.092  0.00  0.00    +0.000 C 
ATOM     20  O   UNL     1       3.711   4.508  16.398  0.00  0.00    +0.000 OA
BRANCH  18  21
ATOM     21  C   UNL     1       5.915   5.717  15.407  0.00  0.00    +0.000 C 
BRANCH  21  23
ATOM     22  C   UNL     1       6.240   3.595  14.011  0.00  0.00    +0.000 C 
ATOM     23  C   UNL     1       6.394   4.259  15.368  0.00  0.00    +0.000 C 
ENDBRANCH  21  23
ENDBRANCH  18  21
BRANCH  18  24
ATOM     24  C   UNL     1       5.989   7.147  17.526  0.00  0.00    +0.000 C 
BRANCH  24  25
ATOM     25  C   UNL     1       7.482   6.968  17.803  0.00  0.00    +0.000 C 
ATOM     26  C   UNL     1       7.711   5.942  18.905  0.00  0.00    +0.000 C 
ENDBRANCH  24  25
ENDBRANCH  18  24
ENDBRANCH   1  19
TORSDOF 6
ENDMDL
MODEL 4
REMARK VINA RESULT:      -7.0      0.914      1.100
REMARK  Name = 
REMARK  9 active torsions:
REMARK  status: ('A' for Active; 'I' for Inactive)
REMARK    1  A    between atoms: C_1  and  C_2
REMARK    2  A    between atoms: C_2  and  C_3
REMARK    3  A    between atoms: C_3  and  N_4
REMARK    4  A    between atoms: N_4  and  C_5
REMARK    5  A    between atoms: C_5  and  C_6
REMARK    6  A    between atoms: C_6  and  C_7
REMARK    7  A    between atoms: C_8  and  C_10
REMARK    8  A    between atoms: C_12  and  N_13
REMARK    9  A    between atoms: N_16  and  C_17
REMARK                            x       y       z     vdW  Elec       q    Type
REMARK                         _______ _______ _______ _____ _____    ______ ____
ROOT
ATOM      1  C   UNL     1       3.516   5.684  18.352  0.00  0.00    +0.000 A 
ATOM      2  C   UNL     1       2.809   6.886  18.486  0.00  0.00    +0.000 A 
ATOM      3  C   UNL     1       2.093   7.158  19.640  0.00  0.00    +0.000 A 
ATOM      4  N   UNL     1       1.958   6.200  20.573  0.00  0.00    +0.000 NA
ATOM      5  C   UNL     1       2.512   4.994  20.414  0.00  0.00    +0.000 A 
ATOM      6  C   UNL     1       2.192   4.027  21.359  0.00  0.00    +0.000 A 
ATOM      7  C   UNL     1       2.714   2.737  21.300  0.00  0.00    +0.000 A 
ATOM      8  C   UNL     1       3.619   2.418  20.299  0.00  0.00    +0.000 A 
ATOM      9  C   UNL     1       3.945   3.376  19.337  0.00  0.00    +0.000 A 
ATOM     10  C   UNL     1       3.360   4.675  19.343  0.00  0.00    +0.000 A 
ENDROOT
BRANCH   3  11
ATOM     11  N   UNL     1       1.433   8.348  19.870  0.00  0.00    +0.000 N 
ATOM     12  C   UNL     1       1.298   8.756  21.283  0.00  0.00    +0.000 C 
ATOM     13  C   UNL     1       0.054   9.655  21.462  0.00  0.00    +0.000 C 
ATOM     14  N   UNL     1       0.051  10.824  20.553  0.00  0.00    +0.000 NA
ATOM     15  C   UNL     1      -1.191  11.581  20.713  0.00  0.00    +0.000 C 
ATOM     16  C   UNL     1       0.190  10.351  19.158  0.00  0.00    +0.000 C 
ATOM     17  C   UNL     1       1.448   9.477  18.936  0.00  0.00    +0.000 C 
ENDBRANCH   3  11
BRANCH   1  19
ATOM     18  N   UNL     1       5.497   6.084  16.781  0.00  0.00    +0.000 N 
ATOM     19  C   UNL     1       4.283   5.416  17.090  0.00  0.00    +0.000 C 
ATOM     20  O   UNL     1       3.810   4.579  16.320  0.00  0.00    +0.000 OA
BRANCH  18  21
ATOM     21  C   UNL     1       6.159   5.659  15.534  0.00  0.00    +0.000 C 
BRANCH  21  23
ATOM     22  C   UNL     1       6.236   3.625  13.980  0.00  0.00    +0.000 C 
ATOM     23  C   UNL     1       6.419   4.152  15.392  0.00  0.00    +0.000 C 
ENDBRANCH  21  23
ENDBRANCH  18  21
BRANCH  18  24
ATOM     24  C   UNL     1       6.204   6.969  17.730  0.00  0.00    +0.000 C 
BRANCH  24  25
ATOM     25  C   UNL     1       7.656   6.656  18.088  0.00  0.00    +0.000 C 
ATOM     26  C   UNL     1       7.733   5.730  19.294  0.00  0.00    +0.000 C 
ENDBRANCH  24  25
ENDBRANCH  18  24
ENDBRANCH   1  19
TORSDOF 6
ENDMDL
MODEL 5
REMARK VINA RESULT:      -6.9      1.366      2.375
REMARK  Name = 
REMARK  9 active torsions:
REMARK  status: ('A' for Active; 'I' for Inactive)
REMARK    1  A    between atoms: C_1  and  C_2
REMARK    2  A    between atoms: C_2  and  C_3
REMARK    3  A    between atoms: C_3  and  N_4
REMARK    4  A    between atoms: N_4  and  C_5
REMARK    5  A    between atoms: C_5  and  C_6
REMARK    6  A    between atoms: C_6  and  C_7
REMARK    7  A    between atoms: C_8  and  C_10
REMARK    8  A    between atoms: C_12  and  N_13
REMARK    9  A    between atoms: N_16  and  C_17
REMARK                            x       y       z     vdW  Elec       q    Type
REMARK                         _______ _______ _______ _____ _____    ______ ____
ROOT
ATOM      1  C   UNL     1       4.119   5.500  19.314  0.00  0.00    +0.000 A 
ATOM      2  C   UNL     1       3.522   6.752  19.109  0.00  0.00    +0.000 A 
ATOM      3  C   UNL     1       2.363   7.098  19.782  0.00  0.00    +0.000 A 
ATOM      4  N   UNL     1       1.728   6.173  20.522  0.00  0.00    +0.000 NA
ATOM      5  C   UNL     1       2.202   4.928  20.631  0.00  0.00    +0.000 A 
ATOM      6  C   UNL     1       1.401   4.006  21.293  0.00  0.00    +0.000 A 
ATOM      7  C   UNL     1       1.792   2.683  21.474  0.00  0.00    +0.000 A 
ATOM      8  C   UNL     1       3.041   2.279  21.025  0.00  0.00    +0.000 A 
ATOM      9  C   UNL     1       3.856   3.191  20.351  0.00  0.00    +0.000 A 
ATOM     10  C   UNL     1       3.435   4.527  20.094  0.00  0.00    +0.000 A 
ENDROOT
BRANCH   3  11
ATOM     11  N   UNL     1       1.760   8.336  19.683  0.00  0.00    +0.000 N 
ATOM     12  C   UNL     1       1.576   8.863  18.314  0.00  0.00    +0.000 C 
ATOM     13  C   UNL     1       1.538  10.407  18.339  0.00  0.00    +0.000 C 
ATOM     14  N   UNL     1       0.522  10.945  19.273  0.00  0.00    +0.000 NA
ATOM     15  C   UNL     1       0.599  12.406  19.312  0.00  0.00    +0.000 C 
ATOM     16  C   UNL     1       0.759  10.381  20.620  0.00  0.00    +0.000 C 
ATOM     17  C   UNL     1       0.766   8.833  20.637  0.00  0.00    +0.000 C 
ENDBRANCH   3  11
BRANCH   1  19
ATOM     18  N   UNL     1       5.357   4.509  17.304  0.00  0.00    +0.000 N 
ATOM     19  C   UNL     1       5.376   5.152  18.571  0.00  0.00    +0.000 C 
ATOM     20  O   UNL     1       6.442   5.450  19.112  0.00  0.00    +0.000 OA
BRANCH  18  21
ATOM     21  C   UNL     1       6.676   4.296  16.679  0.00  0.00    +0.000 C 
BRANCH  21  23
ATOM     22  C   UNL     1       6.546   4.173  14.125  0.00  0.00    +0.000 C 
ATOM     23  C   UNL     1       6.907   5.010  15.339  0.00  0.00    +0.000 C 
ENDBRANCH  21  23
ENDBRANCH  18  21
BRANCH  18  24
ATOM     24  C   UNL     1       4.123   4.277  16.528  0.00  0.00    +0.000 C 
BRANCH  24  25
ATOM     25  C   UNL     1       3.218   3.107  16.912  0.00  0.00    +0.000 C 
ATOM     26  C   UNL     1       1.819   3.593  17.264  0.00  0.00    +0.000 C 
ENDBRANCH  24  25
ENDBRANCH  18  24
ENDBRANCH   1  19
TORSDOF 6
ENDMDL
MODEL 6
REMARK VINA RESULT:      -6.9      1.252      2.197
REMARK  Name = 
REMARK  9 active torsions:
REMARK  status: ('A' for Active; 'I' for Inactive)
REMARK    1  A    between atoms: C_1  and  C_2
REMARK    2  A    between atoms: C_2  and  C_3
REMARK    3  A    between atoms: C_3  and  N_4
REMARK    4  A    between atoms: N_4  and  C_5
REMARK    5  A    between atoms: C_5  and  C_6
REMARK    6  A    between atoms: C_6  and  C_7
REMARK    7  A    between atoms: C_8  and  C_10
REMARK    8  A    between atoms: C_12  and  N_13
REMARK    9  A    between atoms: N_16  and  C_17
REMARK                            x       y       z     vdW  Elec       q    Type
REMARK                         _______ _______ _______ _____ _____    ______ ____
ROOT
ATOM      1  C   UNL     1       4.127   5.586  19.027  0.00  0.00    +0.000 A 
ATOM      2  C   UNL     1       3.378   6.759  18.866  0.00  0.00    +0.000 A 
ATOM      3  C   UNL     1       2.289   7.017  19.682  0.00  0.00    +0.000 A 
ATOM      4  N   UNL     1       1.863   6.069  20.533  0.00  0.00    +0.000 NA
ATOM      5  C   UNL     1       2.478   4.885  20.617  0.00  0.00    +0.000 A 
ATOM      6  C   UNL     1       1.877   3.919  21.414  0.00  0.00    +0.000 A 
ATOM      7  C   UNL     1       2.430   2.652  21.582  0.00  0.00    +0.000 A 
ATOM      8  C   UNL     1       3.643   2.358  20.977  0.00  0.00    +0.000 A 
ATOM      9  C   UNL     1       4.257   3.315  20.166  0.00  0.00    +0.000 A 
ATOM     10  C   UNL     1       3.664   4.586  19.927  0.00  0.00    +0.000 A 
ENDROOT
BRANCH   3  11
ATOM     11  N   UNL     1       1.549   8.181  19.627  0.00  0.00    +0.000 N 
ATOM     12  C   UNL     1       1.101   8.731  20.923  0.00  0.00    +0.000 C 
ATOM     13  C   UNL     1      -0.186   9.563  20.734  0.00  0.00    +0.000 C 
ATOM     14  N   UNL     1      -0.041  10.625  19.711  0.00  0.00    +0.000 NA
ATOM     15  C   UNL     1      -1.317  11.315  19.519  0.00  0.00    +0.000 C 
ATOM     16  C   UNL     1       0.409  10.013  18.441  0.00  0.00    +0.000 C 
ATOM     17  C   UNL     1       1.718   9.202  18.589  0.00  0.00    +0.000 C 
ENDBRANCH   3  11
BRANCH   1  19
ATOM     18  N   UNL     1       5.220   4.489  16.989  0.00  0.00    +0.000 N 
ATOM     19  C   UNL     1       5.303   5.333  18.128  0.00  0.00    +0.000 C 
ATOM     20  O   UNL     1       6.358   5.896  18.423  0.00  0.00    +0.000 OA
BRANCH  18  21
ATOM     21  C   UNL     1       6.447   4.398  16.175  0.00  0.00    +0.000 C 
BRANCH  21  23
ATOM     22  C   UNL     1       6.357   3.947  13.656  0.00  0.00    +0.000 C 
ATOM     23  C   UNL     1       6.359   4.989  14.760  0.00  0.00    +0.000 C 
ENDBRANCH  21  23
ENDBRANCH  18  21
BRANCH  18  24
ATOM     24  C   UNL     1       3.953   3.922  16.486  0.00  0.00    +0.000 C 
BRANCH  24  25
ATOM     25  C   UNL     1       3.505   2.551  16.994  0.00  0.00    +0.000 C 
ATOM     26  C   UNL     1       2.097   2.618  17.570  0.00  0.00    +0.000 C 
ENDBRANCH  24  25
ENDBRANCH  18  24
ENDBRANCH   1  19
TORSDOF 6
ENDMDL
MODEL 7
REMARK VINA RESULT:      -6.8      1.286      1.429
REMARK  Name = 
REMARK  9 active torsions:
REMARK  status: ('A' for Active; 'I' for Inactive)
REMARK    1  A    between atoms: C_1  and  C_2
REMARK    2  A    between atoms: C_2  and  C_3
REMARK    3  A    between atoms: C_3  and  N_4
REMARK    4  A    between atoms: N_4  and  C_5
REMARK    5  A    between atoms: C_5  and  C_6
REMARK    6  A    between atoms: C_6  and  C_7
REMARK    7  A    between atoms: C_8  and  C_10
REMARK    8  A    between atoms: C_12  and  N_13
REMARK    9  A    between atoms: N_16  and  C_17
REMARK                            x       y       z     vdW  Elec       q    Type
REMARK                         _______ _______ _______ _____ _____    ______ ____
ROOT
ATOM      1  C   UNL     1       4.080   5.414  17.262  0.00  0.00    +0.000 A 
ATOM      2  C   UNL     1       3.512   6.658  17.569  0.00  0.00    +0.000 A 
ATOM      3  C   UNL     1       2.545   6.766  18.556  0.00  0.00    +0.000 A 
ATOM      4  N   UNL     1       2.046   5.651  19.115  0.00  0.00    +0.000 NA
ATOM      5  C   UNL     1       2.473   4.439  18.747  0.00  0.00    +0.000 A 
ATOM      6  C   UNL     1       1.794   3.347  19.273  0.00  0.00    +0.000 A 
ATOM      7  C   UNL     1       2.153   2.037  18.967  0.00  0.00    +0.000 A 
ATOM      8  C   UNL     1       3.253   1.810  18.153  0.00  0.00    +0.000 A 
ATOM      9  C   UNL     1       3.942   2.897  17.610  0.00  0.00    +0.000 A 
ATOM     10  C   UNL     1       3.539   4.240  17.856  0.00  0.00    +0.000 A 
ENDROOT
BRANCH   3  11
ATOM     11  N   UNL     1       1.995   7.966  18.960  0.00  0.00    +0.000 N 
ATOM     12  C   UNL     1       1.797   8.134  20.414  0.00  0.00    +0.000 C 
ATOM     13  C   UNL     1       0.642   9.124  20.684  0.00  0.00    +0.000 C 
ATOM     14  N   UNL     1       0.826  10.426  20.002  0.00  0.00    +0.000 NA
ATOM     15  C   UNL     1      -0.340  11.281  20.227  0.00  0.00    +0.000 C 
ATOM     16  C   UNL     1       1.020  10.190  18.555  0.00  0.00    +0.000 C 
ATOM     17  C   UNL     1       2.195   9.231  18.248  0.00  0.00    +0.000 C 
ENDBRANCH   3  11
BRANCH   1  19
ATOM     18  N   UNL     1       6.494   5.084  16.478  0.00  0.00    +0.000 N 
ATOM     19  C   UNL     1       5.125   5.326  16.188  0.00  0.00    +0.000 C 
ATOM     20  O   UNL     1       4.742   5.473  15.027  0.00  0.00    +0.000 OA
BRANCH  18  21
ATOM     21  C   UNL     1       7.381   4.962  15.305  0.00  0.00    +0.000 C 
BRANCH  21  23
ATOM     22  C   UNL     1       7.300   4.587  12.774  0.00  0.00    +0.000 C 
ATOM     23  C   UNL     1       6.844   4.115  14.143  0.00  0.00    +0.000 C 
ENDBRANCH  21  23
ENDBRANCH  18  21
BRANCH  18  24
ATOM     24  C   UNL     1       6.992   4.733  17.823  0.00  0.00    +0.000 C 
BRANCH  24  25
ATOM     25  C   UNL     1       7.201   5.848  18.847  0.00  0.00    +0.000 C 
ATOM     26  C   UNL     1       7.890   7.049  18.212  0.00  0.00    +0.000 C 
ENDBRANCH  24  25
ENDBRANCH  18  24
ENDBRANCH   1  19
TORSDOF 6
ENDMDL
MODEL 8
REMARK VINA RESULT:      -6.8      1.581      2.437
REMARK  Name = 
REMARK  9 active torsions:
REMARK  status: ('A' for Active; 'I' for Inactive)
REMARK    1  A    between atoms: C_1  and  C_2
REMARK    2  A    between atoms: C_2  and  C_3
REMARK    3  A    between atoms: C_3  and  N_4
REMARK    4  A    between atoms: N_4  and  C_5
REMARK    5  A    between atoms: C_5  and  C_6
REMARK    6  A    between atoms: C_6  and  C_7
REMARK    7  A    between atoms: C_8  and  C_10
REMARK    8  A    between atoms: C_12  and  N_13
REMARK    9  A    between atoms: N_16  and  C_17
REMARK                            x       y       z     vdW  Elec       q    Type
REMARK                         _______ _______ _______ _____ _____    ______ ____
ROOT
ATOM      1  C   UNL     1       3.937   5.366  19.466  0.00  0.00    +0.000 A 
ATOM      2  C   UNL     1       3.366   6.631  19.661  0.00  0.00    +0.000 A 
ATOM      3  C   UNL     1       2.035   6.755  20.025  0.00  0.00    +0.000 A 
ATOM      4  N   UNL     1       1.252   5.663  20.047  0.00  0.00    +0.000 NA
ATOM      5  C   UNL     1       1.737   4.456  19.736  0.00  0.00    +0.000 A 
ATOM      6  C   UNL     1       0.821   3.416  19.642  0.00  0.00    +0.000 A 
ATOM      7  C   UNL     1       1.210   2.116  19.331  0.00  0.00    +0.000 A 
ATOM      8  C   UNL     1       2.557   1.836  19.158  0.00  0.00    +0.000 A 
ATOM      9  C   UNL     1       3.491   2.871  19.242  0.00  0.00    +0.000 A 
ATOM     10  C   UNL     1       3.098   4.218  19.485  0.00  0.00    +0.000 A 
ENDROOT
BRANCH   3  11
ATOM     11  N   UNL     1       1.426   7.962  20.303  0.00  0.00    +0.000 N 
ATOM     12  C   UNL     1       1.439   8.388  21.717  0.00  0.00    +0.000 C 
ATOM     13  C   UNL     1       0.238   9.317  22.005  0.00  0.00    +0.000 C 
ATOM     14  N   UNL     1       0.172  10.477  21.085  0.00  0.00    +0.000 NA
ATOM     15  C   UNL     1      -1.032  11.264  21.355  0.00  0.00    +0.000 C 
ATOM     16  C   UNL     1       0.164   9.986  19.690  0.00  0.00    +0.000 C 
ATOM     17  C   UNL     1       1.375   9.081  19.358  0.00  0.00    +0.000 C 
ENDBRANCH   3  11
BRANCH   1  19
ATOM     18  N   UNL     1       5.800   5.256  17.714  0.00  0.00    +0.000 N 
ATOM     19  C   UNL     1       5.381   5.262  19.071  0.00  0.00    +0.000 C 
ATOM     20  O   UNL     1       6.202   5.182  19.986  0.00  0.00    +0.000 OA
BRANCH  18  21
ATOM     21  C   UNL     1       7.259   5.214  17.499  0.00  0.00    +0.000 C 
BRANCH  21  23
ATOM     22  C   UNL     1       7.654   7.744  17.512  0.00  0.00    +0.000 C 
ATOM     23  C   UNL     1       8.057   6.393  18.075  0.00  0.00    +0.000 C 
ENDBRANCH  21  23
ENDBRANCH  18  21
BRANCH  18  24
ATOM     24  C   UNL     1       4.891   5.518  16.580  0.00  0.00    +0.000 C 
BRANCH  24  25
ATOM     25  C   UNL     1       5.486   5.695  15.184  0.00  0.00    +0.000 C 
ATOM     26  C   UNL     1       5.523   4.369  14.435  0.00  0.00    +0.000 C 
ENDBRANCH  24  25
ENDBRANCH  18  24
ENDBRANCH   1  19
TORSDOF 6
ENDMDL
MODEL 9
REMARK VINA RESULT:      -6.8      1.714      2.750
REMARK  Name = 
REMARK  9 active torsions:
REMARK  status: ('A' for Active; 'I' for Inactive)
REMARK    1  A    between atoms: C_1  and  C_2
REMARK    2  A    between atoms: C_2  and  C_3
REMARK    3  A    between atoms: C_3  and  N_4
REMARK    4  A    between atoms: N_4  and  C_5
REMARK    5  A    between atoms: C_5  and  C_6
REMARK    6  A    between atoms: C_6  and  C_7
REMARK    7  A    between atoms: C_8  and  C_10
REMARK    8  A    between atoms: C_12  and  N_13
REMARK    9  A    between atoms: N_16  and  C_17
REMARK                            x       y       z     vdW  Elec       q    Type
REMARK                         _______ _______ _______ _____ _____    ______ ____
ROOT
ATOM      1  C   UNL     1       4.068   5.444  19.439  0.00  0.00    +0.000 A 
ATOM      2  C   UNL     1       3.406   6.642  19.741  0.00  0.00    +0.000 A 
ATOM      3  C   UNL     1       2.063   6.639  20.079  0.00  0.00    +0.000 A 
ATOM      4  N   UNL     1       1.358   5.500  19.973  0.00  0.00    +0.000 NA
ATOM      5  C   UNL     1       1.932   4.366  19.559  0.00  0.00    +0.000 A 
ATOM      6  C   UNL     1       1.093   3.281  19.339  0.00  0.00    +0.000 A 
ATOM      7  C   UNL     1       1.577   2.047  18.914  0.00  0.00    +0.000 A 
ATOM      8  C   UNL     1       2.944   1.876  18.752  0.00  0.00    +0.000 A 
ATOM      9  C   UNL     1       3.801   2.959  18.961  0.00  0.00    +0.000 A 
ATOM     10  C   UNL     1       3.311   4.245  19.323  0.00  0.00    +0.000 A 
ENDROOT
BRANCH   3  11
ATOM     11  N   UNL     1       1.366   7.769  20.456  0.00  0.00    +0.000 N 
ATOM     12  C   UNL     1       1.203   8.809  19.419  0.00  0.00    +0.000 C 
ATOM     13  C   UNL     1       1.036  10.197  20.078  0.00  0.00    +0.000 C 
ATOM     14  N   UNL     1      -0.063  10.237  21.070  0.00  0.00    +0.000 NA
ATOM     15  C   UNL     1      -0.108  11.549  21.716  0.00  0.00    +0.000 C 
ATOM     16  C   UNL     1       0.157   9.175  22.076  0.00  0.00    +0.000 C 
ATOM     17  C   UNL     1       0.291   7.766  21.451  0.00  0.00    +0.000 C 
ENDBRANCH   3  11
BRANCH   1  19
ATOM     18  N   UNL     1       5.975   5.812  17.772  0.00  0.00    +0.000 N 
ATOM     19  C   UNL     1       5.524   5.477  19.076  0.00  0.00    +0.000 C 
ATOM     20  O   UNL     1       6.325   5.197  19.969  0.00  0.00    +0.000 OA
BRANCH  18  21
ATOM     21  C   UNL     1       7.439   5.862  17.598  0.00  0.00    +0.000 C 
BRANCH  21  23
ATOM     22  C   UNL     1       7.804   8.396  17.644  0.00  0.00    +0.000 C 
ATOM     23  C   UNL     1       8.153   7.051  18.256  0.00  0.00    +0.000 C 
ENDBRANCH  21  23
ENDBRANCH  18  21
BRANCH  18  24
ATOM     24  C   UNL     1       5.085   6.318  16.708  0.00  0.00    +0.000 C 
BRANCH  24  25
ATOM     25  C   UNL     1       5.325   5.865  15.268  0.00  0.00    +0.000 C 
ATOM     26  C   UNL     1       5.293   4.346  15.162  0.00  0.00    +0.000 C 
ENDBRANCH  24  25
ENDBRANCH  18  24
ENDBRANCH   1  19
TORSDOF 6
ENDMDL
