MODEL 1
REMARK VINA RESULT:      -7.7      0.000      0.000
REMARK  Name = 
REMARK  7 active torsions:
REMARK  status: ('A' for Active; 'I' for Inactive)
REMARK    1  A    between atoms: C_1  and  C_2
REMARK    2  A    between atoms: C_2  and  N_3
REMARK    3  A    between atoms: C_5  and  C_6
REMARK    4  A    between atoms: C_6  and  N_7
REMARK    5  A    between atoms: N_7  and  C_8
REMARK    6  A    between atoms: C_13  and  C_14
REMARK    7  A    between atoms: C_15  and  C_16
REMARK                            x       y       z     vdW  Elec       q    Type
REMARK                         _______ _______ _______ _____ _____    ______ ____
ROOT
ATOM      1  C   UNL     1       2.121   7.775  19.594  0.00  0.00    +0.000 A 
ATOM      2  C   UNL     1       2.235   8.110  18.242  0.00  0.00    +0.000 A 
ATOM      3  C   UNL     1       1.576   9.222  17.771  0.00  0.00    +0.000 A 
ATOM      4  N   UNL     1       0.778   9.987  18.527  0.00  0.00    +0.000 NA
ATOM      5  C   UNL     1       0.627   9.695  19.830  0.00  0.00    +0.000 A 
ATOM      6  C   UNL     1      -0.227  10.497  20.615  0.00  0.00    +0.000 A 
ATOM      7  C   UNL     1      -1.060  11.565  19.943  0.00  0.00    +0.000 C 
ATOM      8  C   UNL     1      -0.330  10.302  22.010  0.00  0.00    +0.000 A 
ATOM      9  C   UNL     1      -1.155  11.181  22.913  0.00  0.00    +0.000 C 
ATOM     10  C   UNL     1       0.385   9.264  22.602  0.00  0.00    +0.000 A 
ATOM     11  C   UNL     1       1.164   8.411  21.822  0.00  0.00    +0.000 A 
ATOM     12  C   UNL     1       1.308   8.602  20.430  0.00  0.00    +0.000 A 
ENDROOT
BRANCH   1  13
ATOM     13  N   UNL     1       2.677   6.568  20.074  0.00  0.00    +0.000 N 
ATOM     14  H   UNL     1       3.680   6.628  20.211  0.00  0.00    +0.000 HD
BRANCH  13  15
ATOM     15  C   UNL     1       2.271   5.316  19.444  0.00  0.00    +0.000 C 
BRANCH  15  18
ATOM     16  N   UNL     1       5.684   4.782  18.244  0.00  0.00    +0.000 N 
ATOM     17  C   UNL     1       4.784   5.337  19.219  0.00  0.00    +0.000 C 
ATOM     18  C   UNL     1       3.500   4.563  18.965  0.00  0.00    +0.000 C 
ATOM     19  C   UNL     1       3.527   4.335  17.450  0.00  0.00    +0.000 C 
ATOM     20  C   UNL     1       5.003   4.242  17.159  0.00  0.00    +0.000 C 
ATOM     21  O   UNL     1       5.494   3.826  16.124  0.00  0.00    +0.000 OA
BRANCH  16  23
ATOM     22  C   UNL     1       7.374   6.499  17.705  0.00  0.00    +0.000 C 
ATOM     23  C   UNL     1       7.099   5.095  18.218  0.00  0.00    +0.000 C 
ENDBRANCH  16  23
ENDBRANCH  15  18
ENDBRANCH  13  15
ENDBRANCH   1  13
TORSDOF 4
ENDMDL
MODEL 2
REMARK VINA RESULT:      -7.6      1.169      1.585
REMARK  Name = 
REMARK  7 active torsions:
REMARK  status: ('A' for Active; 'I' for Inactive)
REMARK    1  A    between atoms: C_1  and  C_2
REMARK    2  A    between atoms: C_2  and  N_3
REMARK    3  A    between atoms: C_5  and  C_6
REMARK    4  A    between atoms: C_6  and  N_7
REMARK    5  A    between atoms: N_7  and  C_8
REMARK    6  A    between atoms: C_13  and  C_14
REMARK    7  A    between atoms: C_15  and  C_16
REMARK                            x       y       z     vdW  Elec       q    Type
REMARK                         _______ _______ _______ _____ _____    ______ ____
ROOT
ATOM      1  C   UNL     1       2.087   7.865  19.502  0.00  0.00    +0.000 A 
ATOM      2  C   UNL     1       2.149   8.230  18.155  0.00  0.00    +0.000 A 
ATOM      3  C   UNL     1       1.440   9.328  17.726  0.00  0.00    +0.000 A 
ATOM      4  N   UNL     1       0.641  10.051  18.520  0.00  0.00    +0.000 NA
ATOM      5  C   UNL     1       0.539   9.729  19.821  0.00  0.00    +0.000 A 
ATOM      6  C   UNL     1      -0.317  10.486  20.647  0.00  0.00    +0.000 A 
ATOM      7  C   UNL     1      -1.205  11.538  20.022  0.00  0.00    +0.000 C 
ATOM      8  C   UNL     1      -0.372  10.261  22.041  0.00  0.00    +0.000 A 
ATOM      9  C   UNL     1      -1.198  11.093  22.985  0.00  0.00    +0.000 C 
ATOM     10  C   UNL     1       0.395   9.235  22.590  0.00  0.00    +0.000 A 
ATOM     11  C   UNL     1       1.177   8.424  21.769  0.00  0.00    +0.000 A 
ATOM     12  C   UNL     1       1.273   8.648  20.378  0.00  0.00    +0.000 A 
ENDROOT
BRANCH   1  13
ATOM     13  N   UNL     1       2.697   6.668  19.941  0.00  0.00    +0.000 N 
ATOM     14  H   UNL     1       3.444   6.832  20.607  0.00  0.00    +0.000 HD
BRANCH  13  15
ATOM     15  C   UNL     1       3.045   5.659  18.946  0.00  0.00    +0.000 C 
BRANCH  15  18
ATOM     16  N   UNL     1       6.046   5.288  16.888  0.00  0.00    +0.000 N 
ATOM     17  C   UNL     1       4.640   5.577  16.992  0.00  0.00    +0.000 C 
ATOM     18  C   UNL     1       4.472   5.878  18.474  0.00  0.00    +0.000 C 
ATOM     19  C   UNL     1       5.487   4.940  19.135  0.00  0.00    +0.000 C 
ATOM     20  C   UNL     1       6.575   4.849  18.097  0.00  0.00    +0.000 C 
ATOM     21  O   UNL     1       7.695   4.406  18.283  0.00  0.00    +0.000 OA
BRANCH  16  23
ATOM     22  C   UNL     1       6.121   3.967  14.804  0.00  0.00    +0.000 C 
ATOM     23  C   UNL     1       6.715   5.107  15.615  0.00  0.00    +0.000 C 
ENDBRANCH  16  23
ENDBRANCH  15  18
ENDBRANCH  13  15
ENDBRANCH   1  13
TORSDOF 4
ENDMDL
MODEL 3
REMARK VINA RESULT:      -7.5      2.411      4.434
REMARK  Name = 
REMARK  7 active torsions:
REMARK  status: ('A' for Active; 'I' for Inactive)
REMARK    1  A    between atoms: C_1  and  C_2
REMARK    2  A    between atoms: C_2  and  N_3
REMARK    3  A    between atoms: C_5  and  C_6
REMARK    4  A    between atoms: C_6  and  N_7
REMARK    5  A    between atoms: N_7  and  C_8
REMARK    6  A    between atoms: C_13  and  C_14
REMARK    7  A    between atoms: C_15  and  C_16
REMARK                            x       y       z     vdW  Elec       q    Type
REMARK                         _______ _______ _______ _____ _____    ______ ____
ROOT
ATOM      1  C   UNL     1       3.723   4.971  19.074  0.00  0.00    +0.000 A 
ATOM      2  C   UNL     1       3.279   4.176  20.134  0.00  0.00    +0.000 A 
ATOM      3  C   UNL     1       2.294   4.658  20.965  0.00  0.00    +0.000 A 
ATOM      4  N   UNL     1       1.761   5.881  20.851  0.00  0.00    +0.000 NA
ATOM      5  C   UNL     1       2.167   6.687  19.855  0.00  0.00    +0.000 A 
ATOM      6  C   UNL     1       1.612   7.979  19.751  0.00  0.00    +0.000 A 
ATOM      7  C   UNL     1       0.691   8.476  20.844  0.00  0.00    +0.000 C 
ATOM      8  C   UNL     1       1.919   8.819  18.658  0.00  0.00    +0.000 A 
ATOM      9  C   UNL     1       1.291  10.171  18.448  0.00  0.00    +0.000 C 
ATOM     10  C   UNL     1       2.829   8.376  17.701  0.00  0.00    +0.000 A 
ATOM     11  C   UNL     1       3.450   7.136  17.841  0.00  0.00    +0.000 A 
ATOM     12  C   UNL     1       3.138   6.265  18.907  0.00  0.00    +0.000 A 
ENDROOT
BRANCH   1  13
ATOM     13  N   UNL     1       4.822   4.557  18.289  0.00  0.00    +0.000 N 
ATOM     14  H   UNL     1       5.472   5.311  18.098  0.00  0.00    +0.000 HD
BRANCH  13  15
ATOM     15  C   UNL     1       4.564   3.730  17.114  0.00  0.00    +0.000 C 
BRANCH  15  18
ATOM     16  N   UNL     1       6.207   4.138  13.872  0.00  0.00    +0.000 N 
ATOM     17  C   UNL     1       5.224   3.480  14.691  0.00  0.00    +0.000 C 
ATOM     18  C   UNL     1       5.086   4.430  15.872  0.00  0.00    +0.000 C 
ATOM     19  C   UNL     1       6.503   4.990  16.033  0.00  0.00    +0.000 C 
ATOM     20  C   UNL     1       7.022   4.982  14.618  0.00  0.00    +0.000 C 
ATOM     21  O   UNL     1       8.019   5.564  14.228  0.00  0.00    +0.000 OA
BRANCH  16  23
ATOM     22  C   UNL     1       5.343   3.122  11.794  0.00  0.00    +0.000 C 
ATOM     23  C   UNL     1       6.544   3.684  12.537  0.00  0.00    +0.000 C 
ENDBRANCH  16  23
ENDBRANCH  15  18
ENDBRANCH  13  15
ENDBRANCH   1  13
TORSDOF 4
ENDMDL
MODEL 4
REMARK VINA RESULT:      -7.4      1.306      1.523
REMARK  Name = 
REMARK  7 active torsions:
REMARK  status: ('A' for Active; 'I' for Inactive)
REMARK    1  A    between atoms: C_1  and  C_2
REMARK    2  A    between atoms: C_2  and  N_3
REMARK    3  A    between atoms: C_5  and  C_6
REMARK    4  A    between atoms: C_6  and  N_7
REMARK    5  A    between atoms: N_7  and  C_8
REMARK    6  A    between atoms: C_13  and  C_14
REMARK    7  A    between atoms: C_15  and  C_16
REMARK                            x       y       z     vdW  Elec       q    Type
REMARK                         _______ _______ _______ _____ _____    ______ ____
ROOT
ATOM      1  C   UNL     1       1.863   8.126  19.898  0.00  0.00    +0.000 A 
ATOM      2  C   UNL     1       1.947   8.379  18.526  0.00  0.00    +0.000 A 
ATOM      3  C   UNL     1       1.229   9.425  17.993  0.00  0.00    +0.000 A 
ATOM      4  N   UNL     1       0.402  10.197  18.709  0.00  0.00    +0.000 NA
ATOM      5  C   UNL     1       0.277   9.982  20.030  0.00  0.00    +0.000 A 
ATOM      6  C   UNL     1      -0.608  10.789  20.773  0.00  0.00    +0.000 A 
ATOM      7  C   UNL     1      -1.500  11.770  20.045  0.00  0.00    +0.000 C 
ATOM      8  C   UNL     1      -0.689  10.680  22.179  0.00  0.00    +0.000 A 
ATOM      9  C   UNL     1      -1.548  11.573  23.034  0.00  0.00    +0.000 C 
ATOM     10  C   UNL     1       0.084   9.718  22.827  0.00  0.00    +0.000 A 
ATOM     11  C   UNL     1       0.897   8.856  22.092  0.00  0.00    +0.000 A 
ATOM     12  C   UNL     1       1.018   8.965  20.689  0.00  0.00    +0.000 A 
ENDROOT
BRANCH   1  13
ATOM     13  N   UNL     1       2.483   6.982  20.447  0.00  0.00    +0.000 N 
ATOM     14  H   UNL     1       3.404   6.813  20.059  0.00  0.00    +0.000 HD
BRANCH  13  15
ATOM     15  C   UNL     1       1.697   5.760  20.577  0.00  0.00    +0.000 C 
BRANCH  15  18
ATOM     16  N   UNL     1       3.766   4.160  18.022  0.00  0.00    +0.000 N 
ATOM     17  C   UNL     1       3.637   5.096  19.106  0.00  0.00    +0.000 C 
ATOM     18  C   UNL     1       2.352   4.643  19.784  0.00  0.00    +0.000 C 
ATOM     19  C   UNL     1       1.501   4.142  18.613  0.00  0.00    +0.000 C 
ATOM     20  C   UNL     1       2.539   3.623  17.651  0.00  0.00    +0.000 C 
ATOM     21  O   UNL     1       2.316   2.913  16.686  0.00  0.00    +0.000 OA
BRANCH  16  23
ATOM     22  C   UNL     1       5.162   5.358  16.374  0.00  0.00    +0.000 C 
ATOM     23  C   UNL     1       4.949   4.091  17.185  0.00  0.00    +0.000 C 
ENDBRANCH  16  23
ENDBRANCH  15  18
ENDBRANCH  13  15
ENDBRANCH   1  13
TORSDOF 4
ENDMDL
MODEL 5
REMARK VINA RESULT:      -7.4      3.687      6.061
REMARK  Name = 
REMARK  7 active torsions:
REMARK  status: ('A' for Active; 'I' for Inactive)
REMARK    1  A    between atoms: C_1  and  C_2
REMARK    2  A    between atoms: C_2  and  N_3
REMARK    3  A    between atoms: C_5  and  C_6
REMARK    4  A    between atoms: C_6  and  N_7
REMARK    5  A    between atoms: N_7  and  C_8
REMARK    6  A    between atoms: C_13  and  C_14
REMARK    7  A    between atoms: C_15  and  C_16
REMARK                            x       y       z     vdW  Elec       q    Type
REMARK                         _______ _______ _______ _____ _____    ______ ____
ROOT
ATOM      1  C   UNL     1       5.167   4.879  17.663  0.00  0.00    +0.000 A 
ATOM      2  C   UNL     1       4.897   6.186  17.249  0.00  0.00    +0.000 A 
ATOM      3  C   UNL     1       3.860   6.873  17.836  0.00  0.00    +0.000 A 
ATOM      4  N   UNL     1       3.047   6.343  18.758  0.00  0.00    +0.000 NA
ATOM      5  C   UNL     1       3.259   5.083  19.178  0.00  0.00    +0.000 A 
ATOM      6  C   UNL     1       2.389   4.527  20.137  0.00  0.00    +0.000 A 
ATOM      7  C   UNL     1       1.160   5.302  20.557  0.00  0.00    +0.000 C 
ATOM      8  C   UNL     1       2.636   3.252  20.693  0.00  0.00    +0.000 A 
ATOM      9  C   UNL     1       1.795   2.644  21.783  0.00  0.00    +0.000 C 
ATOM     10  C   UNL     1       3.730   2.518  20.239  0.00  0.00    +0.000 A 
ATOM     11  C   UNL     1       4.546   3.022  19.227  0.00  0.00    +0.000 A 
ATOM     12  C   UNL     1       4.338   4.306  18.677  0.00  0.00    +0.000 A 
ENDROOT
BRANCH   1  13
ATOM     13  N   UNL     1       6.137   4.107  16.986  0.00  0.00    +0.000 N 
ATOM     14  H   UNL     1       6.572   3.414  17.585  0.00  0.00    +0.000 HD
BRANCH  13  15
ATOM     15  C   UNL     1       7.103   4.795  16.134  0.00  0.00    +0.000 C 
BRANCH  15  18
ATOM     16  N   UNL     1       6.045   3.635  12.831  0.00  0.00    +0.000 N 
ATOM     17  C   UNL     1       5.950   3.553  14.264  0.00  0.00    +0.000 C 
ATOM     18  C   UNL     1       6.571   4.867  14.714  0.00  0.00    +0.000 C 
ATOM     19  C   UNL     1       7.659   5.113  13.664  0.00  0.00    +0.000 C 
ATOM     20  C   UNL     1       7.071   4.482  12.428  0.00  0.00    +0.000 C 
ATOM     21  O   UNL     1       7.476   4.645  11.290  0.00  0.00    +0.000 OA
BRANCH  16  23
ATOM     22  C   UNL     1       4.174   3.221  11.274  0.00  0.00    +0.000 C 
ATOM     23  C   UNL     1       5.419   2.669  11.949  0.00  0.00    +0.000 C 
ENDBRANCH  16  23
ENDBRANCH  15  18
ENDBRANCH  13  15
ENDBRANCH   1  13
TORSDOF 4
ENDMDL
MODEL 6
REMARK VINA RESULT:      -7.3      2.876      6.983
REMARK  Name = 
REMARK  7 active torsions:
REMARK  status: ('A' for Active; 'I' for Inactive)
REMARK    1  A    between atoms: C_1  and  C_2
REMARK    2  A    between atoms: C_2  and  N_3
REMARK    3  A    between atoms: C_5  and  C_6
REMARK    4  A    between atoms: C_6  and  N_7
REMARK    5  A    between atoms: N_7  and  C_8
REMARK    6  A    between atoms: C_13  and  C_14
REMARK    7  A    between atoms: C_15  and  C_16
REMARK                            x       y       z     vdW  Elec       q    Type
REMARK                         _______ _______ _______ _____ _____    ______ ____
ROOT
ATOM      1  C   UNL     1       3.376   6.972  18.014  0.00  0.00    +0.000 A 
ATOM      2  C   UNL     1       4.288   6.684  16.995  0.00  0.00    +0.000 A 
ATOM      3  C   UNL     1       4.811   5.415  16.904  0.00  0.00    +0.000 A 
ATOM      4  N   UNL     1       4.536   4.436  17.775  0.00  0.00    +0.000 NA
ATOM      5  C   UNL     1       3.675   4.670  18.781  0.00  0.00    +0.000 A 
ATOM      6  C   UNL     1       3.403   3.639  19.702  0.00  0.00    +0.000 A 
ATOM      7  C   UNL     1       4.195   2.353  19.625  0.00  0.00    +0.000 C 
ATOM      8  C   UNL     1       2.422   3.798  20.706  0.00  0.00    +0.000 A 
ATOM      9  C   UNL     1       2.026   2.703  21.661  0.00  0.00    +0.000 C 
ATOM     10  C   UNL     1       1.756   5.017  20.812  0.00  0.00    +0.000 A 
ATOM     11  C   UNL     1       2.080   6.073  19.961  0.00  0.00    +0.000 A 
ATOM     12  C   UNL     1       3.035   5.930  18.931  0.00  0.00    +0.000 A 
ENDROOT
BRANCH   1  13
ATOM     13  N   UNL     1       2.927   8.297  18.210  0.00  0.00    +0.000 N 
ATOM     14  H   UNL     1       3.066   8.620  19.161  0.00  0.00    +0.000 HD
BRANCH  13  15
ATOM     15  C   UNL     1       1.622   8.675  17.675  0.00  0.00    +0.000 C 
BRANCH  15  18
ATOM     16  N   UNL     1      -0.088  10.380  20.421  0.00  0.00    +0.000 N 
ATOM     17  C   UNL     1       0.936   9.479  19.967  0.00  0.00    +0.000 C 
ATOM     18  C   UNL     1       1.049   9.822  18.489  0.00  0.00    +0.000 C 
ATOM     19  C   UNL     1      -0.389  10.186  18.108  0.00  0.00    +0.000 C 
ATOM     20  C   UNL     1      -0.930  10.772  19.386  0.00  0.00    +0.000 C 
ATOM     21  O   UNL     1      -1.959  11.417  19.489  0.00  0.00    +0.000 OA
BRANCH  16  23
ATOM     22  C   UNL     1       0.132   9.418  22.685  0.00  0.00    +0.000 C 
ATOM     23  C   UNL     1      -0.425  10.539  21.822  0.00  0.00    +0.000 C 
ENDBRANCH  16  23
ENDBRANCH  15  18
ENDBRANCH  13  15
ENDBRANCH   1  13
TORSDOF 4
ENDMDL
MODEL 7
REMARK VINA RESULT:      -7.2      1.852      2.300
REMARK  Name = 
REMARK  7 active torsions:
REMARK  status: ('A' for Active; 'I' for Inactive)
REMARK    1  A    between atoms: C_1  and  C_2
REMARK    2  A    between atoms: C_2  and  N_3
REMARK    3  A    between atoms: C_5  and  C_6
REMARK    4  A    between atoms: C_6  and  N_7
REMARK    5  A    between atoms: N_7  and  C_8
REMARK    6  A    between atoms: C_13  and  C_14
REMARK    7  A    between atoms: C_15  and  C_16
REMARK                            x       y       z     vdW  Elec       q    Type
REMARK                         _______ _______ _______ _____ _____    ______ ____
ROOT
ATOM      1  C   UNL     1       1.732   8.305  19.991  0.00  0.00    +0.000 A 
ATOM      2  C   UNL     1       1.873   8.571  18.627  0.00  0.00    +0.000 A 
ATOM      3  C   UNL     1       1.209   9.646  18.082  0.00  0.00    +0.000 A 
ATOM      4  N   UNL     1       0.381  10.436  18.778  0.00  0.00    +0.000 NA
ATOM      5  C   UNL     1       0.203  10.210  20.091  0.00  0.00    +0.000 A 
ATOM      6  C   UNL     1      -0.682  11.037  20.813  0.00  0.00    +0.000 A 
ATOM      7  C   UNL     1      -1.515  12.055  20.066  0.00  0.00    +0.000 C 
ATOM      8  C   UNL     1      -0.816  10.914  22.214  0.00  0.00    +0.000 A 
ATOM      9  C   UNL     1      -1.676  11.824  23.049  0.00  0.00    +0.000 C 
ATOM     10  C   UNL     1      -0.099   9.919  22.876  0.00  0.00    +0.000 A 
ATOM     11  C   UNL     1       0.712   9.040  22.159  0.00  0.00    +0.000 A 
ATOM     12  C   UNL     1       0.887   9.161  20.763  0.00  0.00    +0.000 A 
ENDROOT
BRANCH   1  13
ATOM     13  N   UNL     1       2.295   7.135  20.547  0.00  0.00    +0.000 N 
ATOM     14  H   UNL     1       3.151   6.855  20.082  0.00  0.00    +0.000 HD
BRANCH  13  15
ATOM     15  C   UNL     1       1.414   6.005  20.826  0.00  0.00    +0.000 C 
BRANCH  15  18
ATOM     16  N   UNL     1       2.991   3.438  18.753  0.00  0.00    +0.000 N 
ATOM     17  C   UNL     1       2.903   4.810  19.175  0.00  0.00    +0.000 C 
ATOM     18  C   UNL     1       2.122   4.707  20.477  0.00  0.00    +0.000 C 
ATOM     19  C   UNL     1       1.165   3.539  20.215  0.00  0.00    +0.000 C 
ATOM     20  C   UNL     1       1.962   2.666  19.280  0.00  0.00    +0.000 C 
ATOM     21  O   UNL     1       1.699   1.510  18.996  0.00  0.00    +0.000 OA
BRANCH  16  23
ATOM     22  C   UNL     1       4.416   4.189  16.882  0.00  0.00    +0.000 C 
ATOM     23  C   UNL     1       3.806   3.015  17.631  0.00  0.00    +0.000 C 
ENDBRANCH  16  23
ENDBRANCH  15  18
ENDBRANCH  13  15
ENDBRANCH   1  13
TORSDOF 4
ENDMDL
MODEL 8
REMARK VINA RESULT:      -7.2      1.943      2.772
REMARK  Name = 
REMARK  7 active torsions:
REMARK  status: ('A' for Active; 'I' for Inactive)
REMARK    1  A    between atoms: C_1  and  C_2
REMARK    2  A    between atoms: C_2  and  N_3
REMARK    3  A    between atoms: C_5  and  C_6
REMARK    4  A    between atoms: C_6  and  N_7
REMARK    5  A    between atoms: N_7  and  C_8
REMARK    6  A    between atoms: C_13  and  C_14
REMARK    7  A    between atoms: C_15  and  C_16
REMARK                            x       y       z     vdW  Elec       q    Type
REMARK                         _______ _______ _______ _____ _____    ______ ____
ROOT
ATOM      1  C   UNL     1       1.964   8.459  19.132  0.00  0.00    +0.000 A 
ATOM      2  C   UNL     1       2.187   9.178  17.954  0.00  0.00    +0.000 A 
ATOM      3  C   UNL     1       1.629  10.428  17.818  0.00  0.00    +0.000 A 
ATOM      4  N   UNL     1       0.830  10.987  18.735  0.00  0.00    +0.000 NA
ATOM      5  C   UNL     1       0.576  10.327  19.878  0.00  0.00    +0.000 A 
ATOM      6  C   UNL     1      -0.279  10.917  20.832  0.00  0.00    +0.000 A 
ATOM      7  C   UNL     1      -1.000  12.200  20.483  0.00  0.00    +0.000 C 
ATOM      8  C   UNL     1      -0.486  10.318  22.094  0.00  0.00    +0.000 A 
ATOM      9  C   UNL     1      -1.315  10.943  23.184  0.00  0.00    +0.000 C 
ATOM     10  C   UNL     1       0.125   9.097  22.370  0.00  0.00    +0.000 A 
ATOM     11  C   UNL     1       0.901   8.462  21.401  0.00  0.00    +0.000 A 
ATOM     12  C   UNL     1       1.149   9.055  20.143  0.00  0.00    +0.000 A 
ENDROOT
BRANCH   1  13
ATOM     13  N   UNL     1       2.413   7.124  19.243  0.00  0.00    +0.000 N 
ATOM     14  H   UNL     1       2.999   6.976  20.058  0.00  0.00    +0.000 HD
BRANCH  13  15
ATOM     15  C   UNL     1       2.935   6.464  18.051  0.00  0.00    +0.000 C 
BRANCH  15  18
ATOM     16  N   UNL     1       1.942   3.135  19.194  0.00  0.00    +0.000 N 
ATOM     17  C   UNL     1       1.851   4.566  19.312  0.00  0.00    +0.000 C 
ATOM     18  C   UNL     1       2.401   5.045  17.976  0.00  0.00    +0.000 C 
ATOM     19  C   UNL     1       3.474   4.002  17.650  0.00  0.00    +0.000 C 
ATOM     20  C   UNL     1       2.921   2.752  18.285  0.00  0.00    +0.000 C 
ATOM     21  O   UNL     1       3.317   1.618  18.076  0.00  0.00    +0.000 OA
BRANCH  16  23
ATOM     22  C   UNL     1       1.719   2.622  21.599  0.00  0.00    +0.000 C 
ATOM     23  C   UNL     1       1.369   2.232  20.172  0.00  0.00    +0.000 C 
ENDBRANCH  16  23
ENDBRANCH  15  18
ENDBRANCH  13  15
ENDBRANCH   1  13
TORSDOF 4
ENDMDL
MODEL 9
REMARK VINA RESULT:      -7.2      1.736      2.707
REMARK  Name = 
REMARK  7 active torsions:
REMARK  status: ('A' for Active; 'I' for Inactive)
REMARK    1  A    between atoms: C_1  and  C_2
REMARK    2  A    between atoms: C_2  and  N_3
REMARK    3  A    between atoms: C_5  and  C_6
REMARK    4  A    between atoms: C_6  and  N_7
REMARK    5  A    between atoms: N_7  and  C_8
REMARK    6  A    between atoms: C_13  and  C_14
REMARK    7  A    between atoms: C_15  and  C_16
REMARK                            x       y       z     vdW  Elec       q    Type
REMARK                         _______ _______ _______ _____ _____    ______ ____
ROOT
ATOM      1  C   UNL     1       2.088   8.317  18.926  0.00  0.00    +0.000 A 
ATOM      2  C   UNL     1       2.274   9.104  17.787  0.00  0.00    +0.000 A 
ATOM      3  C   UNL     1       1.704  10.356  17.738  0.00  0.00    +0.000 A 
ATOM      4  N   UNL     1       0.926  10.854  18.707  0.00  0.00    +0.000 NA
ATOM      5  C   UNL     1       0.707  10.127  19.816  0.00  0.00    +0.000 A 
ATOM      6  C   UNL     1      -0.126  10.653  20.824  0.00  0.00    +0.000 A 
ATOM      7  C   UNL     1      -0.866  11.947  20.570  0.00  0.00    +0.000 C 
ATOM      8  C   UNL     1      -0.295   9.980  22.055  0.00  0.00    +0.000 A 
ATOM      9  C   UNL     1      -1.099  10.534  23.201  0.00  0.00    +0.000 C 
ATOM     10  C   UNL     1       0.332   8.750  22.243  0.00  0.00    +0.000 A 
ATOM     11  C   UNL     1       1.087   8.180  21.219  0.00  0.00    +0.000 A 
ATOM     12  C   UNL     1       1.296   8.846  19.992  0.00  0.00    +0.000 A 
ENDROOT
BRANCH   1  13
ATOM     13  N   UNL     1       2.550   6.982  18.948  0.00  0.00    +0.000 N 
ATOM     14  H   UNL     1       2.727   6.646  19.888  0.00  0.00    +0.000 HD
BRANCH  13  15
ATOM     15  C   UNL     1       3.595   6.592  18.007  0.00  0.00    +0.000 C 
BRANCH  15  18
ATOM     16  N   UNL     1       2.988   3.108  18.936  0.00  0.00    +0.000 N 
ATOM     17  C   UNL     1       2.504   4.351  18.399  0.00  0.00    +0.000 C 
ATOM     18  C   UNL     1       3.790   5.087  18.054  0.00  0.00    +0.000 C 
ATOM     19  C   UNL     1       4.756   4.627  19.150  0.00  0.00    +0.000 C 
ATOM     20  C   UNL     1       4.275   3.231  19.448  0.00  0.00    +0.000 C 
ATOM     21  O   UNL     1       4.890   2.391  20.082  0.00  0.00    +0.000 OA
BRANCH  16  23
ATOM     22  C   UNL     1       0.673   2.256  18.834  0.00  0.00    +0.000 C 
ATOM     23  C   UNL     1       2.111   1.997  19.251  0.00  0.00    +0.000 C 
ENDBRANCH  16  23
ENDBRANCH  15  18
ENDBRANCH  13  15
ENDBRANCH   1  13
TORSDOF 4
ENDMDL
