MODEL 1
REMARK VINA RESULT:      -6.8      0.000      0.000
REMARK  Name = 
REMARK  7 active torsions:
REMARK  status: ('A' for Active; 'I' for Inactive)
REMARK    1  A    between atoms: C_1  and  C_2
REMARK    2  A    between atoms: C_2  and  N_3
REMARK    3  A    between atoms: N_3  and  C_4
REMARK    4  A    between atoms: C_4  and  C_5
REMARK    5  A    between atoms: N_7  and  C_8
REMARK    6  A    between atoms: C_8  and  C_9
REMARK    7  A    between atoms: C_14  and  C_16
REMARK                            x       y       z     vdW  Elec       q    Type
REMARK                         _______ _______ _______ _____ _____    ______ ____
ROOT
ATOM      1  N   UNL     1       4.709   4.262  17.559  0.00  0.00    +0.000 N 
ATOM      2  C   UNL     1       4.041   3.091  18.000  0.00  0.00    +0.000 C 
ATOM      3  O   UNL     1       4.233   2.001  17.456  0.00  0.00    +0.000 OA
ENDROOT
BRANCH   2   4
ATOM      4  C   UNL     1       3.045   3.126  19.104  0.00  0.00    +0.000 A 
ATOM      5  C   UNL     1       3.441   2.694  20.369  0.00  0.00    +0.000 A 
ATOM      6  C   UNL     1       2.564   2.702  21.451  0.00  0.00    +0.000 A 
ATOM      7  C   UNL     1       1.307   3.266  21.327  0.00  0.00    +0.000 A 
ATOM      8  C   UNL     1       0.925   3.797  20.099  0.00  0.00    +0.000 A 
ATOM      9  C   UNL     1       1.774   3.709  18.981  0.00  0.00    +0.000 A 
ATOM     10 CL   UNL     1       1.156   4.332  17.493  0.00  0.00    +0.000 Cl
ENDBRANCH   2   4
BRANCH   1  12
ATOM     11  C   UNL     1       5.460   4.448  15.169  0.00  0.00    +0.000 C 
ATOM     12  C   UNL     1       5.802   4.031  16.600  0.00  0.00    +0.000 C 
ENDBRANCH   1  12
BRANCH   1  13
ATOM     13  C   UNL     1       4.767   5.526  18.321  0.00  0.00    +0.000 C 
BRANCH  13  14
ATOM     14  C   UNL     1       3.913   6.755  17.911  0.00  0.00    +0.000 C 
ATOM     15  O   UNL     1       4.138   7.335  16.844  0.00  0.00    +0.000 OA
ATOM     16  N   UNL     1       2.871   7.128  18.726  0.00  0.00    +0.000 N 
ATOM     17  H   UNL     1       2.738   6.633  19.599  0.00  0.00    +0.000 HD
BRANCH  16  18
ATOM     18  C   UNL     1       2.061   8.312  18.453  0.00  0.00    +0.000 C 
BRANCH  18  19
ATOM     19  C   UNL     1       1.416   8.821  19.712  0.00  0.00    +0.000 A 
ATOM     20  C   UNL     1       1.303   8.193  20.941  0.00  0.00    +0.000 A 
ATOM     21  C   UNL     1       0.625   8.990  21.913  0.00  0.00    +0.000 A 
ATOM     22  C   UNL     1       0.244  10.210  21.401  0.00  0.00    +0.000 A 
ATOM     23  S   UNL     1       0.727  10.396  19.769  0.00  0.00    +0.000 S 
ENDBRANCH  18  19
ENDBRANCH  16  18
ENDBRANCH  13  14
ENDBRANCH   1  13
TORSDOF 6
ENDMDL
MODEL 2
REMARK VINA RESULT:      -6.7      2.144      3.907
REMARK  Name = 
REMARK  7 active torsions:
REMARK  status: ('A' for Active; 'I' for Inactive)
REMARK    1  A    between atoms: C_1  and  C_2
REMARK    2  A    between atoms: C_2  and  N_3
REMARK    3  A    between atoms: N_3  and  C_4
REMARK    4  A    between atoms: C_4  and  C_5
REMARK    5  A    between atoms: N_7  and  C_8
REMARK    6  A    between atoms: C_8  and  C_9
REMARK    7  A    between atoms: C_14  and  C_16
REMARK                            x       y       z     vdW  Elec       q    Type
REMARK                         _______ _______ _______ _____ _____    ______ ____
ROOT
ATOM      1  N   UNL     1       3.441   4.553  19.107  0.00  0.00    +0.000 N 
ATOM      2  C   UNL     1       4.496   4.474  18.162  0.00  0.00    +0.000 C 
ATOM      3  O   UNL     1       4.506   3.608  17.283  0.00  0.00    +0.000 OA
ENDROOT
BRANCH   2   4
ATOM      4  C   UNL     1       5.663   5.396  18.210  0.00  0.00    +0.000 A 
ATOM      5  C   UNL     1       6.621   5.202  19.203  0.00  0.00    +0.000 A 
ATOM      6  C   UNL     1       7.742   6.022  19.307  0.00  0.00    +0.000 A 
ATOM      7  C   UNL     1       8.002   6.976  18.339  0.00  0.00    +0.000 A 
ATOM      8  C   UNL     1       7.111   7.120  17.280  0.00  0.00    +0.000 A 
ATOM      9  C   UNL     1       5.931   6.355  17.221  0.00  0.00    +0.000 A 
ATOM     10 CL   UNL     1       4.867   6.682  15.901  0.00  0.00    +0.000 Cl
ENDBRANCH   2   4
BRANCH   1  12
ATOM     11  C   UNL     1       1.462   4.190  17.604  0.00  0.00    +0.000 C 
ATOM     12  C   UNL     1       2.274   3.709  18.807  0.00  0.00    +0.000 C 
ENDBRANCH   1  12
BRANCH   1  13
ATOM     13  C   UNL     1       3.199   5.712  19.990  0.00  0.00    +0.000 C 
BRANCH  13  14
ATOM     14  C   UNL     1       2.512   6.999  19.462  0.00  0.00    +0.000 C 
ATOM     15  O   UNL     1       2.556   7.273  18.259  0.00  0.00    +0.000 OA
ATOM     16  N   UNL     1       1.806   7.774  20.352  0.00  0.00    +0.000 N 
ATOM     17  H   UNL     1       1.815   7.518  21.331  0.00  0.00    +0.000 HD
BRANCH  16  18
ATOM     18  C   UNL     1       1.188   9.036  19.956  0.00  0.00    +0.000 C 
BRANCH  18  19
ATOM     19  C   UNL     1       0.443   9.652  21.108  0.00  0.00    +0.000 A 
ATOM     20  C   UNL     1      -0.042   9.038  22.250  0.00  0.00    +0.000 A 
ATOM     21  C   UNL     1      -0.699   9.948  23.135  0.00  0.00    +0.000 A 
ATOM     22  C   UNL     1      -0.691  11.235  22.645  0.00  0.00    +0.000 A 
ATOM     23  S   UNL     1       0.127  11.342  21.145  0.00  0.00    +0.000 S 
ENDBRANCH  18  19
ENDBRANCH  16  18
ENDBRANCH  13  14
ENDBRANCH   1  13
TORSDOF 6
ENDMDL
MODEL 3
REMARK VINA RESULT:      -6.6      2.164      4.064
REMARK  Name = 
REMARK  7 active torsions:
REMARK  status: ('A' for Active; 'I' for Inactive)
REMARK    1  A    between atoms: C_1  and  C_2
REMARK    2  A    between atoms: C_2  and  N_3
REMARK    3  A    between atoms: N_3  and  C_4
REMARK    4  A    between atoms: C_4  and  C_5
REMARK    5  A    between atoms: N_7  and  C_8
REMARK    6  A    between atoms: C_8  and  C_9
REMARK    7  A    between atoms: C_14  and  C_16
REMARK                            x       y       z     vdW  Elec       q    Type
REMARK                         _______ _______ _______ _____ _____    ______ ____
ROOT
ATOM      1  N   UNL     1       3.336   4.536  19.076  0.00  0.00    +0.000 N 
ATOM      2  C   UNL     1       4.420   4.423  18.168  0.00  0.00    +0.000 C 
ATOM      3  O   UNL     1       4.440   3.545  17.301  0.00  0.00    +0.000 OA
ENDROOT
BRANCH   2   4
ATOM      4  C   UNL     1       5.603   5.320  18.242  0.00  0.00    +0.000 A 
ATOM      5  C   UNL     1       6.564   5.072  19.222  0.00  0.00    +0.000 A 
ATOM      6  C   UNL     1       7.700   5.867  19.348  0.00  0.00    +0.000 A 
ATOM      7  C   UNL     1       7.972   6.852  18.415  0.00  0.00    +0.000 A 
ATOM      8  C   UNL     1       7.078   7.052  17.368  0.00  0.00    +0.000 A 
ATOM      9  C   UNL     1       5.884   6.311  17.288  0.00  0.00    +0.000 A 
ATOM     10 CL   UNL     1       4.818   6.707  15.989  0.00  0.00    +0.000 Cl
ENDBRANCH   2   4
BRANCH   1  12
ATOM     11  C   UNL     1       1.053   3.782  19.800  0.00  0.00    +0.000 C 
ATOM     12  C   UNL     1       2.162   3.712  18.750  0.00  0.00    +0.000 C 
ENDBRANCH   1  12
BRANCH   1  13
ATOM     13  C   UNL     1       3.090   5.711  19.937  0.00  0.00    +0.000 C 
BRANCH  13  14
ATOM     14  C   UNL     1       2.411   6.990  19.381  0.00  0.00    +0.000 C 
ATOM     15  O   UNL     1       2.330   7.165  18.161  0.00  0.00    +0.000 OA
ATOM     16  N   UNL     1       1.852   7.873  20.273  0.00  0.00    +0.000 N 
ATOM     17  H   UNL     1       1.960   7.696  21.263  0.00  0.00    +0.000 HD
BRANCH  16  18
ATOM     18  C   UNL     1       1.255   9.134  19.841  0.00  0.00    +0.000 C 
BRANCH  18  19
ATOM     19  C   UNL     1       0.471   9.766  20.959  0.00  0.00    +0.000 A 
ATOM     20  C   UNL     1      -0.148  11.003  20.988  0.00  0.00    +0.000 A 
ATOM     21  C   UNL     1      -0.808  11.267  22.228  0.00  0.00    +0.000 A 
ATOM     22  C   UNL     1      -0.680  10.217  23.110  0.00  0.00    +0.000 A 
ATOM     23  S   UNL     1       0.208   8.919  22.432  0.00  0.00    +0.000 S 
ENDBRANCH  18  19
ENDBRANCH  16  18
ENDBRANCH  13  14
ENDBRANCH   1  13
TORSDOF 6
ENDMDL
MODEL 4
REMARK VINA RESULT:      -6.5      1.969      4.073
REMARK  Name = 
REMARK  7 active torsions:
REMARK  status: ('A' for Active; 'I' for Inactive)
REMARK    1  A    between atoms: C_1  and  C_2
REMARK    2  A    between atoms: C_2  and  N_3
REMARK    3  A    between atoms: N_3  and  C_4
REMARK    4  A    between atoms: C_4  and  C_5
REMARK    5  A    between atoms: N_7  and  C_8
REMARK    6  A    between atoms: C_8  and  C_9
REMARK    7  A    between atoms: C_14  and  C_16
REMARK                            x       y       z     vdW  Elec       q    Type
REMARK                         _______ _______ _______ _____ _____    ______ ____
ROOT
ATOM      1  N   UNL     1       3.339   4.529  19.363  0.00  0.00    +0.000 N 
ATOM      2  C   UNL     1       4.556   3.881  19.028  0.00  0.00    +0.000 C 
ATOM      3  O   UNL     1       5.031   2.998  19.746  0.00  0.00    +0.000 OA
ENDROOT
BRANCH   2   4
ATOM      4  C   UNL     1       5.343   4.265  17.825  0.00  0.00    +0.000 A 
ATOM      5  C   UNL     1       4.864   3.888  16.571  0.00  0.00    +0.000 A 
ATOM      6  C   UNL     1       5.544   4.216  15.401  0.00  0.00    +0.000 A 
ATOM      7  C   UNL     1       6.653   5.043  15.445  0.00  0.00    +0.000 A 
ATOM      8  C   UNL     1       7.091   5.516  16.679  0.00  0.00    +0.000 A 
ATOM      9  C   UNL     1       6.460   5.113  17.870  0.00  0.00    +0.000 A 
ATOM     10 CL   UNL     1       7.146   5.703  19.341  0.00  0.00    +0.000 Cl
ENDBRANCH   2   4
BRANCH   1  12
ATOM     11  C   UNL     1       1.073   4.099  20.356  0.00  0.00    +0.000 C 
ATOM     12  C   UNL     1       2.586   3.905  20.463  0.00  0.00    +0.000 C 
ENDBRANCH   1  12
BRANCH   1  13
ATOM     13  C   UNL     1       2.559   5.370  18.433  0.00  0.00    +0.000 C 
BRANCH  13  14
ATOM     14  C   UNL     1       2.611   6.918  18.509  0.00  0.00    +0.000 C 
ATOM     15  O   UNL     1       3.397   7.546  17.793  0.00  0.00    +0.000 OA
ATOM     16  N   UNL     1       1.721   7.562  19.337  0.00  0.00    +0.000 N 
ATOM     17  H   UNL     1       1.109   7.004  19.918  0.00  0.00    +0.000 HD
BRANCH  16  18
ATOM     18  C   UNL     1       1.747   9.010  19.522  0.00  0.00    +0.000 C 
BRANCH  18  19
ATOM     19  C   UNL     1       0.914   9.412  20.709  0.00  0.00    +0.000 A 
ATOM     20  C   UNL     1       0.530   8.644  21.794  0.00  0.00    +0.000 A 
ATOM     21  C   UNL     1      -0.261   9.370  22.738  0.00  0.00    +0.000 A 
ATOM     22  C   UNL     1      -0.451  10.678  22.348  0.00  0.00    +0.000 A 
ATOM     23  S   UNL     1       0.341  11.025  20.871  0.00  0.00    +0.000 S 
ENDBRANCH  18  19
ENDBRANCH  16  18
ENDBRANCH  13  14
ENDBRANCH   1  13
TORSDOF 6
ENDMDL
MODEL 5
REMARK VINA RESULT:      -6.5      2.077      4.212
REMARK  Name = 
REMARK  7 active torsions:
REMARK  status: ('A' for Active; 'I' for Inactive)
REMARK    1  A    between atoms: C_1  and  C_2
REMARK    2  A    between atoms: C_2  and  N_3
REMARK    3  A    between atoms: N_3  and  C_4
REMARK    4  A    between atoms: C_4  and  C_5
REMARK    5  A    between atoms: N_7  and  C_8
REMARK    6  A    between atoms: C_8  and  C_9
REMARK    7  A    between atoms: C_14  and  C_16
REMARK                            x       y       z     vdW  Elec       q    Type
REMARK                         _______ _______ _______ _____ _____    ______ ____
ROOT
ATOM      1  N   UNL     1       3.395   4.703  19.148  0.00  0.00    +0.000 N 
ATOM      2  C   UNL     1       4.605   4.004  18.900  0.00  0.00    +0.000 C 
ATOM      3  O   UNL     1       5.039   3.172  19.700  0.00  0.00    +0.000 OA
ENDROOT
BRANCH   2   4
ATOM      4  C   UNL     1       5.431   4.271  17.693  0.00  0.00    +0.000 A 
ATOM      5  C   UNL     1       4.966   3.825  16.458  0.00  0.00    +0.000 A 
ATOM      6  C   UNL     1       5.683   4.043  15.284  0.00  0.00    +0.000 A 
ATOM      7  C   UNL     1       6.822   4.829  15.297  0.00  0.00    +0.000 A 
ATOM      8  C   UNL     1       7.251   5.371  16.504  0.00  0.00    +0.000 A 
ATOM      9  C   UNL     1       6.580   5.078  17.706  0.00  0.00    +0.000 A 
ATOM     10 CL   UNL     1       7.256   5.745  19.148  0.00  0.00    +0.000 Cl
ENDBRANCH   2   4
BRANCH   1  12
ATOM     11  C   UNL     1       1.134   3.929  19.920  0.00  0.00    +0.000 C 
ATOM     12  C   UNL     1       2.599   4.188  20.274  0.00  0.00    +0.000 C 
ENDBRANCH   1  12
BRANCH   1  13
ATOM     13  C   UNL     1       2.660   5.483  18.132  0.00  0.00    +0.000 C 
BRANCH  13  14
ATOM     14  C   UNL     1       2.878   7.011  17.975  0.00  0.00    +0.000 C 
ATOM     15  O   UNL     1       3.985   7.445  17.640  0.00  0.00    +0.000 OA
ATOM     16  N   UNL     1       1.800   7.846  18.151  0.00  0.00    +0.000 N 
ATOM     17  H   UNL     1       0.919   7.444  18.442  0.00  0.00    +0.000 HD
BRANCH  16  18
ATOM     18  C   UNL     1       1.931   9.299  18.090  0.00  0.00    +0.000 C 
BRANCH  18  19
ATOM     19  C   UNL     1       0.911   9.965  18.973  0.00  0.00    +0.000 A 
ATOM     20  C   UNL     1      -0.027  10.926  18.636  0.00  0.00    +0.000 A 
ATOM     21  C   UNL     1      -0.837  11.325  19.744  0.00  0.00    +0.000 A 
ATOM     22  C   UNL     1      -0.498  10.650  20.896  0.00  0.00    +0.000 A 
ATOM     23  S   UNL     1       0.767   9.528  20.630  0.00  0.00    +0.000 S 
ENDBRANCH  18  19
ENDBRANCH  16  18
ENDBRANCH  13  14
ENDBRANCH   1  13
TORSDOF 6
ENDMDL
MODEL 6
REMARK VINA RESULT:      -6.5      1.220      1.620
REMARK  Name = 
REMARK  7 active torsions:
REMARK  status: ('A' for Active; 'I' for Inactive)
REMARK    1  A    between atoms: C_1  and  C_2
REMARK    2  A    between atoms: C_2  and  N_3
REMARK    3  A    between atoms: N_3  and  C_4
REMARK    4  A    between atoms: C_4  and  C_5
REMARK    5  A    between atoms: N_7  and  C_8
REMARK    6  A    between atoms: C_8  and  C_9
REMARK    7  A    between atoms: C_14  and  C_16
REMARK                            x       y       z     vdW  Elec       q    Type
REMARK                         _______ _______ _______ _____ _____    ______ ____
ROOT
ATOM      1  N   UNL     1       4.292   4.545  17.325  0.00  0.00    +0.000 N 
ATOM      2  C   UNL     1       3.724   3.355  17.848  0.00  0.00    +0.000 C 
ATOM      3  O   UNL     1       3.828   2.280  17.252  0.00  0.00    +0.000 OA
ENDROOT
BRANCH   2   4
ATOM      4  C   UNL     1       2.938   3.351  19.110  0.00  0.00    +0.000 A 
ATOM      5  C   UNL     1       1.655   3.897  19.095  0.00  0.00    +0.000 A 
ATOM      6  C   UNL     1       0.858   3.923  20.237  0.00  0.00    +0.000 A 
ATOM      7  C   UNL     1       1.273   3.285  21.392  0.00  0.00    +0.000 A 
ATOM      8  C   UNL     1       2.507   2.643  21.401  0.00  0.00    +0.000 A 
ATOM      9  C   UNL     1       3.353   2.693  20.278  0.00  0.00    +0.000 A 
ATOM     10 CL   UNL     1       4.893   1.927  20.440  0.00  0.00    +0.000 Cl
ENDBRANCH   2   4
BRANCH   1  12
ATOM     11  C   UNL     1       6.679   4.509  16.544  0.00  0.00    +0.000 C 
ATOM     12  C   UNL     1       5.201   4.352  16.184  0.00  0.00    +0.000 C 
ENDBRANCH   1  12
BRANCH   1  13
ATOM     13  C   UNL     1       4.470   5.793  18.096  0.00  0.00    +0.000 C 
BRANCH  13  14
ATOM     14  C   UNL     1       3.603   7.047  17.811  0.00  0.00    +0.000 C 
ATOM     15  O   UNL     1       3.759   7.680  16.762  0.00  0.00    +0.000 OA
ATOM     16  N   UNL     1       2.626   7.386  18.717  0.00  0.00    +0.000 N 
ATOM     17  H   UNL     1       2.549   6.847  19.570  0.00  0.00    +0.000 HD
BRANCH  16  18
ATOM     18  C   UNL     1       1.812   8.588  18.563  0.00  0.00    +0.000 C 
BRANCH  18  19
ATOM     19  C   UNL     1       1.191   8.986  19.874  0.00  0.00    +0.000 A 
ATOM     20  C   UNL     1       1.278   8.348  21.100  0.00  0.00    +0.000 A 
ATOM     21  C   UNL     1       0.556   9.024  22.131  0.00  0.00    +0.000 A 
ATOM     22  C   UNL     1      -0.057  10.166  21.664  0.00  0.00    +0.000 A 
ATOM     23  S   UNL     1       0.262  10.427  20.002  0.00  0.00    +0.000 S 
ENDBRANCH  18  19
ENDBRANCH  16  18
ENDBRANCH  13  14
ENDBRANCH   1  13
TORSDOF 6
ENDMDL
MODEL 7
REMARK VINA RESULT:      -6.5      2.319      2.675
REMARK  Name = 
REMARK  7 active torsions:
REMARK  status: ('A' for Active; 'I' for Inactive)
REMARK    1  A    between atoms: C_1  and  C_2
REMARK    2  A    between atoms: C_2  and  N_3
REMARK    3  A    between atoms: N_3  and  C_4
REMARK    4  A    between atoms: C_4  and  C_5
REMARK    5  A    between atoms: N_7  and  C_8
REMARK    6  A    between atoms: C_8  and  C_9
REMARK    7  A    between atoms: C_14  and  C_16
REMARK                            x       y       z     vdW  Elec       q    Type
REMARK                         _______ _______ _______ _____ _____    ______ ____
ROOT
ATOM      1  N   UNL     1       3.745   5.939  17.842  0.00  0.00    +0.000 N 
ATOM      2  C   UNL     1       4.154   4.910  18.728  0.00  0.00    +0.000 C 
ATOM      3  O   UNL     1       5.345   4.626  18.873  0.00  0.00    +0.000 OA
ENDROOT
BRANCH   2   4
ATOM      4  C   UNL     1       3.171   4.094  19.489  0.00  0.00    +0.000 A 
ATOM      5  C   UNL     1       2.901   4.442  20.812  0.00  0.00    +0.000 A 
ATOM      6  C   UNL     1       1.989   3.727  21.584  0.00  0.00    +0.000 A 
ATOM      7  C   UNL     1       1.224   2.724  21.013  0.00  0.00    +0.000 A 
ATOM      8  C   UNL     1       1.404   2.426  19.666  0.00  0.00    +0.000 A 
ATOM      9  C   UNL     1       2.388   3.085  18.906  0.00  0.00    +0.000 A 
ATOM     10 CL   UNL     1       2.568   2.570  17.268  0.00  0.00    +0.000 Cl
ENDBRANCH   2   4
BRANCH   1  12
ATOM     11  C   UNL     1       5.186   6.491  15.860  0.00  0.00    +0.000 C 
ATOM     12  C   UNL     1       4.834   6.780  17.320  0.00  0.00    +0.000 C 
ENDBRANCH   1  12
BRANCH   1  13
ATOM     13  C   UNL     1       2.394   6.537  17.825  0.00  0.00    +0.000 C 
BRANCH  13  14
ATOM     14  C   UNL     1       2.061   7.801  18.660  0.00  0.00    +0.000 C 
ATOM     15  O   UNL     1       2.204   7.787  19.886  0.00  0.00    +0.000 OA
ATOM     16  N   UNL     1       1.674   8.940  17.994  0.00  0.00    +0.000 N 
ATOM     17  H   UNL     1       1.554   8.897  16.990  0.00  0.00    +0.000 HD
BRANCH  16  18
ATOM     18  C   UNL     1       1.276  10.152  18.704  0.00  0.00    +0.000 C 
BRANCH  18  19
ATOM     19  C   UNL     1      -0.178  10.456  18.470  0.00  0.00    +0.000 A 
ATOM     20  C   UNL     1      -1.066   9.826  17.614  0.00  0.00    +0.000 A 
ATOM     21  C   UNL     1      -2.378  10.388  17.661  0.00  0.00    +0.000 A 
ATOM     22  C   UNL     1      -2.458  11.430  18.559  0.00  0.00    +0.000 A 
ATOM     23  S   UNL     1      -0.966  11.704  19.353  0.00  0.00    +0.000 S 
ENDBRANCH  18  19
ENDBRANCH  16  18
ENDBRANCH  13  14
ENDBRANCH   1  13
TORSDOF 6
ENDMDL
MODEL 8
REMARK VINA RESULT:      -6.5      3.237      6.378
REMARK  Name = 
REMARK  7 active torsions:
REMARK  status: ('A' for Active; 'I' for Inactive)
REMARK    1  A    between atoms: C_1  and  C_2
REMARK    2  A    between atoms: C_2  and  N_3
REMARK    3  A    between atoms: N_3  and  C_4
REMARK    4  A    between atoms: C_4  and  C_5
REMARK    5  A    between atoms: N_7  and  C_8
REMARK    6  A    between atoms: C_8  and  C_9
REMARK    7  A    between atoms: C_14  and  C_16
REMARK                            x       y       z     vdW  Elec       q    Type
REMARK                         _______ _______ _______ _____ _____    ______ ____
ROOT
ATOM      1  N   UNL     1       3.588   3.582  17.992  0.00  0.00    +0.000 N 
ATOM      2  C   UNL     1       2.352   4.267  18.110  0.00  0.00    +0.000 C 
ATOM      3  O   UNL     1       1.301   3.770  17.697  0.00  0.00    +0.000 OA
ENDROOT
BRANCH   2   4
ATOM      4  C   UNL     1       2.265   5.634  18.691  0.00  0.00    +0.000 A 
ATOM      5  C   UNL     1       2.241   6.724  17.823  0.00  0.00    +0.000 A 
ATOM      6  C   UNL     1       2.156   8.032  18.295  0.00  0.00    +0.000 A 
ATOM      7  C   UNL     1       1.960   8.277  19.643  0.00  0.00    +0.000 A 
ATOM      8  C   UNL     1       1.879   7.199  20.518  0.00  0.00    +0.000 A 
ATOM      9  C   UNL     1       2.055   5.881  20.057  0.00  0.00    +0.000 A 
ATOM     10 CL   UNL     1       2.013   4.635  21.252  0.00  0.00    +0.000 Cl
ENDBRANCH   2   4
BRANCH   1  12
ATOM     11  C   UNL     1       3.590   1.186  18.746  0.00  0.00    +0.000 C 
ATOM     12  C   UNL     1       3.480   2.172  17.583  0.00  0.00    +0.000 C 
ENDBRANCH   1  12
BRANCH   1  13
ATOM     13  C   UNL     1       4.823   3.961  18.708  0.00  0.00    +0.000 C 
BRANCH  13  14
ATOM     14  C   UNL     1       6.045   4.548  17.953  0.00  0.00    +0.000 C 
ATOM     15  O   UNL     1       7.059   4.871  18.578  0.00  0.00    +0.000 OA
ATOM     16  N   UNL     1       5.987   4.631  16.582  0.00  0.00    +0.000 N 
ATOM     17  H   UNL     1       5.127   4.371  16.116  0.00  0.00    +0.000 HD
BRANCH  16  18
ATOM     18  C   UNL     1       7.062   5.233  15.799  0.00  0.00    +0.000 C 
BRANCH  18  19
ATOM     19  C   UNL     1       6.980   4.806  14.359  0.00  0.00    +0.000 A 
ATOM     20  C   UNL     1       7.798   5.166  13.303  0.00  0.00    +0.000 A 
ATOM     21  C   UNL     1       7.416   4.555  12.069  0.00  0.00    +0.000 A 
ATOM     22  C   UNL     1       6.318   3.737  12.220  0.00  0.00    +0.000 A 
ATOM     23  S   UNL     1       5.776   3.692  13.843  0.00  0.00    +0.000 S 
ENDBRANCH  18  19
ENDBRANCH  16  18
ENDBRANCH  13  14
ENDBRANCH   1  13
TORSDOF 6
ENDMDL
MODEL 9
REMARK VINA RESULT:      -6.5      2.174      4.001
REMARK  Name = 
REMARK  7 active torsions:
REMARK  status: ('A' for Active; 'I' for Inactive)
REMARK    1  A    between atoms: C_1  and  C_2
REMARK    2  A    between atoms: C_2  and  N_3
REMARK    3  A    between atoms: N_3  and  C_4
REMARK    4  A    between atoms: C_4  and  C_5
REMARK    5  A    between atoms: N_7  and  C_8
REMARK    6  A    between atoms: C_8  and  C_9
REMARK    7  A    between atoms: C_14  and  C_16
REMARK                            x       y       z     vdW  Elec       q    Type
REMARK                         _______ _______ _______ _____ _____    ______ ____
ROOT
ATOM      1  N   UNL     1       2.780   4.648  18.282  0.00  0.00    +0.000 N 
ATOM      2  C   UNL     1       4.039   4.158  17.850  0.00  0.00    +0.000 C 
ATOM      3  O   UNL     1       4.156   3.027  17.372  0.00  0.00    +0.000 OA
ENDROOT
BRANCH   2   4
ATOM      4  C   UNL     1       5.284   4.959  17.993  0.00  0.00    +0.000 A 
ATOM      5  C   UNL     1       5.973   4.903  19.204  0.00  0.00    +0.000 A 
ATOM      6  C   UNL     1       7.148   5.621  19.409  0.00  0.00    +0.000 A 
ATOM      7  C   UNL     1       7.736   6.313  18.365  0.00  0.00    +0.000 A 
ATOM      8  C   UNL     1       7.119   6.300  17.118  0.00  0.00    +0.000 A 
ATOM      9  C   UNL     1       5.886   5.650  16.930  0.00  0.00    +0.000 A 
ATOM     10 CL   UNL     1       5.182   5.773  15.358  0.00  0.00    +0.000 Cl
ENDBRANCH   2   4
BRANCH   1  12
ATOM     11  C   UNL     1       1.050   2.992  19.039  0.00  0.00    +0.000 C 
ATOM     12  C   UNL     1       1.624   3.824  17.892  0.00  0.00    +0.000 C 
ENDBRANCH   1  12
BRANCH   1  13
ATOM     13  C   UNL     1       2.497   6.065  18.586  0.00  0.00    +0.000 C 
BRANCH  13  14
ATOM     14  C   UNL     1       2.153   6.528  20.026  0.00  0.00    +0.000 C 
ATOM     15  O   UNL     1       2.122   5.707  20.948  0.00  0.00    +0.000 OA
ATOM     16  N   UNL     1       1.954   7.870  20.251  0.00  0.00    +0.000 N 
ATOM     17  H   UNL     1       1.972   8.502  19.461  0.00  0.00    +0.000 HD
BRANCH  16  18
ATOM     18  C   UNL     1       1.559   8.384  21.559  0.00  0.00    +0.000 C 
BRANCH  18  19
ATOM     19  C   UNL     1       0.625   9.554  21.415  0.00  0.00    +0.000 A 
ATOM     20  C   UNL     1      -0.128  10.184  22.391  0.00  0.00    +0.000 A 
ATOM     21  C   UNL     1      -0.901  11.273  21.881  0.00  0.00    +0.000 A 
ATOM     22  C   UNL     1      -0.709  11.448  20.528  0.00  0.00    +0.000 A 
ATOM     23  S   UNL     1       0.413  10.323  19.892  0.00  0.00    +0.000 S 
ENDBRANCH  18  19
ENDBRANCH  16  18
ENDBRANCH  13  14
ENDBRANCH   1  13
TORSDOF 6
ENDMDL
