MODEL 1
REMARK VINA RESULT:      -9.0      0.000      0.000
REMARK  Name = 
REMARK  8 active torsions:
REMARK  status: ('A' for Active; 'I' for Inactive)
REMARK    1  A    between atoms: C_1  and  C_2
REMARK    2  A    between atoms: C_4  and  C_5
REMARK    3  A    between atoms: C_5  and  N_6
REMARK    4  A    between atoms: N_6  and  C_7
REMARK    5  A    between atoms: C_8  and  C_10
REMARK    6  A    between atoms: C_14  and  C_15
REMARK    7  A    between atoms: C_17  and  C_18
REMARK    8  A    between atoms: C_20  and  C_21
REMARK                            x       y       z     vdW  Elec       q    Type
REMARK                         _______ _______ _______ _____ _____    ______ ____
ROOT
ATOM      1  C   UNL     1       4.050   5.049  19.246  0.00  0.00    +0.000 A 
ATOM      2  C   UNL     1       3.377   3.915  19.705  0.00  0.00    +0.000 A 
ATOM      3  C   UNL     1       2.089   4.027  20.219  0.00  0.00    +0.000 A 
ATOM      4  C   UNL     1       1.500   5.283  20.350  0.00  0.00    +0.000 A 
ATOM      5  C   UNL     1       2.185   6.460  20.003  0.00  0.00    +0.000 A 
ATOM      6  C   UNL     1       3.465   6.317  19.432  0.00  0.00    +0.000 A 
ENDROOT
BRANCH   5   7
ATOM      7  C   UNL     1       1.589   7.793  20.277  0.00  0.00    +0.000 A 
ATOM      8  C   UNL     1       1.014   8.080  21.525  0.00  0.00    +0.000 A 
ATOM      9  C   UNL     1       0.449   9.326  21.769  0.00  0.00    +0.000 A 
ATOM     10  C   UNL     1      -0.191   9.632  23.091  0.00  0.00    +0.000 C 
ATOM     11  N   UNL     1       0.447  10.312  20.848  0.00  0.00    +0.000 NA
ATOM     12  C   UNL     1       1.018  10.057  19.648  0.00  0.00    +0.000 A 
ATOM     13  C   UNL     1       1.032  11.175  18.650  0.00  0.00    +0.000 C 
ATOM     14  C   UNL     1       1.583   8.823  19.328  0.00  0.00    +0.000 A 
ENDBRANCH   5   7
BRANCH   1  17
ATOM     15  N   UNL     1       5.771   5.725  17.537  0.00  0.00    +0.000 N 
ATOM     16  C   UNL     1       4.972   6.774  16.917  0.00  0.00    +0.000 C 
ATOM     17  C   UNL     1       5.422   4.977  18.665  0.00  0.00    +0.000 C 
ATOM     18  O   UNL     1       6.228   4.234  19.227  0.00  0.00    +0.000 OA
BRANCH  15  19
ATOM     19  C   UNL     1       7.056   5.440  16.904  0.00  0.00    +0.000 C 
BRANCH  19  23
ATOM     20  C   UNL     1       5.571   3.332  12.504  0.00  0.00    +0.000 C 
ATOM     21  C   UNL     1       6.280   4.023  13.604  0.00  0.00    +0.000 A 
ATOM     22  C   UNL     1       6.020   3.959  14.990  0.00  0.00    +0.000 A 
ATOM     23  C   UNL     1       6.882   4.875  15.544  0.00  0.00    +0.000 A 
ATOM     24  O   UNL     1       7.661   5.401  14.559  0.00  0.00    +0.000 OA
ATOM     25  N   UNL     1       7.289   4.864  13.338  0.00  0.00    +0.000 NA
ENDBRANCH  19  23
ENDBRANCH  15  19
ENDBRANCH   1  17
TORSDOF 4
ENDMDL
MODEL 2
REMARK VINA RESULT:      -9.0      0.307      1.693
REMARK  Name = 
REMARK  8 active torsions:
REMARK  status: ('A' for Active; 'I' for Inactive)
REMARK    1  A    between atoms: C_1  and  C_2
REMARK    2  A    between atoms: C_4  and  C_5
REMARK    3  A    between atoms: C_5  and  N_6
REMARK    4  A    between atoms: N_6  and  C_7
REMARK    5  A    between atoms: C_8  and  C_10
REMARK    6  A    between atoms: C_14  and  C_15
REMARK    7  A    between atoms: C_17  and  C_18
REMARK    8  A    between atoms: C_20  and  C_21
REMARK                            x       y       z     vdW  Elec       q    Type
REMARK                         _______ _______ _______ _____ _____    ______ ____
ROOT
ATOM      1  C   UNL     1       3.804   4.885  19.374  0.00  0.00    +0.000 A 
ATOM      2  C   UNL     1       3.013   3.787  19.719  0.00  0.00    +0.000 A 
ATOM      3  C   UNL     1       1.701   3.977  20.142  0.00  0.00    +0.000 A 
ATOM      4  C   UNL     1       1.201   5.268  20.299  0.00  0.00    +0.000 A 
ATOM      5  C   UNL     1       1.999   6.402  20.069  0.00  0.00    +0.000 A 
ATOM      6  C   UNL     1       3.305   6.185  19.586  0.00  0.00    +0.000 A 
ENDROOT
BRANCH   5   7
ATOM      7  C   UNL     1       1.488   7.763  20.372  0.00  0.00    +0.000 A 
ATOM      8  C   UNL     1       1.513   8.774  19.398  0.00  0.00    +0.000 A 
ATOM      9  C   UNL     1       1.042  10.047  19.693  0.00  0.00    +0.000 A 
ATOM     10  C   UNL     1       1.089  11.139  18.666  0.00  0.00    +0.000 C 
ATOM     11  N   UNL     1       0.523  10.365  20.897  0.00  0.00    +0.000 NA
ATOM     12  C   UNL     1       0.472   9.395  21.839  0.00  0.00    +0.000 A 
ATOM     13  C   UNL     1      -0.136   9.761  23.160  0.00  0.00    +0.000 C 
ATOM     14  C   UNL     1       0.946   8.103  21.619  0.00  0.00    +0.000 A 
ENDBRANCH   5   7
BRANCH   1  17
ATOM     15  N   UNL     1       5.694   5.491  17.824  0.00  0.00    +0.000 N 
ATOM     16  C   UNL     1       5.021   6.618  17.190  0.00  0.00    +0.000 C 
ATOM     17  C   UNL     1       5.207   4.732  18.892  0.00  0.00    +0.000 C 
ATOM     18  O   UNL     1       5.913   3.911  19.481  0.00  0.00    +0.000 OA
BRANCH  15  19
ATOM     19  C   UNL     1       7.000   5.134  17.276  0.00  0.00    +0.000 C 
BRANCH  19  23
ATOM     20  C   UNL     1       5.839   3.499  12.587  0.00  0.00    +0.000 C 
ATOM     21  C   UNL     1       6.435   4.125  13.789  0.00  0.00    +0.000 A 
ATOM     22  C   UNL     1       6.206   3.807  15.145  0.00  0.00    +0.000 A 
ATOM     23  C   UNL     1       6.907   4.761  15.844  0.00  0.00    +0.000 A 
ATOM     24  O   UNL     1       7.575   5.554  14.961  0.00  0.00    +0.000 OA
ATOM     25  N   UNL     1       7.284   5.153  13.668  0.00  0.00    +0.000 NA
ENDBRANCH  19  23
ENDBRANCH  15  19
ENDBRANCH   1  17
TORSDOF 4
ENDMDL
MODEL 3
REMARK VINA RESULT:      -8.3      1.099      2.112
REMARK  Name = 
REMARK  8 active torsions:
REMARK  status: ('A' for Active; 'I' for Inactive)
REMARK    1  A    between atoms: C_1  and  C_2
REMARK    2  A    between atoms: C_4  and  C_5
REMARK    3  A    between atoms: C_5  and  N_6
REMARK    4  A    between atoms: N_6  and  C_7
REMARK    5  A    between atoms: C_8  and  C_10
REMARK    6  A    between atoms: C_14  and  C_15
REMARK    7  A    between atoms: C_17  and  C_18
REMARK    8  A    between atoms: C_20  and  C_21
REMARK                            x       y       z     vdW  Elec       q    Type
REMARK                         _______ _______ _______ _____ _____    ______ ____
ROOT
ATOM      1  C   UNL     1       3.790   5.986  18.235  0.00  0.00    +0.000 A 
ATOM      2  C   UNL     1       3.554   4.778  18.895  0.00  0.00    +0.000 A 
ATOM      3  C   UNL     1       2.551   4.691  19.855  0.00  0.00    +0.000 A 
ATOM      4  C   UNL     1       1.835   5.829  20.218  0.00  0.00    +0.000 A 
ATOM      5  C   UNL     1       2.116   7.089  19.659  0.00  0.00    +0.000 A 
ATOM      6  C   UNL     1       3.096   7.140  18.647  0.00  0.00    +0.000 A 
ENDROOT
BRANCH   5   7
ATOM      7  C   UNL     1       1.433   8.309  20.157  0.00  0.00    +0.000 A 
ATOM      8  C   UNL     1       1.215   9.407  19.310  0.00  0.00    +0.000 A 
ATOM      9  C   UNL     1       0.584  10.550  19.787  0.00  0.00    +0.000 A 
ATOM     10  C   UNL     1       0.369  11.736  18.896  0.00  0.00    +0.000 C 
ATOM     11  N   UNL     1       0.135  10.651  21.056  0.00  0.00    +0.000 NA
ATOM     12  C   UNL     1       0.319   9.593  21.878  0.00  0.00    +0.000 A 
ATOM     13  C   UNL     1      -0.212   9.715  23.274  0.00  0.00    +0.000 C 
ATOM     14  C   UNL     1       0.963   8.424  21.472  0.00  0.00    +0.000 A 
ENDBRANCH   5   7
BRANCH   1  17
ATOM     15  N   UNL     1       6.037   5.410  17.256  0.00  0.00    +0.000 N 
ATOM     16  C   UNL     1       6.347   4.340  18.196  0.00  0.00    +0.000 C 
ATOM     17  C   UNL     1       4.836   6.123  17.182  0.00  0.00    +0.000 C 
ATOM     18  O   UNL     1       4.592   6.888  16.248  0.00  0.00    +0.000 OA
BRANCH  15  19
ATOM     19  C   UNL     1       7.092   5.757  16.308  0.00  0.00    +0.000 C 
BRANCH  19  23
ATOM     20  C   UNL     1       5.688   3.086  12.196  0.00  0.00    +0.000 C 
ATOM     21  C   UNL     1       6.378   3.917  13.209  0.00  0.00    +0.000 A 
ATOM     22  C   UNL     1       6.091   4.035  14.586  0.00  0.00    +0.000 A 
ATOM     23  C   UNL     1       6.943   5.018  15.031  0.00  0.00    +0.000 A 
ATOM     24  O   UNL     1       7.741   5.411  14.000  0.00  0.00    +0.000 OA
ATOM     25  N   UNL     1       7.391   4.717  12.854  0.00  0.00    +0.000 NA
ENDBRANCH  19  23
ENDBRANCH  15  19
ENDBRANCH   1  17
TORSDOF 4
ENDMDL
MODEL 4
REMARK VINA RESULT:      -8.2      1.099      1.314
REMARK  Name = 
REMARK  8 active torsions:
REMARK  status: ('A' for Active; 'I' for Inactive)
REMARK    1  A    between atoms: C_1  and  C_2
REMARK    2  A    between atoms: C_4  and  C_5
REMARK    3  A    between atoms: C_5  and  N_6
REMARK    4  A    between atoms: N_6  and  C_7
REMARK    5  A    between atoms: C_8  and  C_10
REMARK    6  A    between atoms: C_14  and  C_15
REMARK    7  A    between atoms: C_17  and  C_18
REMARK    8  A    between atoms: C_20  and  C_21
REMARK                            x       y       z     vdW  Elec       q    Type
REMARK                         _______ _______ _______ _____ _____    ______ ____
ROOT
ATOM      1  C   UNL     1       3.780   6.024  18.308  0.00  0.00    +0.000 A 
ATOM      2  C   UNL     1       3.583   4.834  19.013  0.00  0.00    +0.000 A 
ATOM      3  C   UNL     1       2.589   4.755  19.984  0.00  0.00    +0.000 A 
ATOM      4  C   UNL     1       1.843   5.886  20.309  0.00  0.00    +0.000 A 
ATOM      5  C   UNL     1       2.086   7.131  19.702  0.00  0.00    +0.000 A 
ATOM      6  C   UNL     1       3.057   7.172  18.683  0.00  0.00    +0.000 A 
ENDROOT
BRANCH   5   7
ATOM      7  C   UNL     1       1.371   8.350  20.161  0.00  0.00    +0.000 A 
ATOM      8  C   UNL     1       0.909   8.457  21.482  0.00  0.00    +0.000 A 
ATOM      9  C   UNL     1       0.232   9.597  21.900  0.00  0.00    +0.000 A 
ATOM     10  C   UNL     1      -0.287   9.709  23.302  0.00  0.00    +0.000 C 
ATOM     11  N   UNL     1       0.012  10.647  21.082  0.00  0.00    +0.000 NA
ATOM     12  C   UNL     1       0.471  10.567  19.812  0.00  0.00    +0.000 A 
ATOM     13  C   UNL     1       0.242  11.756  18.929  0.00  0.00    +0.000 C 
ATOM     14  C   UNL     1       1.138   9.446  19.320  0.00  0.00    +0.000 A 
ENDBRANCH   5   7
BRANCH   1  17
ATOM     15  N   UNL     1       6.025   5.452  17.320  0.00  0.00    +0.000 N 
ATOM     16  C   UNL     1       6.355   4.404  18.278  0.00  0.00    +0.000 C 
ATOM     17  C   UNL     1       4.817   6.151  17.243  0.00  0.00    +0.000 C 
ATOM     18  O   UNL     1       4.556   6.895  16.297  0.00  0.00    +0.000 OA
BRANCH  15  19
ATOM     19  C   UNL     1       7.068   5.791  16.356  0.00  0.00    +0.000 C 
BRANCH  19  23
ATOM     20  C   UNL     1       5.624   3.097  12.274  0.00  0.00    +0.000 C 
ATOM     21  C   UNL     1       6.330   3.920  13.282  0.00  0.00    +0.000 A 
ATOM     22  C   UNL     1       6.026   4.077  14.651  0.00  0.00    +0.000 A 
ATOM     23  C   UNL     1       6.910   5.033  15.091  0.00  0.00    +0.000 A 
ATOM     24  O   UNL     1       7.740   5.372  14.067  0.00  0.00    +0.000 OA
ATOM     25  N   UNL     1       7.381   4.670  12.929  0.00  0.00    +0.000 NA
ENDBRANCH  19  23
ENDBRANCH  15  19
ENDBRANCH   1  17
TORSDOF 4
ENDMDL
MODEL 5
REMARK VINA RESULT:      -8.1      3.709      5.913
REMARK  Name = 
REMARK  8 active torsions:
REMARK  status: ('A' for Active; 'I' for Inactive)
REMARK    1  A    between atoms: C_1  and  C_2
REMARK    2  A    between atoms: C_4  and  C_5
REMARK    3  A    between atoms: C_5  and  N_6
REMARK    4  A    between atoms: N_6  and  C_7
REMARK    5  A    between atoms: C_8  and  C_10
REMARK    6  A    between atoms: C_14  and  C_15
REMARK    7  A    between atoms: C_17  and  C_18
REMARK    8  A    between atoms: C_20  and  C_21
REMARK                            x       y       z     vdW  Elec       q    Type
REMARK                         _______ _______ _______ _____ _____    ______ ____
ROOT
ATOM      1  C   UNL     1       1.156   9.256  18.763  0.00  0.00    +0.000 A 
ATOM      2  C   UNL     1       1.316   9.894  19.996  0.00  0.00    +0.000 A 
ATOM      3  C   UNL     1       0.276  10.647  20.531  0.00  0.00    +0.000 A 
ATOM      4  C   UNL     1      -0.897  10.832  19.803  0.00  0.00    +0.000 A 
ATOM      5  C   UNL     1      -1.055  10.299  18.511  0.00  0.00    +0.000 A 
ATOM      6  C   UNL     1      -0.013   9.493  18.014  0.00  0.00    +0.000 A 
ENDROOT
BRANCH   5   7
ATOM      7  C   UNL     1      -2.258  10.621  17.701  0.00  0.00    +0.000 A 
ATOM      8  C   UNL     1      -2.353  10.210  16.362  0.00  0.00    +0.000 A 
ATOM      9  C   UNL     1      -3.477  10.524  15.607  0.00  0.00    +0.000 A 
ATOM     10  C   UNL     1      -3.575  10.111  14.169  0.00  0.00    +0.000 C 
ATOM     11  N   UNL     1      -4.524  11.205  16.119  0.00  0.00    +0.000 NA
ATOM     12  C   UNL     1      -4.455  11.589  17.415  0.00  0.00    +0.000 A 
ATOM     13  C   UNL     1      -5.641  12.318  17.972  0.00  0.00    +0.000 C 
ATOM     14  C   UNL     1      -3.350  11.326  18.223  0.00  0.00    +0.000 A 
ENDBRANCH   5   7
BRANCH   1  17
ATOM     15  N   UNL     1       2.698   7.266  18.797  0.00  0.00    +0.000 N 
ATOM     16  C   UNL     1       2.107   6.630  19.969  0.00  0.00    +0.000 C 
ATOM     17  C   UNL     1       2.231   8.419  18.158  0.00  0.00    +0.000 C 
ATOM     18  O   UNL     1       2.684   8.788  17.074  0.00  0.00    +0.000 OA
BRANCH  15  19
ATOM     19  C   UNL     1       3.891   6.623  18.253  0.00  0.00    +0.000 C 
BRANCH  19  23
ATOM     20  C   UNL     1       3.553   1.535  18.371  0.00  0.00    +0.000 C 
ATOM     21  C   UNL     1       3.832   2.967  18.620  0.00  0.00    +0.000 A 
ATOM     22  C   UNL     1       3.180   4.094  18.073  0.00  0.00    +0.000 A 
ATOM     23  C   UNL     1       3.903   5.167  18.537  0.00  0.00    +0.000 A 
ATOM     24  O   UNL     1       4.881   4.715  19.368  0.00  0.00    +0.000 OA
ATOM     25  N   UNL     1       4.836   3.332  19.428  0.00  0.00    +0.000 NA
ENDBRANCH  19  23
ENDBRANCH  15  19
ENDBRANCH   1  17
TORSDOF 4
ENDMDL
MODEL 6
REMARK VINA RESULT:      -7.9      3.969      6.211
REMARK  Name = 
REMARK  8 active torsions:
REMARK  status: ('A' for Active; 'I' for Inactive)
REMARK    1  A    between atoms: C_1  and  C_2
REMARK    2  A    between atoms: C_4  and  C_5
REMARK    3  A    between atoms: C_5  and  N_6
REMARK    4  A    between atoms: N_6  and  C_7
REMARK    5  A    between atoms: C_8  and  C_10
REMARK    6  A    between atoms: C_14  and  C_15
REMARK    7  A    between atoms: C_17  and  C_18
REMARK    8  A    between atoms: C_20  and  C_21
REMARK                            x       y       z     vdW  Elec       q    Type
REMARK                         _______ _______ _______ _____ _____    ______ ____
ROOT
ATOM      1  C   UNL     1       0.930   9.537  18.915  0.00  0.00    +0.000 A 
ATOM      2  C   UNL     1       1.118  10.353  20.032  0.00  0.00    +0.000 A 
ATOM      3  C   UNL     1       0.110  11.220  20.440  0.00  0.00    +0.000 A 
ATOM      4  C   UNL     1      -1.057  11.334  19.688  0.00  0.00    +0.000 A 
ATOM      5  C   UNL     1      -1.239  10.613  18.495  0.00  0.00    +0.000 A 
ATOM      6  C   UNL     1      -0.230   9.699  18.133  0.00  0.00    +0.000 A 
ENDROOT
BRANCH   5   7
ATOM      7  C   UNL     1      -2.431  10.850  17.640  0.00  0.00    +0.000 A 
ATOM      8  C   UNL     1      -2.475  10.371  16.321  0.00  0.00    +0.000 A 
ATOM      9  C   UNL     1      -3.589  10.607  15.524  0.00  0.00    +0.000 A 
ATOM     10  C   UNL     1      -3.634  10.121  14.106  0.00  0.00    +0.000 C 
ATOM     11  N   UNL     1      -4.673  11.272  15.975  0.00  0.00    +0.000 NA
ATOM     12  C   UNL     1      -4.653  11.720  17.252  0.00  0.00    +0.000 A 
ATOM     13  C   UNL     1      -5.879  12.430  17.743  0.00  0.00    +0.000 C 
ATOM     14  C   UNL     1      -3.561  11.538  18.099  0.00  0.00    +0.000 A 
ENDBRANCH   5   7
BRANCH   1  17
ATOM     15  N   UNL     1       2.363   7.493  19.247  0.00  0.00    +0.000 N 
ATOM     16  C   UNL     1       1.717   7.048  20.476  0.00  0.00    +0.000 C 
ATOM     17  C   UNL     1       1.971   8.574  18.452  0.00  0.00    +0.000 C 
ATOM     18  O   UNL     1       2.463   8.775  17.341  0.00  0.00    +0.000 OA
BRANCH  15  19
ATOM     19  C   UNL     1       3.530   6.725  18.822  0.00  0.00    +0.000 C 
BRANCH  19  23
ATOM     20  C   UNL     1       2.756   1.758  17.963  0.00  0.00    +0.000 C 
ATOM     21  C   UNL     1       2.738   3.238  17.977  0.00  0.00    +0.000 A 
ATOM     22  C   UNL     1       3.714   4.119  18.493  0.00  0.00    +0.000 A 
ATOM     23  C   UNL     1       3.151   5.367  18.362  0.00  0.00    +0.000 A 
ATOM     24  O   UNL     1       1.947   5.246  17.740  0.00  0.00    +0.000 OA
ATOM     25  N   UNL     1       1.686   3.909  17.492  0.00  0.00    +0.000 NA
ENDBRANCH  19  23
ENDBRANCH  15  19
ENDBRANCH   1  17
TORSDOF 4
ENDMDL
MODEL 7
REMARK VINA RESULT:      -7.7      3.988      9.379
REMARK  Name = 
REMARK  8 active torsions:
REMARK  status: ('A' for Active; 'I' for Inactive)
REMARK    1  A    between atoms: C_1  and  C_2
REMARK    2  A    between atoms: C_4  and  C_5
REMARK    3  A    between atoms: C_5  and  N_6
REMARK    4  A    between atoms: N_6  and  C_7
REMARK    5  A    between atoms: C_8  and  C_10
REMARK    6  A    between atoms: C_14  and  C_15
REMARK    7  A    between atoms: C_17  and  C_18
REMARK    8  A    between atoms: C_20  and  C_21
REMARK                            x       y       z     vdW  Elec       q    Type
REMARK                         _______ _______ _______ _____ _____    ______ ____
ROOT
ATOM      1  C   UNL     1       1.183   9.767  20.066  0.00  0.00    +0.000 A 
ATOM      2  C   UNL     1       1.352  10.405  18.835  0.00  0.00    +0.000 A 
ATOM      3  C   UNL     1       1.743   9.673  17.718  0.00  0.00    +0.000 A 
ATOM      4  C   UNL     1       2.043   8.319  17.843  0.00  0.00    +0.000 A 
ATOM      5  C   UNL     1       1.993   7.663  19.086  0.00  0.00    +0.000 A 
ATOM      6  C   UNL     1       1.539   8.410  20.191  0.00  0.00    +0.000 A 
ENDROOT
BRANCH   5   7
ATOM      7  C   UNL     1       2.446   6.255  19.220  0.00  0.00    +0.000 A 
ATOM      8  C   UNL     1       2.095   5.491  20.344  0.00  0.00    +0.000 A 
ATOM      9  C   UNL     1       2.532   4.177  20.466  0.00  0.00    +0.000 A 
ATOM     10  C   UNL     1       2.183   3.362  21.675  0.00  0.00    +0.000 C 
ATOM     11  N   UNL     1       3.279   3.572  19.518  0.00  0.00    +0.000 NA
ATOM     12  C   UNL     1       3.606   4.290  18.418  0.00  0.00    +0.000 A 
ATOM     13  C   UNL     1       4.411   3.591  17.364  0.00  0.00    +0.000 C 
ATOM     14  C   UNL     1       3.220   5.618  18.241  0.00  0.00    +0.000 A 
ENDBRANCH   5   7
BRANCH   1  17
ATOM     15  N   UNL     1      -0.256   9.990  22.121  0.00  0.00    +0.000 N 
ATOM     16  C   UNL     1      -0.838   8.656  22.050  0.00  0.00    +0.000 C 
ATOM     17  C   UNL     1       0.743  10.503  21.286  0.00  0.00    +0.000 C 
ATOM     18  O   UNL     1       1.301  11.575  21.524  0.00  0.00    +0.000 OA
BRANCH  15  19
ATOM     19  C   UNL     1      -0.778  10.863  23.169  0.00  0.00    +0.000 C 
BRANCH  19  23
ATOM     20  C   UNL     1      -4.425  13.390  20.655  0.00  0.00    +0.000 C 
ATOM     21  C   UNL     1      -3.560  12.727  21.655  0.00  0.00    +0.000 A 
ATOM     22  C   UNL     1      -2.209  12.338  21.523  0.00  0.00    +0.000 A 
ATOM     23  C   UNL     1      -1.930  11.664  22.688  0.00  0.00    +0.000 A 
ATOM     24  O   UNL     1      -3.023  11.711  23.498  0.00  0.00    +0.000 OA
ATOM     25  N   UNL     1      -4.048  12.383  22.854  0.00  0.00    +0.000 NA
ENDBRANCH  19  23
ENDBRANCH  15  19
ENDBRANCH   1  17
TORSDOF 4
ENDMDL
MODEL 8
REMARK VINA RESULT:      -7.7      3.862      6.365
REMARK  Name = 
REMARK  8 active torsions:
REMARK  status: ('A' for Active; 'I' for Inactive)
REMARK    1  A    between atoms: C_1  and  C_2
REMARK    2  A    between atoms: C_4  and  C_5
REMARK    3  A    between atoms: C_5  and  N_6
REMARK    4  A    between atoms: N_6  and  C_7
REMARK    5  A    between atoms: C_8  and  C_10
REMARK    6  A    between atoms: C_14  and  C_15
REMARK    7  A    between atoms: C_17  and  C_18
REMARK    8  A    between atoms: C_20  and  C_21
REMARK                            x       y       z     vdW  Elec       q    Type
REMARK                         _______ _______ _______ _____ _____    ______ ____
ROOT
ATOM      1  C   UNL     1       0.572  10.104  20.095  0.00  0.00    +0.000 A 
ATOM      2  C   UNL     1       1.125  11.347  20.409  0.00  0.00    +0.000 A 
ATOM      3  C   UNL     1       0.479  12.516  20.019  0.00  0.00    +0.000 A 
ATOM      4  C   UNL     1      -0.677  12.448  19.246  0.00  0.00    +0.000 A 
ATOM      5  C   UNL     1      -1.205  11.218  18.814  0.00  0.00    +0.000 A 
ATOM      6  C   UNL     1      -0.567  10.047  19.270  0.00  0.00    +0.000 A 
ENDROOT
BRANCH   5   7
ATOM      7  C   UNL     1      -2.360  11.175  17.881  0.00  0.00    +0.000 A 
ATOM      8  C   UNL     1      -2.220  10.642  16.590  0.00  0.00    +0.000 A 
ATOM      9  C   UNL     1      -3.302  10.614  15.719  0.00  0.00    +0.000 A 
ATOM     10  C   UNL     1      -3.155  10.070  14.329  0.00  0.00    +0.000 C 
ATOM     11  N   UNL     1      -4.525  11.065  16.070  0.00  0.00    +0.000 NA
ATOM     12  C   UNL     1      -4.680  11.562  17.319  0.00  0.00    +0.000 A 
ATOM     13  C   UNL     1      -6.052  12.030  17.700  0.00  0.00    +0.000 C 
ATOM     14  C   UNL     1      -3.632  11.639  18.237  0.00  0.00    +0.000 A 
ENDBRANCH   5   7
BRANCH   1  17
ATOM     15  N   UNL     1       1.902   8.026  19.592  0.00  0.00    +0.000 N 
ATOM     16  C   UNL     1       2.255   8.393  18.226  0.00  0.00    +0.000 C 
ATOM     17  C   UNL     1       1.214   8.823  20.511  0.00  0.00    +0.000 C 
ATOM     18  O   UNL     1       1.111   8.506  21.697  0.00  0.00    +0.000 OA
BRANCH  15  19
ATOM     19  C   UNL     1       2.315   6.693  20.024  0.00  0.00    +0.000 C 
BRANCH  19  23
ATOM     20  C   UNL     1       4.844   3.997  16.510  0.00  0.00    +0.000 C 
ATOM     21  C   UNL     1       3.837   4.659  17.369  0.00  0.00    +0.000 A 
ATOM     22  C   UNL     1       4.019   5.742  18.257  0.00  0.00    +0.000 A 
ATOM     23  C   UNL     1       2.805   5.878  18.885  0.00  0.00    +0.000 A 
ATOM     24  O   UNL     1       1.929   4.981  18.355  0.00  0.00    +0.000 OA
ATOM     25  N   UNL     1       2.573   4.216  17.397  0.00  0.00    +0.000 NA
ENDBRANCH  19  23
ENDBRANCH  15  19
ENDBRANCH   1  17
TORSDOF 4
ENDMDL
MODEL 9
REMARK VINA RESULT:      -7.6      4.094      9.492
REMARK  Name = 
REMARK  8 active torsions:
REMARK  status: ('A' for Active; 'I' for Inactive)
REMARK    1  A    between atoms: C_1  and  C_2
REMARK    2  A    between atoms: C_4  and  C_5
REMARK    3  A    between atoms: C_5  and  N_6
REMARK    4  A    between atoms: N_6  and  C_7
REMARK    5  A    between atoms: C_8  and  C_10
REMARK    6  A    between atoms: C_14  and  C_15
REMARK    7  A    between atoms: C_17  and  C_18
REMARK    8  A    between atoms: C_20  and  C_21
REMARK                            x       y       z     vdW  Elec       q    Type
REMARK                         _______ _______ _______ _____ _____    ______ ____
ROOT
ATOM      1  C   UNL     1       0.937   9.747  20.205  0.00  0.00    +0.000 A 
ATOM      2  C   UNL     1       1.241  10.381  18.998  0.00  0.00    +0.000 A 
ATOM      3  C   UNL     1       1.828   9.663  17.961  0.00  0.00    +0.000 A 
ATOM      4  C   UNL     1       2.186   8.331  18.153  0.00  0.00    +0.000 A 
ATOM      5  C   UNL     1       2.000   7.687  19.389  0.00  0.00    +0.000 A 
ATOM      6  C   UNL     1       1.352   8.416  20.405  0.00  0.00    +0.000 A 
ENDROOT
BRANCH   5   7
ATOM      7  C   UNL     1       2.512   6.310  19.612  0.00  0.00    +0.000 A 
ATOM      8  C   UNL     1       3.684   5.868  18.977  0.00  0.00    +0.000 A 
ATOM      9  C   UNL     1       4.151   4.576  19.182  0.00  0.00    +0.000 A 
ATOM     10  C   UNL     1       5.387   4.088  18.488  0.00  0.00    +0.000 C 
ATOM     11  N   UNL     1       3.530   3.705  20.005  0.00  0.00    +0.000 NA
ATOM     12  C   UNL     1       2.411   4.124  20.641  0.00  0.00    +0.000 A 
ATOM     13  C   UNL     1       1.753   3.152  21.573  0.00  0.00    +0.000 C 
ATOM     14  C   UNL     1       1.875   5.400  20.464  0.00  0.00    +0.000 A 
ENDBRANCH   5   7
BRANCH   1  17
ATOM     15  N   UNL     1      -0.775  11.352  21.120  0.00  0.00    +0.000 N 
ATOM     16  C   UNL     1      -1.498  11.539  19.868  0.00  0.00    +0.000 C 
ATOM     17  C   UNL     1       0.287  10.468  21.337  0.00  0.00    +0.000 C 
ATOM     18  O   UNL     1       0.725  10.245  22.467  0.00  0.00    +0.000 OA
BRANCH  15  19
ATOM     19  C   UNL     1      -1.214  12.175  22.243  0.00  0.00    +0.000 C 
BRANCH  19  23
ATOM     20  C   UNL     1       1.512  16.446  21.665  0.00  0.00    +0.000 C 
ATOM     21  C   UNL     1       0.715  15.301  22.158  0.00  0.00    +0.000 A 
ATOM     22  C   UNL     1       0.469  14.066  21.520  0.00  0.00    +0.000 A 
ATOM     23  C   UNL     1      -0.419  13.423  22.349  0.00  0.00    +0.000 A 
ATOM     24  O   UNL     1      -0.634  14.193  23.450  0.00  0.00    +0.000 OA
ATOM     25  N   UNL     1       0.082  15.373  23.336  0.00  0.00    +0.000 NA
ENDBRANCH  19  23
ENDBRANCH  15  19
ENDBRANCH   1  17
TORSDOF 4
ENDMDL
