MODEL 1
REMARK VINA RESULT:      -8.4      0.000      0.000
REMARK  Name = 
REMARK  3 active torsions:
REMARK  status: ('A' for Active; 'I' for Inactive)
REMARK    1  A    between atoms: C_10  and  N_11
REMARK    2  A    between atoms: N_11  and  C_12
REMARK    3  A    between atoms: C_12  and  C_13
REMARK                            x       y       z     vdW  Elec       q    Type
REMARK                         _______ _______ _______ _____ _____    ______ ____
ROOT
ATOM      1  N   UNL     1       2.674   5.359  18.478  0.00  0.00    +0.000 NA
ATOM      2  H   UNL     1       2.026   4.609  18.722  0.00  0.00    +0.000 HD
ENDROOT
BRANCH   1  12
ATOM      3  C   UNL     1       6.434   3.682  13.194  0.00  0.00    +0.000 A 
ATOM      4  C   UNL     1       7.363   4.632  12.833  0.00  0.00    +0.000 A 
ATOM      5  N   UNL     1       7.820   5.552  13.701  0.00  0.00    +0.000 NA
ATOM      6  N   UNL     1       7.365   5.544  14.998  0.00  0.00    +0.000 NA
ATOM      7  C   UNL     1       6.452   4.637  15.407  0.00  0.00    +0.000 A 
ATOM      8  N   UNL     1       5.984   4.591  16.737  0.00  0.00    +0.000 N 
ATOM      9  C   UNL     1       6.901   5.198  17.703  0.00  0.00    +0.000 C 
ATOM     10  C   UNL     1       6.417   4.822  19.104  0.00  0.00    +0.000 C 
ATOM     11  C   UNL     1       4.972   5.274  19.345  0.00  0.00    +0.000 C 
ATOM     12  C   UNL     1       4.019   4.791  18.229  0.00  0.00    +0.000 C 
ATOM     13  C   UNL     1       4.622   5.136  16.837  0.00  0.00    +0.000 C 
ATOM     14  C   UNL     1       5.970   3.690  14.504  0.00  0.00    +0.000 A 
ENDBRANCH   1  12
BRANCH   1  15
ATOM     15  C   UNL     1       2.696   6.328  19.584  0.00  0.00    +0.000 C 
BRANCH  15  16
ATOM     16  C   UNL     1       2.181   7.705  19.223  0.00  0.00    +0.000 A 
ATOM     17  C   UNL     1       2.532   8.331  18.017  0.00  0.00    +0.000 A 
ATOM     18  C   UNL     1       2.061   9.614  17.718  0.00  0.00    +0.000 A 
ATOM     19  C   UNL     1       1.249  10.293  18.625  0.00  0.00    +0.000 A 
ATOM     20  C   UNL     1       0.923   9.702  19.845  0.00  0.00    +0.000 A 
ATOM     21  C   UNL     1       1.374   8.408  20.137  0.00  0.00    +0.000 A 
ATOM     22  O   UNL     1       1.078   7.786  21.330  0.00  0.00    +0.000 OA
ATOM     23  C   UNL     1      -0.017   8.411  22.004  0.00  0.00    +0.000 C 
ATOM     24  C   UNL     1       0.167   9.916  22.025  0.00  0.00    +0.000 C 
ATOM     25  O   UNL     1       0.148  10.447  20.697  0.00  0.00    +0.000 OA
ENDBRANCH  15  16
ENDBRANCH   1  15
TORSDOF 3
ENDMDL
MODEL 2
REMARK VINA RESULT:      -8.1      2.866      4.188
REMARK  Name = 
REMARK  3 active torsions:
REMARK  status: ('A' for Active; 'I' for Inactive)
REMARK    1  A    between atoms: C_10  and  N_11
REMARK    2  A    between atoms: N_11  and  C_12
REMARK    3  A    between atoms: C_12  and  C_13
REMARK                            x       y       z     vdW  Elec       q    Type
REMARK                         _______ _______ _______ _____ _____    ______ ____
ROOT
ATOM      1  N   UNL     1       3.595   6.573  18.269  0.00  0.00    +0.000 NA
ATOM      2  H   UNL     1       3.639   7.416  17.696  0.00  0.00    +0.000 HD
ENDROOT
BRANCH   1  12
ATOM      3  C   UNL     1       6.341   3.910  12.769  0.00  0.00    +0.000 A 
ATOM      4  C   UNL     1       7.436   4.594  12.293  0.00  0.00    +0.000 A 
ATOM      5  N   UNL     1       8.180   5.392  13.080  0.00  0.00    +0.000 NA
ATOM      6  N   UNL     1       7.857   5.524  14.409  0.00  0.00    +0.000 NA
ATOM      7  C   UNL     1       6.791   4.878  14.931  0.00  0.00    +0.000 A 
ATOM      8  N   UNL     1       6.448   4.977  16.295  0.00  0.00    +0.000 N 
ATOM      9  C   UNL     1       7.568   5.360  17.156  0.00  0.00    +0.000 C 
ATOM     10  C   UNL     1       7.137   5.144  18.607  0.00  0.00    +0.000 C 
ATOM     11  C   UNL     1       5.873   5.943  18.946  0.00  0.00    +0.000 C 
ATOM     12  C   UNL     1       4.734   5.686  17.935  0.00  0.00    +0.000 C 
ATOM     13  C   UNL     1       5.274   5.843  16.484  0.00  0.00    +0.000 C 
ATOM     14  C   UNL     1       6.013   4.060  14.112  0.00  0.00    +0.000 A 
ENDBRANCH   1  12
BRANCH   1  15
ATOM     15  C   UNL     1       2.307   5.910  18.021  0.00  0.00    +0.000 C 
BRANCH  15  16
ATOM     16  C   UNL     1       2.328   4.408  18.205  0.00  0.00    +0.000 A 
ATOM     17  C   UNL     1       2.435   3.532  17.113  0.00  0.00    +0.000 A 
ATOM     18  C   UNL     1       2.430   2.147  17.308  0.00  0.00    +0.000 A 
ATOM     19  C   UNL     1       2.298   1.620  18.591  0.00  0.00    +0.000 A 
ATOM     20  C   UNL     1       2.149   2.474  19.683  0.00  0.00    +0.000 A 
ATOM     21  C   UNL     1       2.179   3.861  19.493  0.00  0.00    +0.000 A 
ATOM     22  O   UNL     1       2.034   4.743  20.542  0.00  0.00    +0.000 OA
ATOM     23  C   UNL     1       2.259   4.115  21.806  0.00  0.00    +0.000 C 
ATOM     24  C   UNL     1       1.503   2.802  21.885  0.00  0.00    +0.000 C 
ATOM     25  O   UNL     1       1.993   1.878  20.909  0.00  0.00    +0.000 OA
ENDBRANCH  15  16
ENDBRANCH   1  15
TORSDOF 3
ENDMDL
MODEL 3
REMARK VINA RESULT:      -8.0      1.118      2.059
REMARK  Name = 
REMARK  3 active torsions:
REMARK  status: ('A' for Active; 'I' for Inactive)
REMARK    1  A    between atoms: C_10  and  N_11
REMARK    2  A    between atoms: N_11  and  C_12
REMARK    3  A    between atoms: C_12  and  C_13
REMARK                            x       y       z     vdW  Elec       q    Type
REMARK                         _______ _______ _______ _____ _____    ______ ____
ROOT
ATOM      1  N   UNL     1       2.940   5.429  17.996  0.00  0.00    +0.000 NA
ATOM      2  H   UNL     1       2.597   5.091  18.895  0.00  0.00    +0.000 HD
ENDROOT
BRANCH   1  12
ATOM      3  C   UNL     1       6.513   3.716  12.594  0.00  0.00    +0.000 A 
ATOM      4  C   UNL     1       7.469   4.637  12.231  0.00  0.00    +0.000 A 
ATOM      5  N   UNL     1       7.981   5.521  13.105  0.00  0.00    +0.000 NA
ATOM      6  N   UNL     1       7.556   5.505  14.412  0.00  0.00    +0.000 NA
ATOM      7  C   UNL     1       6.618   4.625  14.824  0.00  0.00    +0.000 A 
ATOM      8  N   UNL     1       6.178   4.570  16.163  0.00  0.00    +0.000 N 
ATOM      9  C   UNL     1       7.139   5.121  17.120  0.00  0.00    +0.000 C 
ATOM     10  C   UNL     1       6.673   4.736  18.524  0.00  0.00    +0.000 C 
ATOM     11  C   UNL     1       5.252   5.238  18.807  0.00  0.00    +0.000 C 
ATOM     12  C   UNL     1       4.257   4.815  17.705  0.00  0.00    +0.000 C 
ATOM     13  C   UNL     1       4.841   5.165  16.306  0.00  0.00    +0.000 C 
ATOM     14  C   UNL     1       6.079   3.716  13.915  0.00  0.00    +0.000 A 
ENDBRANCH   1  12
BRANCH   1  15
ATOM     15  C   UNL     1       3.033   6.895  18.058  0.00  0.00    +0.000 C 
BRANCH  15  16
ATOM     16  C   UNL     1       2.233   7.529  19.176  0.00  0.00    +0.000 A 
ATOM     17  C   UNL     1       1.851   6.802  20.314  0.00  0.00    +0.000 A 
ATOM     18  C   UNL     1       1.092   7.404  21.322  0.00  0.00    +0.000 A 
ATOM     19  C   UNL     1       0.689   8.733  21.198  0.00  0.00    +0.000 A 
ATOM     20  C   UNL     1       1.025   9.459  20.056  0.00  0.00    +0.000 A 
ATOM     21  C   UNL     1       1.806   8.865  19.056  0.00  0.00    +0.000 A 
ATOM     22  O   UNL     1       2.160   9.542  17.910  0.00  0.00    +0.000 OA
ATOM     23  C   UNL     1       2.003  10.956  18.052  0.00  0.00    +0.000 C 
ATOM     24  C   UNL     1       0.654  11.277  18.667  0.00  0.00    +0.000 C 
ATOM     25  O   UNL     1       0.565  10.750  19.994  0.00  0.00    +0.000 OA
ENDBRANCH  15  16
ENDBRANCH   1  15
TORSDOF 3
ENDMDL
MODEL 4
REMARK VINA RESULT:      -8.0      1.838      2.711
REMARK  Name = 
REMARK  3 active torsions:
REMARK  status: ('A' for Active; 'I' for Inactive)
REMARK    1  A    between atoms: C_10  and  N_11
REMARK    2  A    between atoms: N_11  and  C_12
REMARK    3  A    between atoms: C_12  and  C_13
REMARK                            x       y       z     vdW  Elec       q    Type
REMARK                         _______ _______ _______ _____ _____    ______ ____
ROOT
ATOM      1  N   UNL     1       1.532   6.443  20.849  0.00  0.00    +0.000 NA
ATOM      2  H   UNL     1       1.696   6.340  21.851  0.00  0.00    +0.000 HD
ENDROOT
BRANCH   1  12
ATOM      3  C   UNL     1       5.701   5.270  15.738  0.00  0.00    +0.000 A 
ATOM      4  C   UNL     1       6.988   4.963  16.114  0.00  0.00    +0.000 A 
ATOM      5  N   UNL     1       7.280   4.464  17.328  0.00  0.00    +0.000 NA
ATOM      6  N   UNL     1       6.265   4.234  18.227  0.00  0.00    +0.000 NA
ATOM      7  C   UNL     1       4.983   4.519  17.913  0.00  0.00    +0.000 A 
ATOM      8  N   UNL     1       3.920   4.273  18.806  0.00  0.00    +0.000 N 
ATOM      9  C   UNL     1       4.220   3.251  19.809  0.00  0.00    +0.000 C 
ATOM     10  C   UNL     1       2.910   2.882  20.506  0.00  0.00    +0.000 C 
ATOM     11  C   UNL     1       2.241   4.107  21.140  0.00  0.00    +0.000 C 
ATOM     12  C   UNL     1       2.082   5.268  20.133  0.00  0.00    +0.000 C 
ATOM     13  C   UNL     1       3.434   5.524  19.408  0.00  0.00    +0.000 C 
ATOM     14  C   UNL     1       4.683   5.047  16.658  0.00  0.00    +0.000 A 
ENDBRANCH   1  12
BRANCH   1  15
ATOM     15  C   UNL     1       2.169   7.691  20.402  0.00  0.00    +0.000 C 
BRANCH  15  16
ATOM     16  C   UNL     1       1.200   8.771  19.972  0.00  0.00    +0.000 A 
ATOM     17  C   UNL     1       1.083   9.167  18.631  0.00  0.00    +0.000 A 
ATOM     18  C   UNL     1       0.197  10.184  18.264  0.00  0.00    +0.000 A 
ATOM     19  C   UNL     1      -0.570  10.830  19.232  0.00  0.00    +0.000 A 
ATOM     20  C   UNL     1      -0.437  10.478  20.574  0.00  0.00    +0.000 A 
ATOM     21  C   UNL     1       0.432   9.443  20.942  0.00  0.00    +0.000 A 
ATOM     22  O   UNL     1       0.597   9.062  22.255  0.00  0.00    +0.000 OA
ATOM     23  C   UNL     1      -0.467   9.532  23.088  0.00  0.00    +0.000 C 
ATOM     24  C   UNL     1      -0.744  10.998  22.813  0.00  0.00    +0.000 C 
ATOM     25  O   UNL     1      -1.202  11.182  21.470  0.00  0.00    +0.000 OA
ENDBRANCH  15  16
ENDBRANCH   1  15
TORSDOF 3
ENDMDL
MODEL 5
REMARK VINA RESULT:      -8.0      2.055      3.558
REMARK  Name = 
REMARK  3 active torsions:
REMARK  status: ('A' for Active; 'I' for Inactive)
REMARK    1  A    between atoms: C_10  and  N_11
REMARK    2  A    between atoms: N_11  and  C_12
REMARK    3  A    between atoms: C_12  and  C_13
REMARK                            x       y       z     vdW  Elec       q    Type
REMARK                         _______ _______ _______ _____ _____    ______ ____
ROOT
ATOM      1  N   UNL     1       1.560   6.557  21.119  0.00  0.00    +0.000 NA
ATOM      2  H   UNL     1       2.124   6.610  21.967  0.00  0.00    +0.000 HD
ENDROOT
BRANCH   1  12
ATOM      3  C   UNL     1       5.717   5.698  15.936  0.00  0.00    +0.000 A 
ATOM      4  C   UNL     1       6.974   5.258  16.283  0.00  0.00    +0.000 A 
ATOM      5  N   UNL     1       7.212   4.602  17.433  0.00  0.00    +0.000 NA
ATOM      6  N   UNL     1       6.170   4.341  18.291  0.00  0.00    +0.000 NA
ATOM      7  C   UNL     1       4.915   4.750  18.003  0.00  0.00    +0.000 A 
ATOM      8  N   UNL     1       3.823   4.478  18.853  0.00  0.00    +0.000 N 
ATOM      9  C   UNL     1       4.036   3.326  19.731  0.00  0.00    +0.000 C 
ATOM     10  C   UNL     1       2.693   2.972  20.370  0.00  0.00    +0.000 C 
ATOM     11  C   UNL     1       2.101   4.159  21.138  0.00  0.00    +0.000 C 
ATOM     12  C   UNL     1       2.038   5.438  20.274  0.00  0.00    +0.000 C 
ATOM     13  C   UNL     1       3.416   5.681  19.593  0.00  0.00    +0.000 C 
ATOM     14  C   UNL     1       4.672   5.441  16.816  0.00  0.00    +0.000 A 
ENDBRANCH   1  12
BRANCH   1  15
ATOM     15  C   UNL     1       1.661   7.844  20.414  0.00  0.00    +0.000 C 
BRANCH  15  16
ATOM     16  C   UNL     1       0.893   8.976  21.060  0.00  0.00    +0.000 A 
ATOM     17  C   UNL     1       0.270   8.827  22.308  0.00  0.00    +0.000 A 
ATOM     18  C   UNL     1      -0.455   9.882  22.873  0.00  0.00    +0.000 A 
ATOM     19  C   UNL     1      -0.580  11.091  22.190  0.00  0.00    +0.000 A 
ATOM     20  C   UNL     1      -0.002  11.243  20.931  0.00  0.00    +0.000 A 
ATOM     21  C   UNL     1       0.744  10.197  20.374  0.00  0.00    +0.000 A 
ATOM     22  O   UNL     1       1.331  10.301  19.133  0.00  0.00    +0.000 OA
ATOM     23  C   UNL     1       1.434  11.660  18.701  0.00  0.00    +0.000 C 
ATOM     24  C   UNL     1       0.118  12.383  18.916  0.00  0.00    +0.000 C 
ATOM     25  O   UNL     1      -0.198  12.451  20.310  0.00  0.00    +0.000 OA
ENDBRANCH  15  16
ENDBRANCH   1  15
TORSDOF 3
ENDMDL
MODEL 6
REMARK VINA RESULT:      -7.8      3.637      8.579
REMARK  Name = 
REMARK  3 active torsions:
REMARK  status: ('A' for Active; 'I' for Inactive)
REMARK    1  A    between atoms: C_10  and  N_11
REMARK    2  A    between atoms: N_11  and  C_12
REMARK    3  A    between atoms: C_12  and  C_13
REMARK                            x       y       z     vdW  Elec       q    Type
REMARK                         _______ _______ _______ _____ _____    ______ ____
ROOT
ATOM      1  N   UNL     1       2.507   6.709  20.464  0.00  0.00    +0.000 NA
ATOM      2  H   UNL     1       2.942   7.042  21.325  0.00  0.00    +0.000 HD
ENDROOT
BRANCH   1  12
ATOM      3  C   UNL     1      -1.413  11.535  22.959  0.00  0.00    +0.000 A 
ATOM      4  C   UNL     1      -0.857  12.794  22.921  0.00  0.00    +0.000 A 
ATOM      5  N   UNL     1       0.119  13.120  22.055  0.00  0.00    +0.000 NA
ATOM      6  N   UNL     1       0.574  12.180  21.162  0.00  0.00    +0.000 NA
ATOM      7  C   UNL     1       0.068  10.928  21.155  0.00  0.00    +0.000 A 
ATOM      8  N   UNL     1       0.500   9.949  20.237  0.00  0.00    +0.000 N 
ATOM      9  C   UNL     1       1.096  10.506  19.022  0.00  0.00    +0.000 C 
ATOM     10  C   UNL     1       1.244   9.369  18.010  0.00  0.00    +0.000 C 
ATOM     11  C   UNL     1       2.089   8.219  18.571  0.00  0.00    +0.000 C 
ATOM     12  C   UNL     1       1.577   7.739  19.946  0.00  0.00    +0.000 C 
ATOM     13  C   UNL     1       1.373   8.961  20.888  0.00  0.00    +0.000 C 
ATOM     14  C   UNL     1      -0.936  10.586  22.061  0.00  0.00    +0.000 A 
ENDBRANCH   1  12
BRANCH   1  15
ATOM     15  C   UNL     1       1.806   5.450  20.758  0.00  0.00    +0.000 C 
BRANCH  15  16
ATOM     16  C   UNL     1       1.960   4.382  19.696  0.00  0.00    +0.000 A 
ATOM     17  C   UNL     1       1.006   3.367  19.526  0.00  0.00    +0.000 A 
ATOM     18  C   UNL     1       1.183   2.379  18.552  0.00  0.00    +0.000 A 
ATOM     19  C   UNL     1       2.323   2.382  17.749  0.00  0.00    +0.000 A 
ATOM     20  C   UNL     1       3.300   3.360  17.931  0.00  0.00    +0.000 A 
ATOM     21  C   UNL     1       3.113   4.364  18.889  0.00  0.00    +0.000 A 
ATOM     22  O   UNL     1       4.052   5.349  19.104  0.00  0.00    +0.000 OA
ATOM     23  C   UNL     1       4.975   5.457  18.018  0.00  0.00    +0.000 C 
ATOM     24  C   UNL     1       5.479   4.084  17.616  0.00  0.00    +0.000 C 
ATOM     25  O   UNL     1       4.406   3.276  17.123  0.00  0.00    +0.000 OA
ENDBRANCH  15  16
ENDBRANCH   1  15
TORSDOF 3
ENDMDL
MODEL 7
REMARK VINA RESULT:      -7.8      3.011      4.540
REMARK  Name = 
REMARK  3 active torsions:
REMARK  status: ('A' for Active; 'I' for Inactive)
REMARK    1  A    between atoms: C_10  and  N_11
REMARK    2  A    between atoms: N_11  and  C_12
REMARK    3  A    between atoms: C_12  and  C_13
REMARK                            x       y       z     vdW  Elec       q    Type
REMARK                         _______ _______ _______ _____ _____    ______ ____
ROOT
ATOM      1  N   UNL     1       3.631   7.001  17.870  0.00  0.00    +0.000 NA
ATOM      2  H   UNL     1       3.556   7.663  17.097  0.00  0.00    +0.000 HD
ENDROOT
BRANCH   1  12
ATOM      3  C   UNL     1       6.025   3.652  12.584  0.00  0.00    +0.000 A 
ATOM      4  C   UNL     1       7.126   4.232  11.996  0.00  0.00    +0.000 A 
ATOM      5  N   UNL     1       7.936   5.072  12.664  0.00  0.00    +0.000 NA
ATOM      6  N   UNL     1       7.675   5.358  13.983  0.00  0.00    +0.000 NA
ATOM      7  C   UNL     1       6.607   4.820  14.611  0.00  0.00    +0.000 A 
ATOM      8  N   UNL     1       6.327   5.077  15.969  0.00  0.00    +0.000 N 
ATOM      9  C   UNL     1       7.499   5.496  16.741  0.00  0.00    +0.000 C 
ATOM     10  C   UNL     1       7.121   5.453  18.222  0.00  0.00    +0.000 C 
ATOM     11  C   UNL     1       5.907   6.341  18.522  0.00  0.00    +0.000 C 
ATOM     12  C   UNL     1       4.717   6.032  17.588  0.00  0.00    +0.000 C 
ATOM     13  C   UNL     1       5.200   6.010  16.109  0.00  0.00    +0.000 C 
ATOM     14  C   UNL     1       5.762   3.957  13.914  0.00  0.00    +0.000 A 
ENDBRANCH   1  12
BRANCH   1  15
ATOM     15  C   UNL     1       2.335   6.324  18.028  0.00  0.00    +0.000 C 
BRANCH  15  16
ATOM     16  C   UNL     1       2.301   5.280  19.123  0.00  0.00    +0.000 A 
ATOM     17  C   UNL     1       2.062   5.624  20.462  0.00  0.00    +0.000 A 
ATOM     18  C   UNL     1       2.058   4.643  21.459  0.00  0.00    +0.000 A 
ATOM     19  C   UNL     1       2.310   3.311  21.134  0.00  0.00    +0.000 A 
ATOM     20  C   UNL     1       2.589   2.958  19.814  0.00  0.00    +0.000 A 
ATOM     21  C   UNL     1       2.570   3.934  18.811  0.00  0.00    +0.000 A 
ATOM     22  O   UNL     1       2.841   3.632  17.495  0.00  0.00    +0.000 OA
ATOM     23  C   UNL     1       2.735   2.230  17.233  0.00  0.00    +0.000 C 
ATOM     24  C   UNL     1       3.467   1.438  18.299  0.00  0.00    +0.000 C 
ATOM     25  O   UNL     1       2.859   1.633  19.580  0.00  0.00    +0.000 OA
ENDBRANCH  15  16
ENDBRANCH   1  15
TORSDOF 3
ENDMDL
MODEL 8
REMARK VINA RESULT:      -7.6      3.971      8.940
REMARK  Name = 
REMARK  3 active torsions:
REMARK  status: ('A' for Active; 'I' for Inactive)
REMARK    1  A    between atoms: C_10  and  N_11
REMARK    2  A    between atoms: N_11  and  C_12
REMARK    3  A    between atoms: C_12  and  C_13
REMARK                            x       y       z     vdW  Elec       q    Type
REMARK                         _______ _______ _______ _____ _____    ______ ____
ROOT
ATOM      1  N   UNL     1       1.828   7.213  20.930  0.00  0.00    +0.000 NA
ATOM      2  H   UNL     1       1.826   7.289  21.947  0.00  0.00    +0.000 HD
ENDROOT
BRANCH   1  12
ATOM      3  C   UNL     1      -1.670  12.490  23.120  0.00  0.00    +0.000 A 
ATOM      4  C   UNL     1      -0.948  13.660  23.190  0.00  0.00    +0.000 A 
ATOM      5  N   UNL     1       0.158  13.864  22.454  0.00  0.00    +0.000 NA
ATOM      6  N   UNL     1       0.585  12.886  21.587  0.00  0.00    +0.000 NA
ATOM      7  C   UNL     1      -0.082  11.717  21.480  0.00  0.00    +0.000 A 
ATOM      8  N   UNL     1       0.319  10.704  20.584  0.00  0.00    +0.000 N 
ATOM      9  C   UNL     1       1.126  11.195  19.465  0.00  0.00    +0.000 C 
ATOM     10  C   UNL     1       1.237  10.067  18.439  0.00  0.00    +0.000 C 
ATOM     11  C   UNL     1       1.846   8.801  19.054  0.00  0.00    +0.000 C 
ATOM     12  C   UNL     1       1.114   8.372  20.344  0.00  0.00    +0.000 C 
ATOM     13  C   UNL     1       0.967   9.593  21.297  0.00  0.00    +0.000 C 
ATOM     14  C   UNL     1      -1.223  11.501  22.251  0.00  0.00    +0.000 A 
ENDBRANCH   1  12
BRANCH   1  15
ATOM     15  C   UNL     1       1.185   5.943  20.560  0.00  0.00    +0.000 C 
BRANCH  15  16
ATOM     16  C   UNL     1       2.114   4.748  20.553  0.00  0.00    +0.000 A 
ATOM     17  C   UNL     1       1.870   3.619  21.350  0.00  0.00    +0.000 A 
ATOM     18  C   UNL     1       2.756   2.537  21.342  0.00  0.00    +0.000 A 
ATOM     19  C   UNL     1       3.905   2.577  20.553  0.00  0.00    +0.000 A 
ATOM     20  C   UNL     1       4.184   3.707  19.787  0.00  0.00    +0.000 A 
ATOM     21  C   UNL     1       3.286   4.782  19.774  0.00  0.00    +0.000 A 
ATOM     22  O   UNL     1       3.522   5.919  19.034  0.00  0.00    +0.000 OA
ATOM     23  C   UNL     1       4.511   5.707  18.024  0.00  0.00    +0.000 C 
ATOM     24  C   UNL     1       5.714   4.989  18.607  0.00  0.00    +0.000 C 
ATOM     25  O   UNL     1       5.350   3.683  19.064  0.00  0.00    +0.000 OA
ENDBRANCH  15  16
ENDBRANCH   1  15
TORSDOF 3
ENDMDL
MODEL 9
REMARK VINA RESULT:      -7.6      1.841      2.932
REMARK  Name = 
REMARK  3 active torsions:
REMARK  status: ('A' for Active; 'I' for Inactive)
REMARK    1  A    between atoms: C_10  and  N_11
REMARK    2  A    between atoms: N_11  and  C_12
REMARK    3  A    between atoms: C_12  and  C_13
REMARK                            x       y       z     vdW  Elec       q    Type
REMARK                         _______ _______ _______ _____ _____    ______ ____
ROOT
ATOM      1  N   UNL     1       1.967   8.687  18.479  0.00  0.00    +0.000 NA
ATOM      2  H   UNL     1       1.341   8.891  17.699  0.00  0.00    +0.000 HD
ENDROOT
BRANCH   1  12
ATOM      3  C   UNL     1       6.039   4.846  14.799  0.00  0.00    +0.000 A 
ATOM      4  C   UNL     1       7.272   4.619  15.367  0.00  0.00    +0.000 A 
ATOM      5  N   UNL     1       7.480   4.717  16.692  0.00  0.00    +0.000 NA
ATOM      6  N   UNL     1       6.430   5.038  17.520  0.00  0.00    +0.000 NA
ATOM      7  C   UNL     1       5.199   5.273  17.018  0.00  0.00    +0.000 A 
ATOM      8  N   UNL     1       4.099   5.583  17.844  0.00  0.00    +0.000 N 
ATOM      9  C   UNL     1       4.253   5.121  19.225  0.00  0.00    +0.000 C 
ATOM     10  C   UNL     1       2.896   5.257  19.916  0.00  0.00    +0.000 C 
ATOM     11  C   UNL     1       2.375   6.698  19.864  0.00  0.00    +0.000 C 
ATOM     12  C   UNL     1       2.378   7.264  18.427  0.00  0.00    +0.000 C 
ATOM     13  C   UNL     1       3.763   7.012  17.765  0.00  0.00    +0.000 C 
ATOM     14  C   UNL     1       4.986   5.183  15.643  0.00  0.00    +0.000 A 
ENDBRANCH   1  12
BRANCH   1  15
ATOM     15  C   UNL     1       1.261   8.997  19.732  0.00  0.00    +0.000 C 
BRANCH  15  16
ATOM     16  C   UNL     1       0.138  10.001  19.588  0.00  0.00    +0.000 A 
ATOM     17  C   UNL     1      -0.324  10.416  18.329  0.00  0.00    +0.000 A 
ATOM     18  C   UNL     1      -1.348  11.363  18.224  0.00  0.00    +0.000 A 
ATOM     19  C   UNL     1      -1.911  11.918  19.372  0.00  0.00    +0.000 A 
ATOM     20  C   UNL     1      -1.437  11.547  20.629  0.00  0.00    +0.000 A 
ATOM     21  C   UNL     1      -0.428  10.582  20.738  0.00  0.00    +0.000 A 
ATOM     22  O   UNL     1       0.072  10.186  21.959  0.00  0.00    +0.000 OA
ATOM     23  C   UNL     1      -0.797  10.544  23.036  0.00  0.00    +0.000 C 
ATOM     24  C   UNL     1      -1.244  11.987  22.897  0.00  0.00    +0.000 C 
ATOM     25  O   UNL     1      -2.020  12.162  21.708  0.00  0.00    +0.000 OA
ENDBRANCH  15  16
ENDBRANCH   1  15
TORSDOF 3
ENDMDL
