MODEL 1
REMARK VINA RESULT:      -7.0      0.000      0.000
REMARK  Name = 
REMARK  5 active torsions:
REMARK  status: ('A' for Active; 'I' for Inactive)
REMARK    1  A    between atoms: C_1  and  C_2
REMARK    2  A    between atoms: C_2  and  C_3
REMARK    3  A    between atoms: N_7  and  C_8
REMARK    4  A    between atoms: C_8  and  C_9
REMARK    5  A    between atoms: C_9  and  N_10
REMARK                            x       y       z     vdW  Elec       q    Type
REMARK                         _______ _______ _______ _____ _____    ______ ____
ROOT
ATOM      1  C   UNL     1       0.110   9.303  21.705  0.00  0.00    +0.000 A 
ATOM      2  C   UNL     1       0.916   8.216  21.367  0.00  0.00    +0.000 A 
ATOM      3  C   UNL     1       1.387   8.306  20.055  0.00  0.00    +0.000 A 
ATOM      4  C   UNL     1       2.289   7.464  19.396  0.00  0.00    +0.000 A 
ATOM      5  N   UNL     1       2.830   6.309  20.027  0.00  0.00    +0.000 N 
ATOM      6  N   UNL     1       2.679   7.800  18.130  0.00  0.00    +0.000 NA
ATOM      7  C   UNL     1       2.189   8.906  17.492  0.00  0.00    +0.000 A 
ATOM      8  N   UNL     1       1.306   9.726  18.126  0.00  0.00    +0.000 NA
ATOM      9  C   UNL     1       0.925   9.423  19.390  0.00  0.00    +0.000 A 
ATOM     10  S   UNL     1      -0.072  10.336  20.375  0.00  0.00    +0.000 S 
ATOM     11  H   UNL     1       2.371   5.912  20.861  0.00  0.00    +0.000 HD
ENDROOT
BRANCH   1  13
ATOM     12  C   UNL     1      -1.133  10.929  23.078  0.00  0.00    +0.000 C 
ATOM     13  C   UNL     1      -0.442   9.567  23.069  0.00  0.00    +0.000 C 
ENDBRANCH   1  13
BRANCH   5  14
ATOM     14  C   UNL     1       4.083   5.755  19.563  0.00  0.00    +0.000 C 
BRANCH  14  15
ATOM     15  C   UNL     1       3.891   4.404  18.857  0.00  0.00    +0.000 C 
BRANCH  15  16
ATOM     16  N   UNL     1       5.004   4.047  17.943  0.00  0.00    +0.000 NA
ATOM     17  C   UNL     1       4.621   4.199  16.516  0.00  0.00    +0.000 C 
ATOM     18  C   UNL     1       5.788   3.840  15.593  0.00  0.00    +0.000 C 
ATOM     19  C   UNL     1       6.983   4.739  15.895  0.00  0.00    +0.000 C 
ATOM     20  C   UNL     1       7.366   4.579  17.366  0.00  0.00    +0.000 C 
ATOM     21  C   UNL     1       6.164   4.917  18.256  0.00  0.00    +0.000 C 
ENDBRANCH  15  16
ENDBRANCH  14  15
ENDBRANCH   5  14
TORSDOF 4
ENDMDL
MODEL 2
REMARK VINA RESULT:      -6.7      0.589      1.152
REMARK  Name = 
REMARK  5 active torsions:
REMARK  status: ('A' for Active; 'I' for Inactive)
REMARK    1  A    between atoms: C_1  and  C_2
REMARK    2  A    between atoms: C_2  and  C_3
REMARK    3  A    between atoms: N_7  and  C_8
REMARK    4  A    between atoms: C_8  and  C_9
REMARK    5  A    between atoms: C_9  and  N_10
REMARK                            x       y       z     vdW  Elec       q    Type
REMARK                         _______ _______ _______ _____ _____    ______ ____
ROOT
ATOM      1  C   UNL     1       0.154   9.522  21.855  0.00  0.00    +0.000 A 
ATOM      2  C   UNL     1       0.838   8.362  21.494  0.00  0.00    +0.000 A 
ATOM      3  C   UNL     1       1.344   8.439  20.194  0.00  0.00    +0.000 A 
ATOM      4  C   UNL     1       2.159   7.520  19.524  0.00  0.00    +0.000 A 
ATOM      5  N   UNL     1       2.552   6.292  20.125  0.00  0.00    +0.000 N 
ATOM      6  N   UNL     1       2.610   7.849  18.276  0.00  0.00    +0.000 NA
ATOM      7  C   UNL     1       2.262   9.023  17.667  0.00  0.00    +0.000 A 
ATOM      8  N   UNL     1       1.464   9.917  18.313  0.00  0.00    +0.000 NA
ATOM      9  C   UNL     1       1.025   9.621  19.559  0.00  0.00    +0.000 A 
ATOM     10  S   UNL     1       0.118  10.610  20.556  0.00  0.00    +0.000 S 
ATOM     11  H   UNL     1       2.035   5.925  20.937  0.00  0.00    +0.000 HD
ENDROOT
BRANCH   1  13
ATOM     12  C   UNL     1      -1.328  11.010  23.144  0.00  0.00    +0.000 C 
ATOM     13  C   UNL     1      -0.393   9.805  23.217  0.00  0.00    +0.000 C 
ENDBRANCH   1  13
BRANCH   5  14
ATOM     14  C   UNL     1       3.744   5.614  19.664  0.00  0.00    +0.000 C 
BRANCH  14  15
ATOM     15  C   UNL     1       3.478   4.765  18.412  0.00  0.00    +0.000 C 
BRANCH  15  16
ATOM     16  N   UNL     1       4.428   5.025  17.303  0.00  0.00    +0.000 NA
ATOM     17  C   UNL     1       5.636   5.755  17.767  0.00  0.00    +0.000 C 
ATOM     18  C   UNL     1       6.608   5.999  16.610  0.00  0.00    +0.000 C 
ATOM     19  C   UNL     1       7.026   4.666  15.996  0.00  0.00    +0.000 C 
ATOM     20  C   UNL     1       5.777   3.920  15.527  0.00  0.00    +0.000 C 
ATOM     21  C   UNL     1       4.816   3.724  16.705  0.00  0.00    +0.000 C 
ENDBRANCH  15  16
ENDBRANCH  14  15
ENDBRANCH   5  14
TORSDOF 4
ENDMDL
MODEL 3
REMARK VINA RESULT:      -6.7      3.532      7.987
REMARK  Name = 
REMARK  5 active torsions:
REMARK  status: ('A' for Active; 'I' for Inactive)
REMARK    1  A    between atoms: C_1  and  C_2
REMARK    2  A    between atoms: C_2  and  C_3
REMARK    3  A    between atoms: N_7  and  C_8
REMARK    4  A    between atoms: C_8  and  C_9
REMARK    5  A    between atoms: C_9  and  N_10
REMARK                            x       y       z     vdW  Elec       q    Type
REMARK                         _______ _______ _______ _____ _____    ______ ____
ROOT
ATOM      1  C   UNL     1       6.189   3.837  13.609  0.00  0.00    +0.000 A 
ATOM      2  C   UNL     1       5.667   3.415  14.831  0.00  0.00    +0.000 A 
ATOM      3  C   UNL     1       6.126   4.201  15.891  0.00  0.00    +0.000 A 
ATOM      4  C   UNL     1       5.753   4.145  17.238  0.00  0.00    +0.000 A 
ATOM      5  N   UNL     1       4.827   3.177  17.718  0.00  0.00    +0.000 N 
ATOM      6  N   UNL     1       6.271   5.079  18.090  0.00  0.00    +0.000 NA
ATOM      7  C   UNL     1       7.157   6.032  17.667  0.00  0.00    +0.000 A 
ATOM      8  N   UNL     1       7.529   6.086  16.358  0.00  0.00    +0.000 NA
ATOM      9  C   UNL     1       7.009   5.183  15.493  0.00  0.00    +0.000 A 
ATOM     10  S   UNL     1       7.260   5.130  13.841  0.00  0.00    +0.000 S 
ATOM     11  H   UNL     1       4.626   2.334  17.160  0.00  0.00    +0.000 HD
ENDROOT
BRANCH   1  13
ATOM     12  C   UNL     1       7.010   2.634  11.620  0.00  0.00    +0.000 C 
ATOM     13  C   UNL     1       5.795   3.288  12.275  0.00  0.00    +0.000 C 
ENDBRANCH   1  13
BRANCH   5  14
ATOM     14  C   UNL     1       4.089   3.428  18.935  0.00  0.00    +0.000 C 
BRANCH  14  15
ATOM     15  C   UNL     1       2.574   3.496  18.689  0.00  0.00    +0.000 C 
BRANCH  15  16
ATOM     16  N   UNL     1       1.984   4.828  18.972  0.00  0.00    +0.000 NA
ATOM     17  C   UNL     1       2.138   5.212  20.398  0.00  0.00    +0.000 C 
ATOM     18  C   UNL     1       1.536   6.594  20.663  0.00  0.00    +0.000 C 
ATOM     19  C   UNL     1       2.222   7.634  19.782  0.00  0.00    +0.000 C 
ATOM     20  C   UNL     1       2.063   7.229  18.317  0.00  0.00    +0.000 C 
ATOM     21  C   UNL     1       2.648   5.828  18.100  0.00  0.00    +0.000 C 
ENDBRANCH  15  16
ENDBRANCH  14  15
ENDBRANCH   5  14
TORSDOF 4
ENDMDL
MODEL 4
REMARK VINA RESULT:      -6.6      4.586      7.715
REMARK  Name = 
REMARK  5 active torsions:
REMARK  status: ('A' for Active; 'I' for Inactive)
REMARK    1  A    between atoms: C_1  and  C_2
REMARK    2  A    between atoms: C_2  and  C_3
REMARK    3  A    between atoms: N_7  and  C_8
REMARK    4  A    between atoms: C_8  and  C_9
REMARK    5  A    between atoms: C_9  and  N_10
REMARK                            x       y       z     vdW  Elec       q    Type
REMARK                         _______ _______ _______ _____ _____    ______ ____
ROOT
ATOM      1  C   UNL     1       6.186   3.989  14.171  0.00  0.00    +0.000 A 
ATOM      2  C   UNL     1       5.910   3.677  15.501  0.00  0.00    +0.000 A 
ATOM      3  C   UNL     1       6.458   4.614  16.380  0.00  0.00    +0.000 A 
ATOM      4  C   UNL     1       6.314   4.690  17.770  0.00  0.00    +0.000 A 
ATOM      5  N   UNL     1       5.573   3.718  18.498  0.00  0.00    +0.000 N 
ATOM      6  N   UNL     1       6.873   5.755  18.419  0.00  0.00    +0.000 NA
ATOM      7  C   UNL     1       7.586   6.714  17.754  0.00  0.00    +0.000 A 
ATOM      8  N   UNL     1       7.735   6.642  16.403  0.00  0.00    +0.000 NA
ATOM      9  C   UNL     1       7.169   5.606  15.737  0.00  0.00    +0.000 A 
ATOM     10  S   UNL     1       7.154   5.377  14.081  0.00  0.00    +0.000 S 
ATOM     11  H   UNL     1       5.364   2.802  18.074  0.00  0.00    +0.000 HD
ENDROOT
BRANCH   1  13
ATOM     12  C   UNL     1       6.689   3.221  11.884  0.00  0.00    +0.000 C 
ATOM     13  C   UNL     1       5.635   3.259  12.988  0.00  0.00    +0.000 C 
ENDBRANCH   1  13
BRANCH   5  14
ATOM     14  C   UNL     1       5.021   4.055  19.792  0.00  0.00    +0.000 C 
BRANCH  14  15
ATOM     15  C   UNL     1       3.957   5.159  19.696  0.00  0.00    +0.000 C 
BRANCH  15  16
ATOM     16  N   UNL     1       2.584   4.645  19.465  0.00  0.00    +0.000 NA
ATOM     17  C   UNL     1       2.385   4.207  18.060  0.00  0.00    +0.000 C 
ATOM     18  C   UNL     1       0.968   3.667  17.849  0.00  0.00    +0.000 C 
ATOM     19  C   UNL     1       0.718   2.491  18.787  0.00  0.00    +0.000 C 
ATOM     20  C   UNL     1       0.930   2.949  20.229  0.00  0.00    +0.000 C 
ATOM     21  C   UNL     1       2.347   3.511  20.391  0.00  0.00    +0.000 C 
ENDBRANCH  15  16
ENDBRANCH  14  15
ENDBRANCH   5  14
TORSDOF 4
ENDMDL
MODEL 5
REMARK VINA RESULT:      -6.6      4.883      8.332
REMARK  Name = 
REMARK  5 active torsions:
REMARK  status: ('A' for Active; 'I' for Inactive)
REMARK    1  A    between atoms: C_1  and  C_2
REMARK    2  A    between atoms: C_2  and  C_3
REMARK    3  A    between atoms: N_7  and  C_8
REMARK    4  A    between atoms: C_8  and  C_9
REMARK    5  A    between atoms: C_9  and  N_10
REMARK                            x       y       z     vdW  Elec       q    Type
REMARK                         _______ _______ _______ _____ _____    ______ ____
ROOT
ATOM      1  C   UNL     1       5.582   3.384  12.419  0.00  0.00    +0.000 A 
ATOM      2  C   UNL     1       4.941   3.486  13.653  0.00  0.00    +0.000 A 
ATOM      3  C   UNL     1       5.677   4.254  14.559  0.00  0.00    +0.000 A 
ATOM      4  C   UNL     1       5.318   4.655  15.850  0.00  0.00    +0.000 A 
ATOM      5  N   UNL     1       4.088   4.255  16.442  0.00  0.00    +0.000 N 
ATOM      6  N   UNL     1       6.166   5.486  16.526  0.00  0.00    +0.000 NA
ATOM      7  C   UNL     1       7.354   5.901  15.989  0.00  0.00    +0.000 A 
ATOM      8  N   UNL     1       7.712   5.508  14.736  0.00  0.00    +0.000 NA
ATOM      9  C   UNL     1       6.874   4.703  14.039  0.00  0.00    +0.000 A 
ATOM     10  S   UNL     1       7.076   4.181  12.464  0.00  0.00    +0.000 S 
ATOM     11  H   UNL     1       3.568   3.451  16.060  0.00  0.00    +0.000 HD
ENDROOT
BRANCH   1  13
ATOM     12  C   UNL     1       3.689   3.441  10.841  0.00  0.00    +0.000 C 
ATOM     13  C   UNL     1       4.997   2.740  11.202  0.00  0.00    +0.000 C 
ENDBRANCH   1  13
BRANCH   5  14
ATOM     14  C   UNL     1       3.514   5.042  17.511  0.00  0.00    +0.000 C 
BRANCH  14  15
ATOM     15  C   UNL     1       2.114   4.546  17.905  0.00  0.00    +0.000 C 
BRANCH  15  16
ATOM     16  N   UNL     1       2.123   3.546  19.001  0.00  0.00    +0.000 NA
ATOM     17  C   UNL     1       3.440   3.483  19.685  0.00  0.00    +0.000 C 
ATOM     18  C   UNL     1       3.422   2.457  20.820  0.00  0.00    +0.000 C 
ATOM     19  C   UNL     1       2.341   2.824  21.832  0.00  0.00    +0.000 C 
ATOM     20  C   UNL     1       0.992   2.890  21.119  0.00  0.00    +0.000 C 
ATOM     21  C   UNL     1       1.060   3.905  19.971  0.00  0.00    +0.000 C 
ENDBRANCH  15  16
ENDBRANCH  14  15
ENDBRANCH   5  14
TORSDOF 4
ENDMDL
MODEL 6
REMARK VINA RESULT:      -6.6      5.168      8.062
REMARK  Name = 
REMARK  5 active torsions:
REMARK  status: ('A' for Active; 'I' for Inactive)
REMARK    1  A    between atoms: C_1  and  C_2
REMARK    2  A    between atoms: C_2  and  C_3
REMARK    3  A    between atoms: N_7  and  C_8
REMARK    4  A    between atoms: C_8  and  C_9
REMARK    5  A    between atoms: C_9  and  N_10
REMARK                            x       y       z     vdW  Elec       q    Type
REMARK                         _______ _______ _______ _____ _____    ______ ____
ROOT
ATOM      1  C   UNL     1       6.492   3.913  13.519  0.00  0.00    +0.000 A 
ATOM      2  C   UNL     1       6.109   3.545  14.808  0.00  0.00    +0.000 A 
ATOM      3  C   UNL     1       6.542   4.468  15.763  0.00  0.00    +0.000 A 
ATOM      4  C   UNL     1       6.271   4.491  17.135  0.00  0.00    +0.000 A 
ATOM      5  N   UNL     1       5.503   3.470  17.762  0.00  0.00    +0.000 N 
ATOM      6  N   UNL     1       6.730   5.550  17.866  0.00  0.00    +0.000 NA
ATOM      7  C   UNL     1       7.465   6.555  17.300  0.00  0.00    +0.000 A 
ATOM      8  N   UNL     1       7.737   6.535  15.967  0.00  0.00    +0.000 NA
ATOM      9  C   UNL     1       7.272   5.506  15.220  0.00  0.00    +0.000 A 
ATOM     10  S   UNL     1       7.414   5.335  13.563  0.00  0.00    +0.000 S 
ATOM     11  H   UNL     1       5.366   2.563  17.291  0.00  0.00    +0.000 HD
ENDROOT
BRANCH   1  13
ATOM     12  C   UNL     1       4.582   3.423  12.041  0.00  0.00    +0.000 C 
ATOM     13  C   UNL     1       6.077   3.206  12.269  0.00  0.00    +0.000 C 
ENDBRANCH   1  13
BRANCH   5  14
ATOM     14  C   UNL     1       4.824   3.743  19.009  0.00  0.00    +0.000 C 
BRANCH  14  15
ATOM     15  C   UNL     1       4.502   2.457  19.785  0.00  0.00    +0.000 C 
BRANCH  15  16
ATOM     16  N   UNL     1       3.053   2.259  20.035  0.00  0.00    +0.000 NA
ATOM     17  C   UNL     1       2.539   3.179  21.081  0.00  0.00    +0.000 C 
ATOM     18  C   UNL     1       1.041   2.968  21.310  0.00  0.00    +0.000 C 
ATOM     19  C   UNL     1       0.280   3.203  20.009  0.00  0.00    +0.000 C 
ATOM     20  C   UNL     1       0.819   2.255  18.938  0.00  0.00    +0.000 C 
ATOM     21  C   UNL     1       2.325   2.476  18.761  0.00  0.00    +0.000 C 
ENDBRANCH  15  16
ENDBRANCH  14  15
ENDBRANCH   5  14
TORSDOF 4
ENDMDL
MODEL 7
REMARK VINA RESULT:      -6.5      4.754      8.416
REMARK  Name = 
REMARK  5 active torsions:
REMARK  status: ('A' for Active; 'I' for Inactive)
REMARK    1  A    between atoms: C_1  and  C_2
REMARK    2  A    between atoms: C_2  and  C_3
REMARK    3  A    between atoms: N_7  and  C_8
REMARK    4  A    between atoms: C_8  and  C_9
REMARK    5  A    between atoms: C_9  and  N_10
REMARK                            x       y       z     vdW  Elec       q    Type
REMARK                         _______ _______ _______ _____ _____    ______ ____
ROOT
ATOM      1  C   UNL     1       5.473   3.338  12.262  0.00  0.00    +0.000 A 
ATOM      2  C   UNL     1       4.965   3.401  13.558  0.00  0.00    +0.000 A 
ATOM      3  C   UNL     1       5.789   4.147  14.404  0.00  0.00    +0.000 A 
ATOM      4  C   UNL     1       5.566   4.510  15.737  0.00  0.00    +0.000 A 
ATOM      5  N   UNL     1       4.405   4.086  16.442  0.00  0.00    +0.000 N 
ATOM      6  N   UNL     1       6.478   5.326  16.344  0.00  0.00    +0.000 NA
ATOM      7  C   UNL     1       7.602   5.762  15.699  0.00  0.00    +0.000 A 
ATOM      8  N   UNL     1       7.828   5.407  14.404  0.00  0.00    +0.000 NA
ATOM      9  C   UNL     1       6.924   4.617  13.776  0.00  0.00    +0.000 A 
ATOM     10  S   UNL     1       6.962   4.142  12.173  0.00  0.00    +0.000 S 
ATOM     11  H   UNL     1       3.850   3.290  16.093  0.00  0.00    +0.000 HD
ENDROOT
BRANCH   1  13
ATOM     12  C   UNL     1       3.687   3.686  10.598  0.00  0.00    +0.000 C 
ATOM     13  C   UNL     1       4.766   2.725  11.095  0.00  0.00    +0.000 C 
ENDBRANCH   1  13
BRANCH   5  14
ATOM     14  C   UNL     1       3.944   4.839  17.587  0.00  0.00    +0.000 C 
BRANCH  14  15
ATOM     15  C   UNL     1       4.406   4.216  18.913  0.00  0.00    +0.000 C 
BRANCH  15  16
ATOM     16  N   UNL     1       3.334   4.123  19.934  0.00  0.00    +0.000 NA
ATOM     17  C   UNL     1       1.982   4.242  19.330  0.00  0.00    +0.000 C 
ATOM     18  C   UNL     1       0.892   4.128  20.399  0.00  0.00    +0.000 C 
ATOM     19  C   UNL     1       1.010   2.788  21.118  0.00  0.00    +0.000 C 
ATOM     20  C   UNL     1       2.405   2.672  21.731  0.00  0.00    +0.000 C 
ATOM     21  C   UNL     1       3.467   2.823  20.635  0.00  0.00    +0.000 C 
ENDBRANCH  15  16
ENDBRANCH  14  15
ENDBRANCH   5  14
TORSDOF 4
ENDMDL
MODEL 8
REMARK VINA RESULT:      -6.5      5.106      7.205
REMARK  Name = 
REMARK  5 active torsions:
REMARK  status: ('A' for Active; 'I' for Inactive)
REMARK    1  A    between atoms: C_1  and  C_2
REMARK    2  A    between atoms: C_2  and  C_3
REMARK    3  A    between atoms: N_7  and  C_8
REMARK    4  A    between atoms: C_8  and  C_9
REMARK    5  A    between atoms: C_9  and  N_10
REMARK                            x       y       z     vdW  Elec       q    Type
REMARK                         _______ _______ _______ _____ _____    ______ ____
ROOT
ATOM      1  C   UNL     1       3.990   4.597  18.928  0.00  0.00    +0.000 A 
ATOM      2  C   UNL     1       5.073   5.475  18.897  0.00  0.00    +0.000 A 
ATOM      3  C   UNL     1       5.805   5.356  17.713  0.00  0.00    +0.000 A 
ATOM      4  C   UNL     1       6.889   6.127  17.281  0.00  0.00    +0.000 A 
ATOM      5  N   UNL     1       7.434   7.166  18.085  0.00  0.00    +0.000 N 
ATOM      6  N   UNL     1       7.397   5.886  16.035  0.00  0.00    +0.000 NA
ATOM      7  C   UNL     1       6.896   4.902  15.228  0.00  0.00    +0.000 A 
ATOM      8  N   UNL     1       5.844   4.144  15.645  0.00  0.00    +0.000 NA
ATOM      9  C   UNL     1       5.312   4.383  16.868  0.00  0.00    +0.000 A 
ATOM     10  S   UNL     1       3.972   3.635  17.533  0.00  0.00    +0.000 S 
ATOM     11  H   UNL     1       7.236   7.196  19.096  0.00  0.00    +0.000 HD
ENDROOT
BRANCH   1  13
ATOM     12  C   UNL     1       1.697   3.865  19.459  0.00  0.00    +0.000 C 
ATOM     13  C   UNL     1       2.943   4.567  19.995  0.00  0.00    +0.000 C 
ENDBRANCH   1  13
BRANCH   5  14
ATOM     14  C   UNL     1       8.177   8.241  17.466  0.00  0.00    +0.000 C 
BRANCH  14  15
ATOM     15  C   UNL     1       7.910   9.594  18.143  0.00  0.00    +0.000 C 
BRANCH  15  16
ATOM     16  N   UNL     1       9.102  10.475  18.206  0.00  0.00    +0.000 NA
ATOM     17  C   UNL     1       8.805  11.846  17.717  0.00  0.00    +0.000 C 
ATOM     18  C   UNL     1      10.043  12.740  17.805  0.00  0.00    +0.000 C 
ATOM     19  C   UNL     1      10.529  12.812  19.249  0.00  0.00    +0.000 C 
ATOM     20  C   UNL     1      10.827  11.397  19.745  0.00  0.00    +0.000 C 
ATOM     21  C   UNL     1       9.572  10.525  19.612  0.00  0.00    +0.000 C 
ENDBRANCH  15  16
ENDBRANCH  14  15
ENDBRANCH   5  14
TORSDOF 4
ENDMDL
MODEL 9
REMARK VINA RESULT:      -6.5      3.102      7.284
REMARK  Name = 
REMARK  5 active torsions:
REMARK  status: ('A' for Active; 'I' for Inactive)
REMARK    1  A    between atoms: C_1  and  C_2
REMARK    2  A    between atoms: C_2  and  C_3
REMARK    3  A    between atoms: N_7  and  C_8
REMARK    4  A    between atoms: C_8  and  C_9
REMARK    5  A    between atoms: C_9  and  N_10
REMARK                            x       y       z     vdW  Elec       q    Type
REMARK                         _______ _______ _______ _____ _____    ______ ____
ROOT
ATOM      1  C   UNL     1       1.987   4.007  19.859  0.00  0.00    +0.000 A 
ATOM      2  C   UNL     1       1.817   5.385  19.733  0.00  0.00    +0.000 A 
ATOM      3  C   UNL     1       2.727   5.941  18.830  0.00  0.00    +0.000 A 
ATOM      4  C   UNL     1       2.802   7.261  18.374  0.00  0.00    +0.000 A 
ATOM      5  N   UNL     1       1.918   8.268  18.853  0.00  0.00    +0.000 N 
ATOM      6  N   UNL     1       3.727   7.560  17.414  0.00  0.00    +0.000 NA
ATOM      7  C   UNL     1       4.589   6.619  16.922  0.00  0.00    +0.000 A 
ATOM      8  N   UNL     1       4.525   5.334  17.367  0.00  0.00    +0.000 NA
ATOM      9  C   UNL     1       3.599   5.012  18.302  0.00  0.00    +0.000 A 
ATOM     10  S   UNL     1       3.293   3.486  18.913  0.00  0.00    +0.000 S 
ATOM     11  H   UNL     1       1.398   8.125  19.731  0.00  0.00    +0.000 HD
ENDROOT
BRANCH   1  13
ATOM     12  C   UNL     1       1.844   2.597  21.876  0.00  0.00    +0.000 C 
ATOM     13  C   UNL     1       1.093   3.103  20.646  0.00  0.00    +0.000 C 
ENDBRANCH   1  13
BRANCH   5  14
ATOM     14  C   UNL     1       1.668   9.446  18.052  0.00  0.00    +0.000 C 
BRANCH  14  15
ATOM     15  C   UNL     1       1.094  10.601  18.887  0.00  0.00    +0.000 C 
BRANCH  15  16
ATOM     16  N   UNL     1      -0.388  10.611  18.950  0.00  0.00    +0.000 NA
ATOM     17  C   UNL     1      -0.926  11.980  19.161  0.00  0.00    +0.000 C 
ATOM     18  C   UNL     1      -2.455  11.968  19.207  0.00  0.00    +0.000 C 
ATOM     19  C   UNL     1      -3.008  11.402  17.903  0.00  0.00    +0.000 C 
ATOM     20  C   UNL     1      -2.447   9.997  17.691  0.00  0.00    +0.000 C 
ATOM     21  C   UNL     1      -0.914  10.046  17.683  0.00  0.00    +0.000 C 
ENDBRANCH  15  16
ENDBRANCH  14  15
ENDBRANCH   5  14
TORSDOF 4
ENDMDL
