MODEL 1
REMARK VINA RESULT:      -8.7      0.000      0.000
REMARK  Name = 
REMARK  9 active torsions:
REMARK  status: ('A' for Active; 'I' for Inactive)
REMARK    1  A    between atoms: C_2  and  C_3
REMARK    2  A    between atoms: C_3  and  C_4
REMARK    3  A    between atoms: C_4  and  C_5
REMARK    4  A    between atoms: C_5  and  C_6
REMARK    5  A    between atoms: C_6  and  C_7
REMARK    6  A    between atoms: N_11  and  C_12
REMARK    7  A    between atoms: C_12  and  C_13
REMARK    8  A    between atoms: C_17  and  C_18
REMARK    9  A    between atoms: N_25  and  O_26
REMARK                            x       y       z     vdW  Elec       q    Type
REMARK                         _______ _______ _______ _____ _____    ______ ____
ROOT
ATOM      1  C   UNL     1       2.205   3.522  18.863  0.00  0.00    +0.000 A 
ATOM      2  C   UNL     1       1.341   2.604  19.443  0.00  0.00    +0.000 A 
ATOM      3  C   UNL     1       1.062   3.026  20.759  0.00  0.00    +0.000 A 
ATOM      4  C   UNL     1       1.766   4.187  20.967  0.00  0.00    +0.000 A 
ATOM      5  N   UNL     1       2.454   4.497  19.814  0.00  0.00    +0.000 N 
ENDROOT
BRANCH   1   6
ATOM      6  C   UNL     1       2.673   3.539  17.438  0.00  0.00    +0.000 C 
BRANCH   6   7
ATOM      7  C   UNL     1       4.172   3.300  17.239  0.00  0.00    +0.000 C 
BRANCH   7   8
ATOM      8  C   UNL     1       4.751   4.095  16.057  0.00  0.00    +0.000 C 
BRANCH   8   9
ATOM      9  C   UNL     1       5.304   5.462  16.464  0.00  0.00    +0.000 C 
BRANCH   9  11
ATOM     10  O   UNL     1       7.586   6.309  16.466  0.00  0.00    +0.000 OA
ATOM     11  C   UNL     1       6.665   5.757  15.872  0.00  0.00    +0.000 C 
ATOM     12  N   UNL     1       6.777   5.342  14.566  0.00  0.00    +0.000 N 
ATOM     13  H   UNL     1       6.004   5.023  13.992  0.00  0.00    +0.000 HD
BRANCH  12  14
ATOM     14  O   UNL     1       7.990   5.643  13.908  0.00  0.00    +0.000 OA
ATOM     15  H   UNL     1       7.794   6.514  13.500  0.00  0.00    +0.000 HD
ENDBRANCH  12  14
ENDBRANCH   9  11
ENDBRANCH   8   9
ENDBRANCH   7   8
ENDBRANCH   6   7
ENDBRANCH   1   6
BRANCH   5  16
ATOM     16  C   UNL     1       3.317   5.675  19.709  0.00  0.00    +0.000 C 
BRANCH  16  17
ATOM     17  C   UNL     1       2.618   6.976  19.378  0.00  0.00    +0.000 A 
ATOM     18  C   UNL     1       2.710   7.465  18.066  0.00  0.00    +0.000 A 
ATOM     19  C   UNL     1       2.063   8.643  17.695  0.00  0.00    +0.000 A 
ATOM     20  C   UNL     1       1.310   9.350  18.634  0.00  0.00    +0.000 A 
ATOM     21  C   UNL     1       1.187   8.899  19.958  0.00  0.00    +0.000 A 
ATOM     22  C   UNL     1       1.854   7.706  20.303  0.00  0.00    +0.000 A 
BRANCH  21  23
ATOM     23  C   UNL     1       0.366   9.618  20.961  0.00  0.00    +0.000 A 
ATOM     24  C   UNL     1       0.288   9.181  22.294  0.00  0.00    +0.000 A 
ATOM     25  C   UNL     1      -0.446   9.892  23.251  0.00  0.00    +0.000 A 
ATOM     26  C   UNL     1      -1.114  11.059  22.894  0.00  0.00    +0.000 A 
ATOM     27  C   UNL     1      -1.060  11.509  21.579  0.00  0.00    +0.000 A 
ATOM     28  C   UNL     1      -0.337  10.790  20.624  0.00  0.00    +0.000 A 
ENDBRANCH  21  23
ENDBRANCH  16  17
ENDBRANCH   5  16
TORSDOF 9
ENDMDL
MODEL 2
REMARK VINA RESULT:      -8.5      0.981      1.033
REMARK  Name = 
REMARK  9 active torsions:
REMARK  status: ('A' for Active; 'I' for Inactive)
REMARK    1  A    between atoms: C_2  and  C_3
REMARK    2  A    between atoms: C_3  and  C_4
REMARK    3  A    between atoms: C_4  and  C_5
REMARK    4  A    between atoms: C_5  and  C_6
REMARK    5  A    between atoms: C_6  and  C_7
REMARK    6  A    between atoms: N_11  and  C_12
REMARK    7  A    between atoms: C_12  and  C_13
REMARK    8  A    between atoms: C_17  and  C_18
REMARK    9  A    between atoms: N_25  and  O_26
REMARK                            x       y       z     vdW  Elec       q    Type
REMARK                         _______ _______ _______ _____ _____    ______ ____
ROOT
ATOM      1  C   UNL     1       2.299   3.932  18.532  0.00  0.00    +0.000 A 
ATOM      2  C   UNL     1       1.395   2.892  18.695  0.00  0.00    +0.000 A 
ATOM      3  C   UNL     1       0.727   3.071  19.924  0.00  0.00    +0.000 A 
ATOM      4  C   UNL     1       1.240   4.208  20.498  0.00  0.00    +0.000 A 
ATOM      5  N   UNL     1       2.189   4.740  19.651  0.00  0.00    +0.000 N 
ENDROOT
BRANCH   1   6
ATOM      6  C   UNL     1       3.140   4.211  17.321  0.00  0.00    +0.000 C 
BRANCH   6   7
ATOM      7  C   UNL     1       4.559   3.639  17.365  0.00  0.00    +0.000 C 
BRANCH   7   8
ATOM      8  C   UNL     1       5.374   4.159  18.560  0.00  0.00    +0.000 C 
BRANCH   8   9
ATOM      9  C   UNL     1       6.295   5.326  18.199  0.00  0.00    +0.000 C 
BRANCH   9  11
ATOM     10  O   UNL     1       8.100   4.172  17.041  0.00  0.00    +0.000 OA
ATOM     11  C   UNL     1       7.216   5.024  17.036  0.00  0.00    +0.000 C 
ATOM     12  N   UNL     1       6.967   5.818  15.942  0.00  0.00    +0.000 N 
ATOM     13  H   UNL     1       6.357   6.628  15.941  0.00  0.00    +0.000 HD
BRANCH  12  14
ATOM     14  O   UNL     1       7.827   5.656  14.833  0.00  0.00    +0.000 OA
ATOM     15  H   UNL     1       7.921   4.680  14.784  0.00  0.00    +0.000 HD
ENDBRANCH  12  14
ENDBRANCH   9  11
ENDBRANCH   8   9
ENDBRANCH   7   8
ENDBRANCH   6   7
ENDBRANCH   1   6
BRANCH   5  16
ATOM     16  C   UNL     1       2.938   5.954  19.978  0.00  0.00    +0.000 C 
BRANCH  16  17
ATOM     17  C   UNL     1       2.284   7.260  19.578  0.00  0.00    +0.000 A 
ATOM     18  C   UNL     1       2.427   7.695  18.252  0.00  0.00    +0.000 A 
ATOM     19  C   UNL     1       1.822   8.874  17.818  0.00  0.00    +0.000 A 
ATOM     20  C   UNL     1       1.062   9.636  18.708  0.00  0.00    +0.000 A 
ATOM     21  C   UNL     1       0.890   9.240  20.043  0.00  0.00    +0.000 A 
ATOM     22  C   UNL     1       1.514   8.044  20.452  0.00  0.00    +0.000 A 
BRANCH  21  23
ATOM     23  C   UNL     1       0.060  10.017  20.993  0.00  0.00    +0.000 A 
ATOM     24  C   UNL     1      -0.145   9.583  22.315  0.00  0.00    +0.000 A 
ATOM     25  C   UNL     1      -0.885  10.346  23.225  0.00  0.00    +0.000 A 
ATOM     26  C   UNL     1      -1.432  11.564  22.834  0.00  0.00    +0.000 A 
ATOM     27  C   UNL     1      -1.252  12.013  21.530  0.00  0.00    +0.000 A 
ATOM     28  C   UNL     1      -0.523  11.243  20.620  0.00  0.00    +0.000 A 
ENDBRANCH  21  23
ENDBRANCH  16  17
ENDBRANCH   5  16
TORSDOF 9
ENDMDL
MODEL 3
REMARK VINA RESULT:      -8.4      1.543      1.894
REMARK  Name = 
REMARK  9 active torsions:
REMARK  status: ('A' for Active; 'I' for Inactive)
REMARK    1  A    between atoms: C_2  and  C_3
REMARK    2  A    between atoms: C_3  and  C_4
REMARK    3  A    between atoms: C_4  and  C_5
REMARK    4  A    between atoms: C_5  and  C_6
REMARK    5  A    between atoms: C_6  and  C_7
REMARK    6  A    between atoms: N_11  and  C_12
REMARK    7  A    between atoms: C_12  and  C_13
REMARK    8  A    between atoms: C_17  and  C_18
REMARK    9  A    between atoms: N_25  and  O_26
REMARK                            x       y       z     vdW  Elec       q    Type
REMARK                         _______ _______ _______ _____ _____    ______ ____
ROOT
ATOM      1  C   UNL     1       2.237   3.983  18.331  0.00  0.00    +0.000 A 
ATOM      2  C   UNL     1       1.355   2.931  18.533  0.00  0.00    +0.000 A 
ATOM      3  C   UNL     1       0.820   3.042  19.833  0.00  0.00    +0.000 A 
ATOM      4  C   UNL     1       1.391   4.152  20.409  0.00  0.00    +0.000 A 
ATOM      5  N   UNL     1       2.245   4.732  19.495  0.00  0.00    +0.000 N 
ENDROOT
BRANCH   1   6
ATOM      6  C   UNL     1       2.945   4.329  17.054  0.00  0.00    +0.000 C 
BRANCH   6   7
ATOM      7  C   UNL     1       4.309   3.663  16.862  0.00  0.00    +0.000 C 
BRANCH   7   8
ATOM      8  C   UNL     1       5.346   4.116  17.903  0.00  0.00    +0.000 C 
BRANCH   8   9
ATOM      9  C   UNL     1       6.350   5.129  17.351  0.00  0.00    +0.000 C 
BRANCH   9  11
ATOM     10  O   UNL     1       7.821   6.827  18.291  0.00  0.00    +0.000 OA
ATOM     11  C   UNL     1       7.197   5.778  18.425  0.00  0.00    +0.000 C 
ATOM     12  N   UNL     1       7.207   5.061  19.598  0.00  0.00    +0.000 N 
ATOM     13  H   UNL     1       6.836   4.124  19.707  0.00  0.00    +0.000 HD
BRANCH  12  14
ATOM     14  O   UNL     1       8.032   5.554  20.634  0.00  0.00    +0.000 OA
ATOM     15  H   UNL     1       7.410   5.597  21.392  0.00  0.00    +0.000 HD
ENDBRANCH  12  14
ENDBRANCH   9  11
ENDBRANCH   8   9
ENDBRANCH   7   8
ENDBRANCH   6   7
ENDBRANCH   1   6
BRANCH   5  16
ATOM     16  C   UNL     1       3.024   5.932  19.805  0.00  0.00    +0.000 C 
BRANCH  16  17
ATOM     17  C   UNL     1       2.363   7.252  19.466  0.00  0.00    +0.000 A 
ATOM     18  C   UNL     1       2.504   7.749  18.162  0.00  0.00    +0.000 A 
ATOM     19  C   UNL     1       1.894   8.944  17.783  0.00  0.00    +0.000 A 
ATOM     20  C   UNL     1       1.129   9.660  18.707  0.00  0.00    +0.000 A 
ATOM     21  C   UNL     1       0.959   9.201  20.022  0.00  0.00    +0.000 A 
ATOM     22  C   UNL     1       1.589   7.990  20.375  0.00  0.00    +0.000 A 
BRANCH  21  23
ATOM     23  C   UNL     1       0.124   9.928  21.007  0.00  0.00    +0.000 A 
ATOM     24  C   UNL     1      -0.049   9.450  22.318  0.00  0.00    +0.000 A 
ATOM     25  C   UNL     1      -0.794  10.168  23.261  0.00  0.00    +0.000 A 
ATOM     26  C   UNL     1      -1.377  11.382  22.915  0.00  0.00    +0.000 A 
ATOM     27  C   UNL     1      -1.229  11.873  21.622  0.00  0.00    +0.000 A 
ATOM     28  C   UNL     1      -0.495  11.149  20.679  0.00  0.00    +0.000 A 
ENDBRANCH  21  23
ENDBRANCH  16  17
ENDBRANCH   5  16
TORSDOF 9
ENDMDL
MODEL 4
REMARK VINA RESULT:      -8.4      1.378      1.636
REMARK  Name = 
REMARK  9 active torsions:
REMARK  status: ('A' for Active; 'I' for Inactive)
REMARK    1  A    between atoms: C_2  and  C_3
REMARK    2  A    between atoms: C_3  and  C_4
REMARK    3  A    between atoms: C_4  and  C_5
REMARK    4  A    between atoms: C_5  and  C_6
REMARK    5  A    between atoms: C_6  and  C_7
REMARK    6  A    between atoms: N_11  and  C_12
REMARK    7  A    between atoms: C_12  and  C_13
REMARK    8  A    between atoms: C_17  and  C_18
REMARK    9  A    between atoms: N_25  and  O_26
REMARK                            x       y       z     vdW  Elec       q    Type
REMARK                         _______ _______ _______ _____ _____    ______ ____
ROOT
ATOM      1  C   UNL     1       2.929   3.306  18.670  0.00  0.00    +0.000 A 
ATOM      2  C   UNL     1       1.955   2.373  18.345  0.00  0.00    +0.000 A 
ATOM      3  C   UNL     1       0.755   2.739  18.989  0.00  0.00    +0.000 A 
ATOM      4  C   UNL     1       1.017   3.882  19.705  0.00  0.00    +0.000 A 
ATOM      5  N   UNL     1       2.334   4.235  19.506  0.00  0.00    +0.000 N 
ENDROOT
BRANCH   1   6
ATOM      6  C   UNL     1       4.322   3.379  18.118  0.00  0.00    +0.000 C 
BRANCH   6   7
ATOM      7  C   UNL     1       4.434   3.930  16.695  0.00  0.00    +0.000 C 
BRANCH   7   8
ATOM      8  C   UNL     1       4.927   5.386  16.656  0.00  0.00    +0.000 C 
BRANCH   8   9
ATOM      9  C   UNL     1       6.408   5.510  16.291  0.00  0.00    +0.000 C 
BRANCH   9  11
ATOM     10  O   UNL     1       7.776   4.452  18.005  0.00  0.00    +0.000 OA
ATOM     11  C   UNL     1       7.325   5.473  17.494  0.00  0.00    +0.000 C 
ATOM     12  N   UNL     1       7.612   6.726  17.982  0.00  0.00    +0.000 N 
ATOM     13  H   UNL     1       7.148   7.580  17.692  0.00  0.00    +0.000 HD
BRANCH  12  14
ATOM     14  O   UNL     1       8.403   6.785  19.150  0.00  0.00    +0.000 OA
ATOM     15  H   UNL     1       7.987   7.524  19.646  0.00  0.00    +0.000 HD
ENDBRANCH  12  14
ENDBRANCH   9  11
ENDBRANCH   8   9
ENDBRANCH   7   8
ENDBRANCH   6   7
ENDBRANCH   1   6
BRANCH   5  16
ATOM     16  C   UNL     1       2.936   5.407  20.145  0.00  0.00    +0.000 C 
BRANCH  16  17
ATOM     17  C   UNL     1       2.387   6.749  19.710  0.00  0.00    +0.000 A 
ATOM     18  C   UNL     1       2.564   7.137  18.373  0.00  0.00    +0.000 A 
ATOM     19  C   UNL     1       2.054   8.349  17.908  0.00  0.00    +0.000 A 
ATOM     20  C   UNL     1       1.355   9.191  18.776  0.00  0.00    +0.000 A 
ATOM     21  C   UNL     1       1.152   8.843  20.121  0.00  0.00    +0.000 A 
ATOM     22  C   UNL     1       1.681   7.613  20.562  0.00  0.00    +0.000 A 
BRANCH  21  23
ATOM     23  C   UNL     1       0.386   9.708  21.049  0.00  0.00    +0.000 A 
ATOM     24  C   UNL     1      -0.027   9.245  22.311  0.00  0.00    +0.000 A 
ATOM     25  C   UNL     1      -0.704  10.081  23.207  0.00  0.00    +0.000 A 
ATOM     26  C   UNL     1      -0.979  11.400  22.860  0.00  0.00    +0.000 A 
ATOM     27  C   UNL     1      -0.589  11.881  21.615  0.00  0.00    +0.000 A 
ATOM     28  C   UNL     1       0.076  11.040  20.718  0.00  0.00    +0.000 A 
ENDBRANCH  21  23
ENDBRANCH  16  17
ENDBRANCH   5  16
TORSDOF 9
ENDMDL
MODEL 5
REMARK VINA RESULT:      -8.3      1.047      1.643
REMARK  Name = 
REMARK  9 active torsions:
REMARK  status: ('A' for Active; 'I' for Inactive)
REMARK    1  A    between atoms: C_2  and  C_3
REMARK    2  A    between atoms: C_3  and  C_4
REMARK    3  A    between atoms: C_4  and  C_5
REMARK    4  A    between atoms: C_5  and  C_6
REMARK    5  A    between atoms: C_6  and  C_7
REMARK    6  A    between atoms: N_11  and  C_12
REMARK    7  A    between atoms: C_12  and  C_13
REMARK    8  A    between atoms: C_17  and  C_18
REMARK    9  A    between atoms: N_25  and  O_26
REMARK                            x       y       z     vdW  Elec       q    Type
REMARK                         _______ _______ _______ _____ _____    ______ ____
ROOT
ATOM      1  C   UNL     1       2.287   3.834  18.395  0.00  0.00    +0.000 A 
ATOM      2  C   UNL     1       1.350   2.835  18.617  0.00  0.00    +0.000 A 
ATOM      3  C   UNL     1       0.761   3.049  19.880  0.00  0.00    +0.000 A 
ATOM      4  C   UNL     1       1.354   4.167  20.415  0.00  0.00    +0.000 A 
ATOM      5  N   UNL     1       2.275   4.652  19.511  0.00  0.00    +0.000 N 
ENDROOT
BRANCH   1   6
ATOM      6  C   UNL     1       3.068   4.070  17.136  0.00  0.00    +0.000 C 
BRANCH   6   7
ATOM      7  C   UNL     1       4.454   3.421  17.095  0.00  0.00    +0.000 C 
BRANCH   7   8
ATOM      8  C   UNL     1       5.423   4.146  16.147  0.00  0.00    +0.000 C 
BRANCH   8   9
ATOM      9  C   UNL     1       5.432   5.663  16.341  0.00  0.00    +0.000 C 
BRANCH   9  11
ATOM     10  O   UNL     1       7.604   6.762  16.390  0.00  0.00    +0.000 OA
ATOM     11  C   UNL     1       6.702   6.177  16.983  0.00  0.00    +0.000 C 
ATOM     12  N   UNL     1       6.758   5.916  18.332  0.00  0.00    +0.000 N 
ATOM     13  H   UNL     1       6.116   5.310  18.831  0.00  0.00    +0.000 HD
BRANCH  12  14
ATOM     14  O   UNL     1       7.943   6.295  19.001  0.00  0.00    +0.000 OA
ATOM     15  H   UNL     1       8.635   6.074  18.341  0.00  0.00    +0.000 HD
ENDBRANCH  12  14
ENDBRANCH   9  11
ENDBRANCH   8   9
ENDBRANCH   7   8
ENDBRANCH   6   7
ENDBRANCH   1   6
BRANCH   5  16
ATOM     16  C   UNL     1       3.092   5.835  19.786  0.00  0.00    +0.000 C 
BRANCH  16  17
ATOM     17  C   UNL     1       2.452   7.168  19.461  0.00  0.00    +0.000 A 
ATOM     18  C   UNL     1       2.574   7.661  18.153  0.00  0.00    +0.000 A 
ATOM     19  C   UNL     1       1.981   8.869  17.787  0.00  0.00    +0.000 A 
ATOM     20  C   UNL     1       1.253   9.602  18.727  0.00  0.00    +0.000 A 
ATOM     21  C   UNL     1       1.103   9.147  20.046  0.00  0.00    +0.000 A 
ATOM     22  C   UNL     1       1.715   7.924  20.386  0.00  0.00    +0.000 A 
BRANCH  21  23
ATOM     23  C   UNL     1       0.307   9.893  21.049  0.00  0.00    +0.000 A 
ATOM     24  C   UNL     1      -0.269  11.140  20.750  0.00  0.00    +0.000 A 
ATOM     25  C   UNL     1      -1.064  11.817  21.682  0.00  0.00    +0.000 A 
ATOM     26  C   UNL     1      -1.304  11.257  22.933  0.00  0.00    +0.000 A 
ATOM     27  C   UNL     1      -0.740  10.029  23.258  0.00  0.00    +0.000 A 
ATOM     28  C   UNL     1       0.064   9.361  22.330  0.00  0.00    +0.000 A 
ENDBRANCH  21  23
ENDBRANCH  16  17
ENDBRANCH   5  16
TORSDOF 9
ENDMDL
MODEL 6
REMARK VINA RESULT:      -8.3      0.958      1.533
REMARK  Name = 
REMARK  9 active torsions:
REMARK  status: ('A' for Active; 'I' for Inactive)
REMARK    1  A    between atoms: C_2  and  C_3
REMARK    2  A    between atoms: C_3  and  C_4
REMARK    3  A    between atoms: C_4  and  C_5
REMARK    4  A    between atoms: C_5  and  C_6
REMARK    5  A    between atoms: C_6  and  C_7
REMARK    6  A    between atoms: N_11  and  C_12
REMARK    7  A    between atoms: C_12  and  C_13
REMARK    8  A    between atoms: C_17  and  C_18
REMARK    9  A    between atoms: N_25  and  O_26
REMARK                            x       y       z     vdW  Elec       q    Type
REMARK                         _______ _______ _______ _____ _____    ______ ____
ROOT
ATOM      1  C   UNL     1       2.394   3.819  18.405  0.00  0.00    +0.000 A 
ATOM      2  C   UNL     1       1.498   2.773  18.577  0.00  0.00    +0.000 A 
ATOM      3  C   UNL     1       0.844   2.946  19.814  0.00  0.00    +0.000 A 
ATOM      4  C   UNL     1       1.356   4.087  20.383  0.00  0.00    +0.000 A 
ATOM      5  N   UNL     1       2.291   4.625  19.525  0.00  0.00    +0.000 N 
ENDROOT
BRANCH   1   6
ATOM      6  C   UNL     1       3.218   4.104  17.184  0.00  0.00    +0.000 C 
BRANCH   6   7
ATOM      7  C   UNL     1       4.730   3.945  17.363  0.00  0.00    +0.000 C 
BRANCH   7   8
ATOM      8  C   UNL     1       5.537   4.605  16.233  0.00  0.00    +0.000 C 
BRANCH   8   9
ATOM      9  C   UNL     1       5.434   3.855  14.904  0.00  0.00    +0.000 C 
BRANCH   9  11
ATOM     10  O   UNL     1       6.598   3.815  12.766  0.00  0.00    +0.000 OA
ATOM     11  C   UNL     1       6.488   4.271  13.900  0.00  0.00    +0.000 C 
ATOM     12  N   UNL     1       7.340   5.232  14.391  0.00  0.00    +0.000 N 
ATOM     13  H   UNL     1       7.383   5.525  15.361  0.00  0.00    +0.000 HD
BRANCH  12  14
ATOM     14  O   UNL     1       8.402   5.627  13.549  0.00  0.00    +0.000 OA
ATOM     15  H   UNL     1       8.228   5.105  12.735  0.00  0.00    +0.000 HD
ENDBRANCH  12  14
ENDBRANCH   9  11
ENDBRANCH   8   9
ENDBRANCH   7   8
ENDBRANCH   6   7
ENDBRANCH   1   6
BRANCH   5  16
ATOM     16  C   UNL     1       3.036   5.845  19.844  0.00  0.00    +0.000 C 
BRANCH  16  17
ATOM     17  C   UNL     1       2.353   7.147  19.487  0.00  0.00    +0.000 A 
ATOM     18  C   UNL     1       2.320   7.531  18.138  0.00  0.00    +0.000 A 
ATOM     19  C   UNL     1       1.679   8.706  17.745  0.00  0.00    +0.000 A 
ATOM     20  C   UNL     1       1.058   9.514  18.699  0.00  0.00    +0.000 A 
ATOM     21  C   UNL     1       1.063   9.169  20.059  0.00  0.00    +0.000 A 
ATOM     22  C   UNL     1       1.720   7.977  20.426  0.00  0.00    +0.000 A 
BRANCH  21  23
ATOM     23  C   UNL     1       0.381   9.996  21.083  0.00  0.00    +0.000 A 
ATOM     24  C   UNL     1       0.339  11.398  20.985  0.00  0.00    +0.000 A 
ATOM     25  C   UNL     1      -0.352  12.172  21.926  0.00  0.00    +0.000 A 
ATOM     26  C   UNL     1      -1.019  11.559  22.981  0.00  0.00    +0.000 A 
ATOM     27  C   UNL     1      -0.985  10.174  23.107  0.00  0.00    +0.000 A 
ATOM     28  C   UNL     1      -0.285   9.405  22.173  0.00  0.00    +0.000 A 
ENDBRANCH  21  23
ENDBRANCH  16  17
ENDBRANCH   5  16
TORSDOF 9
ENDMDL
MODEL 7
REMARK VINA RESULT:      -8.2      0.795      1.085
REMARK  Name = 
REMARK  9 active torsions:
REMARK  status: ('A' for Active; 'I' for Inactive)
REMARK    1  A    between atoms: C_2  and  C_3
REMARK    2  A    between atoms: C_3  and  C_4
REMARK    3  A    between atoms: C_4  and  C_5
REMARK    4  A    between atoms: C_5  and  C_6
REMARK    5  A    between atoms: C_6  and  C_7
REMARK    6  A    between atoms: N_11  and  C_12
REMARK    7  A    between atoms: C_12  and  C_13
REMARK    8  A    between atoms: C_17  and  C_18
REMARK    9  A    between atoms: N_25  and  O_26
REMARK                            x       y       z     vdW  Elec       q    Type
REMARK                         _______ _______ _______ _____ _____    ______ ____
ROOT
ATOM      1  C   UNL     1       2.959   3.348  18.984  0.00  0.00    +0.000 A 
ATOM      2  C   UNL     1       1.916   2.434  19.045  0.00  0.00    +0.000 A 
ATOM      3  C   UNL     1       0.858   3.013  19.775  0.00  0.00    +0.000 A 
ATOM      4  C   UNL     1       1.273   4.265  20.158  0.00  0.00    +0.000 A 
ATOM      5  N   UNL     1       2.545   4.476  19.672  0.00  0.00    +0.000 N 
ENDROOT
BRANCH   1   6
ATOM      6  C   UNL     1       4.236   3.204  18.210  0.00  0.00    +0.000 C 
BRANCH   6   7
ATOM      7  C   UNL     1       4.293   3.981  16.893  0.00  0.00    +0.000 C 
BRANCH   7   8
ATOM      8  C   UNL     1       5.470   3.553  16.000  0.00  0.00    +0.000 C 
BRANCH   8   9
ATOM      9  C   UNL     1       5.723   4.515  14.838  0.00  0.00    +0.000 C 
BRANCH   9  11
ATOM     10  O   UNL     1       7.901   5.492  14.357  0.00  0.00    +0.000 OA
ATOM     11  C   UNL     1       6.903   5.435  15.069  0.00  0.00    +0.000 C 
ATOM     12  N   UNL     1       6.752   6.221  16.187  0.00  0.00    +0.000 N 
ATOM     13  H   UNL     1       6.024   6.102  16.884  0.00  0.00    +0.000 HD
BRANCH  12  14
ATOM     14  O   UNL     1       7.838   7.058  16.523  0.00  0.00    +0.000 OA
ATOM     15  H   UNL     1       8.135   7.377  15.643  0.00  0.00    +0.000 HD
ENDBRANCH  12  14
ENDBRANCH   9  11
ENDBRANCH   8   9
ENDBRANCH   7   8
ENDBRANCH   6   7
ENDBRANCH   1   6
BRANCH   5  16
ATOM     16  C   UNL     1       3.282   5.717  19.918  0.00  0.00    +0.000 C 
BRANCH  16  17
ATOM     17  C   UNL     1       2.580   6.993  19.505  0.00  0.00    +0.000 A 
ATOM     18  C   UNL     1       2.640   7.377  18.157  0.00  0.00    +0.000 A 
ATOM     19  C   UNL     1       1.988   8.527  17.712  0.00  0.00    +0.000 A 
ATOM     20  C   UNL     1       1.263   9.311  18.613  0.00  0.00    +0.000 A 
ATOM     21  C   UNL     1       1.175   8.965  19.970  0.00  0.00    +0.000 A 
ATOM     22  C   UNL     1       1.845   7.798  20.390  0.00  0.00    +0.000 A 
BRANCH  21  23
ATOM     23  C   UNL     1       0.384   9.765  20.936  0.00  0.00    +0.000 A 
ATOM     24  C   UNL     1      -0.004   9.239  22.181  0.00  0.00    +0.000 A 
ATOM     25  C   UNL     1      -0.705  10.016  23.111  0.00  0.00    +0.000 A 
ATOM     26  C   UNL     1      -1.028  11.336  22.818  0.00  0.00    +0.000 A 
ATOM     27  C   UNL     1      -0.664  11.879  21.590  0.00  0.00    +0.000 A 
ATOM     28  C   UNL     1       0.025  11.098  20.658  0.00  0.00    +0.000 A 
ENDBRANCH  21  23
ENDBRANCH  16  17
ENDBRANCH   5  16
TORSDOF 9
ENDMDL
MODEL 8
REMARK VINA RESULT:      -8.2      0.894      1.570
REMARK  Name = 
REMARK  9 active torsions:
REMARK  status: ('A' for Active; 'I' for Inactive)
REMARK    1  A    between atoms: C_2  and  C_3
REMARK    2  A    between atoms: C_3  and  C_4
REMARK    3  A    between atoms: C_4  and  C_5
REMARK    4  A    between atoms: C_5  and  C_6
REMARK    5  A    between atoms: C_6  and  C_7
REMARK    6  A    between atoms: N_11  and  C_12
REMARK    7  A    between atoms: C_12  and  C_13
REMARK    8  A    between atoms: C_17  and  C_18
REMARK    9  A    between atoms: N_25  and  O_26
REMARK                            x       y       z     vdW  Elec       q    Type
REMARK                         _______ _______ _______ _____ _____    ______ ____
ROOT
ATOM      1  C   UNL     1       2.891   3.170  18.947  0.00  0.00    +0.000 A 
ATOM      2  C   UNL     1       2.033   2.235  18.387  0.00  0.00    +0.000 A 
ATOM      3  C   UNL     1       0.730   2.482  18.868  0.00  0.00    +0.000 A 
ATOM      4  C   UNL     1       0.814   3.556  19.721  0.00  0.00    +0.000 A 
ATOM      5  N   UNL     1       2.124   3.983  19.764  0.00  0.00    +0.000 N 
ENDROOT
BRANCH   1   6
ATOM      6  C   UNL     1       4.345   3.359  18.629  0.00  0.00    +0.000 C 
BRANCH   6   7
ATOM      7  C   UNL     1       4.704   3.289  17.143  0.00  0.00    +0.000 C 
BRANCH   7   8
ATOM      8  C   UNL     1       4.534   4.638  16.425  0.00  0.00    +0.000 C 
BRANCH   8   9
ATOM      9  C   UNL     1       5.379   4.754  15.155  0.00  0.00    +0.000 C 
BRANCH   9  11
ATOM     10  O   UNL     1       7.705   5.324  14.715  0.00  0.00    +0.000 OA
ATOM     11  C   UNL     1       6.680   5.498  15.367  0.00  0.00    +0.000 C 
ATOM     12  N   UNL     1       6.608   6.411  16.393  0.00  0.00    +0.000 N 
ATOM     13  H   UNL     1       5.840   6.482  17.052  0.00  0.00    +0.000 HD
BRANCH  12  14
ATOM     14  O   UNL     1       7.799   7.100  16.712  0.00  0.00    +0.000 OA
ATOM     15  H   UNL     1       7.951   6.833  17.645  0.00  0.00    +0.000 HD
ENDBRANCH  12  14
ENDBRANCH   9  11
ENDBRANCH   8   9
ENDBRANCH   7   8
ENDBRANCH   6   7
ENDBRANCH   1   6
BRANCH   5  16
ATOM     16  C   UNL     1       2.554   5.108  20.597  0.00  0.00    +0.000 C 
BRANCH  16  17
ATOM     17  C   UNL     1       2.202   6.485  20.076  0.00  0.00    +0.000 A 
ATOM     18  C   UNL     1       2.584   6.817  18.767  0.00  0.00    +0.000 A 
ATOM     19  C   UNL     1       2.263   8.060  18.223  0.00  0.00    +0.000 A 
ATOM     20  C   UNL     1       1.550   8.990  18.982  0.00  0.00    +0.000 A 
ATOM     21  C   UNL     1       1.145   8.702  20.295  0.00  0.00    +0.000 A 
ATOM     22  C   UNL     1       1.487   7.438  20.817  0.00  0.00    +0.000 A 
BRANCH  21  23
ATOM     23  C   UNL     1       0.360   9.663  21.105  0.00  0.00    +0.000 A 
ATOM     24  C   UNL     1      -0.074  10.889  20.572  0.00  0.00    +0.000 A 
ATOM     25  C   UNL     1      -0.861  11.770  21.323  0.00  0.00    +0.000 A 
ATOM     26  C   UNL     1      -1.235  11.440  22.622  0.00  0.00    +0.000 A 
ATOM     27  C   UNL     1      -0.812  10.237  23.176  0.00  0.00    +0.000 A 
ATOM     28  C   UNL     1      -0.016   9.365  22.428  0.00  0.00    +0.000 A 
ENDBRANCH  21  23
ENDBRANCH  16  17
ENDBRANCH   5  16
TORSDOF 9
ENDMDL
MODEL 9
REMARK VINA RESULT:      -8.2      0.716      1.212
REMARK  Name = 
REMARK  9 active torsions:
REMARK  status: ('A' for Active; 'I' for Inactive)
REMARK    1  A    between atoms: C_2  and  C_3
REMARK    2  A    between atoms: C_3  and  C_4
REMARK    3  A    between atoms: C_4  and  C_5
REMARK    4  A    between atoms: C_5  and  C_6
REMARK    5  A    between atoms: C_6  and  C_7
REMARK    6  A    between atoms: N_11  and  C_12
REMARK    7  A    between atoms: C_12  and  C_13
REMARK    8  A    between atoms: C_17  and  C_18
REMARK    9  A    between atoms: N_25  and  O_26
REMARK                            x       y       z     vdW  Elec       q    Type
REMARK                         _______ _______ _______ _____ _____    ______ ____
ROOT
ATOM      1  C   UNL     1       2.791   3.207  19.574  0.00  0.00    +0.000 A 
ATOM      2  C   UNL     1       1.665   2.413  19.741  0.00  0.00    +0.000 A 
ATOM      3  C   UNL     1       0.608   3.230  20.192  0.00  0.00    +0.000 A 
ATOM      4  C   UNL     1       1.106   4.506  20.303  0.00  0.00    +0.000 A 
ATOM      5  N   UNL     1       2.430   4.497  19.920  0.00  0.00    +0.000 N 
ENDROOT
BRANCH   1   6
ATOM      6  C   UNL     1       4.111   2.784  18.999  0.00  0.00    +0.000 C 
BRANCH   6   7
ATOM      7  C   UNL     1       4.355   3.197  17.546  0.00  0.00    +0.000 C 
BRANCH   7   8
ATOM      8  C   UNL     1       5.304   4.400  17.420  0.00  0.00    +0.000 C 
BRANCH   8   9
ATOM      9  C   UNL     1       5.426   4.922  15.987  0.00  0.00    +0.000 C 
BRANCH   9  11
ATOM     10  O   UNL     1       7.840   4.653  16.143  0.00  0.00    +0.000 OA
ATOM     11  C   UNL     1       6.851   4.954  15.481  0.00  0.00    +0.000 C 
ATOM     12  N   UNL     1       6.941   5.370  14.173  0.00  0.00    +0.000 N 
ATOM     13  H   UNL     1       6.178   5.771  13.640  0.00  0.00    +0.000 HD
BRANCH  12  14
ATOM     14  O   UNL     1       8.242   5.502  13.639  0.00  0.00    +0.000 OA
ATOM     15  H   UNL     1       8.104   6.147  12.912  0.00  0.00    +0.000 HD
ENDBRANCH  12  14
ENDBRANCH   9  11
ENDBRANCH   8   9
ENDBRANCH   7   8
ENDBRANCH   6   7
ENDBRANCH   1   6
BRANCH   5  16
ATOM     16  C   UNL     1       3.258   5.705  19.937  0.00  0.00    +0.000 C 
BRANCH  16  17
ATOM     17  C   UNL     1       2.560   6.988  19.540  0.00  0.00    +0.000 A 
ATOM     18  C   UNL     1       2.619   7.388  18.196  0.00  0.00    +0.000 A 
ATOM     19  C   UNL     1       1.970   8.545  17.766  0.00  0.00    +0.000 A 
ATOM     20  C   UNL     1       1.250   9.320  18.678  0.00  0.00    +0.000 A 
ATOM     21  C   UNL     1       1.162   8.959  20.030  0.00  0.00    +0.000 A 
ATOM     22  C   UNL     1       1.829   7.785  20.435  0.00  0.00    +0.000 A 
BRANCH  21  23
ATOM     23  C   UNL     1       0.375   9.750  21.006  0.00  0.00    +0.000 A 
ATOM     24  C   UNL     1      -0.209  10.979  20.654  0.00  0.00    +0.000 A 
ATOM     25  C   UNL     1      -0.996  11.697  21.562  0.00  0.00    +0.000 A 
ATOM     26  C   UNL     1      -1.219  11.198  22.841  0.00  0.00    +0.000 A 
ATOM     27  C   UNL     1      -0.645   9.989  23.219  0.00  0.00    +0.000 A 
ATOM     28  C   UNL     1       0.149   9.280  22.314  0.00  0.00    +0.000 A 
ENDBRANCH  21  23
ENDBRANCH  16  17
ENDBRANCH   5  16
TORSDOF 9
ENDMDL
