MODEL 1
REMARK VINA RESULT:      -6.9      0.000      0.000
REMARK  Name = 
REMARK  2 active torsions:
REMARK  status: ('A' for Active; 'I' for Inactive)
REMARK    1  A    between atoms: O_1  and  C_2
REMARK    2  A    between atoms: C_2  and  CA_3
REMARK                            x       y       z     vdW  Elec       q    Type
REMARK                         _______ _______ _______ _____ _____    ______ ____
ROOT
ATOM      1  CA  UNL     1       6.787   5.362  18.075  0.00  0.00    +0.000 A 
ATOM      2  C   UNL     1       7.246   4.709  16.955  0.00  0.00    +0.000 A 
ATOM      3  C   UNL     1       6.296   4.042  16.223  0.00  0.00    +0.000 A 
ATOM      4  N   UNL     1       4.995   3.992  16.562  0.00  0.00    +0.000 NA
ATOM      5  C   UNL     1       4.614   4.666  17.659  0.00  0.00    +0.000 A 
ATOM      6  N   UNL     1       3.293   4.622  18.054  0.00  0.00    +0.000 N 
ATOM      7  C   UNL     1       2.758   5.762  18.775  0.00  0.00    +0.000 C 
ATOM      8  C   UNL     1       2.651   5.432  20.261  0.00  0.00    +0.000 C 
ATOM      9  C   UNL     1       1.526   4.453  20.601  0.00  0.00    +0.000 C 
ATOM     10  C   UNL     1       1.540   3.134  19.823  0.00  0.00    +0.000 C 
ATOM     11  C   UNL     1       1.210   3.304  18.337  0.00  0.00    +0.000 C 
ATOM     12  C   UNL     1       2.419   3.636  17.454  0.00  0.00    +0.000 C 
ATOM     13  N   UNL     1       5.481   5.354  18.421  0.00  0.00    +0.000 NA
ENDROOT
BRANCH   1  14
ATOM     14  C   UNL     1       7.729   6.041  19.038  0.00  0.00    +0.000 C 
BRANCH  14  15
ATOM     15  O   UNL     1       7.756   5.403  20.314  0.00  0.00    +0.000 OA
ATOM     16  H   UNL     1       7.090   4.695  20.274  0.00  0.00    +0.000 HD
ENDBRANCH  14  15
ENDBRANCH   1  14
TORSDOF 2
ENDMDL
MODEL 2
REMARK VINA RESULT:      -6.8      1.963      3.004
REMARK  Name = 
REMARK  2 active torsions:
REMARK  status: ('A' for Active; 'I' for Inactive)
REMARK    1  A    between atoms: O_1  and  C_2
REMARK    2  A    between atoms: C_2  and  CA_3
REMARK                            x       y       z     vdW  Elec       q    Type
REMARK                         _______ _______ _______ _____ _____    ______ ____
ROOT
ATOM      1  CA  UNL     1       6.240   4.716  16.786  0.00  0.00    +0.000 A 
ATOM      2  C   UNL     1       7.078   5.482  17.562  0.00  0.00    +0.000 A 
ATOM      3  C   UNL     1       6.823   5.465  18.910  0.00  0.00    +0.000 A 
ATOM      4  N   UNL     1       5.814   4.772  19.469  0.00  0.00    +0.000 NA
ATOM      5  C   UNL     1       5.045   4.032  18.654  0.00  0.00    +0.000 A 
ATOM      6  N   UNL     1       3.986   3.324  19.182  0.00  0.00    +0.000 N 
ATOM      7  C   UNL     1       3.578   2.104  18.511  0.00  0.00    +0.000 C 
ATOM      8  C   UNL     1       2.306   2.355  17.706  0.00  0.00    +0.000 C 
ATOM      9  C   UNL     1       1.051   2.524  18.563  0.00  0.00    +0.000 C 
ATOM     10  C   UNL     1       1.137   3.592  19.659  0.00  0.00    +0.000 C 
ATOM     11  C   UNL     1       2.099   3.221  20.792  0.00  0.00    +0.000 C 
ATOM     12  C   UNL     1       3.559   3.616  20.535  0.00  0.00    +0.000 C 
ATOM     13  N   UNL     1       5.238   3.985  17.325  0.00  0.00    +0.000 NA
ENDROOT
BRANCH   1  14
ATOM     14  C   UNL     1       6.325   4.725  15.281  0.00  0.00    +0.000 C 
BRANCH  14  15
ATOM     15  O   UNL     1       7.533   5.319  14.807  0.00  0.00    +0.000 OA
ATOM     16  H   UNL     1       7.271   5.927  14.094  0.00  0.00    +0.000 HD
ENDBRANCH  14  15
ENDBRANCH   1  14
TORSDOF 2
ENDMDL
MODEL 3
REMARK VINA RESULT:      -6.6      1.243      1.243
REMARK  Name = 
REMARK  2 active torsions:
REMARK  status: ('A' for Active; 'I' for Inactive)
REMARK    1  A    between atoms: O_1  and  C_2
REMARK    2  A    between atoms: C_2  and  CA_3
REMARK                            x       y       z     vdW  Elec       q    Type
REMARK                         _______ _______ _______ _____ _____    ______ ____
ROOT
ATOM      1  CA  UNL     1       6.546   5.763  17.236  0.00  0.00    +0.000 A 
ATOM      2  C   UNL     1       6.977   4.887  16.267  0.00  0.00    +0.000 A 
ATOM      3  C   UNL     1       6.045   3.982  15.825  0.00  0.00    +0.000 A 
ATOM      4  N   UNL     1       4.788   3.916  16.299  0.00  0.00    +0.000 NA
ATOM      5  C   UNL     1       4.429   4.813  17.232  0.00  0.00    +0.000 A 
ATOM      6  N   UNL     1       3.157   4.766  17.762  0.00  0.00    +0.000 N 
ATOM      7  C   UNL     1       2.567   6.005  18.234  0.00  0.00    +0.000 C 
ATOM      8  C   UNL     1       2.616   6.054  19.759  0.00  0.00    +0.000 C 
ATOM      9  C   UNL     1       1.630   5.106  20.443  0.00  0.00    +0.000 C 
ATOM     10  C   UNL     1       1.716   3.639  20.014  0.00  0.00    +0.000 C 
ATOM     11  C   UNL     1       1.251   3.400  18.574  0.00  0.00    +0.000 C 
ATOM     12  C   UNL     1       2.344   3.593  17.516  0.00  0.00    +0.000 C 
ATOM     13  N   UNL     1       5.279   5.739  17.707  0.00  0.00    +0.000 NA
ENDROOT
BRANCH   1  14
ATOM     14  C   UNL     1       7.487   6.737  17.900  0.00  0.00    +0.000 C 
BRANCH  14  15
ATOM     15  O   UNL     1       7.726   7.894  17.100  0.00  0.00    +0.000 OA
ATOM     16  H   UNL     1       7.796   7.577  16.183  0.00  0.00    +0.000 HD
ENDBRANCH  14  15
ENDBRANCH   1  14
TORSDOF 2
ENDMDL
MODEL 4
REMARK VINA RESULT:      -6.4      1.498      1.780
REMARK  Name = 
REMARK  2 active torsions:
REMARK  status: ('A' for Active; 'I' for Inactive)
REMARK    1  A    between atoms: O_1  and  C_2
REMARK    2  A    between atoms: C_2  and  CA_3
REMARK                            x       y       z     vdW  Elec       q    Type
REMARK                         _______ _______ _______ _____ _____    ______ ____
ROOT
ATOM      1  CA  UNL     1       6.872   5.849  18.593  0.00  0.00    +0.000 A 
ATOM      2  C   UNL     1       6.920   6.766  17.570  0.00  0.00    +0.000 A 
ATOM      3  C   UNL     1       5.723   7.038  16.956  0.00  0.00    +0.000 A 
ATOM      4  N   UNL     1       4.562   6.448  17.295  0.00  0.00    +0.000 NA
ATOM      5  C   UNL     1       4.585   5.574  18.314  0.00  0.00    +0.000 A 
ATOM      6  N   UNL     1       3.421   4.930  18.679  0.00  0.00    +0.000 N 
ATOM      7  C   UNL     1       3.271   4.523  20.064  0.00  0.00    +0.000 C 
ATOM      8  C   UNL     1       3.504   3.021  20.191  0.00  0.00    +0.000 C 
ATOM      9  C   UNL     1       2.371   2.165  19.623  0.00  0.00    +0.000 C 
ATOM     10  C   UNL     1       1.982   2.462  18.172  0.00  0.00    +0.000 C 
ATOM     11  C   UNL     1       1.307   3.826  17.993  0.00  0.00    +0.000 C 
ATOM     12  C   UNL     1       2.282   4.991  17.787  0.00  0.00    +0.000 C 
ATOM     13  N   UNL     1       5.714   5.265  18.974  0.00  0.00    +0.000 NA
ENDROOT
BRANCH   1  14
ATOM     14  C   UNL     1       8.122   5.365  19.283  0.00  0.00    +0.000 C 
BRANCH  14  15
ATOM     15  O   UNL     1       8.019   5.429  20.705  0.00  0.00    +0.000 OA
ATOM     16  H   UNL     1       8.899   5.690  21.027  0.00  0.00    +0.000 HD
ENDBRANCH  14  15
ENDBRANCH   1  14
TORSDOF 2
ENDMDL
MODEL 5
REMARK VINA RESULT:      -6.4      3.722      5.381
REMARK  Name = 
REMARK  2 active torsions:
REMARK  status: ('A' for Active; 'I' for Inactive)
REMARK    1  A    between atoms: O_1  and  C_2
REMARK    2  A    between atoms: C_2  and  CA_3
REMARK                            x       y       z     vdW  Elec       q    Type
REMARK                         _______ _______ _______ _____ _____    ______ ____
ROOT
ATOM      1  CA  UNL     1       6.266   3.624  12.567  0.00  0.00    +0.000 A 
ATOM      2  C   UNL     1       7.300   4.313  11.977  0.00  0.00    +0.000 A 
ATOM      3  C   UNL     1       7.955   5.210  12.783  0.00  0.00    +0.000 A 
ATOM      4  N   UNL     1       7.622   5.439  14.066  0.00  0.00    +0.000 NA
ATOM      5  C   UNL     1       6.614   4.718  14.583  0.00  0.00    +0.000 A 
ATOM      6  N   UNL     1       6.225   4.937  15.888  0.00  0.00    +0.000 N 
ATOM      7  C   UNL     1       5.646   3.828  16.623  0.00  0.00    +0.000 C 
ATOM      8  C   UNL     1       4.132   4.001  16.713  0.00  0.00    +0.000 C 
ATOM      9  C   UNL     1       3.688   5.110  17.669  0.00  0.00    +0.000 C 
ATOM     10  C   UNL     1       4.307   6.488  17.416  0.00  0.00    +0.000 C 
ATOM     11  C   UNL     1       5.806   6.546  17.731  0.00  0.00    +0.000 C 
ATOM     12  C   UNL     1       6.712   6.118  16.570  0.00  0.00    +0.000 C 
ATOM     13  N   UNL     1       5.931   3.811  13.862  0.00  0.00    +0.000 NA
ENDROOT
BRANCH   1  14
ATOM     14  C   UNL     1       5.383   2.692  11.777  0.00  0.00    +0.000 C 
BRANCH  14  15
ATOM     15  O   UNL     1       5.989   1.418  11.561  0.00  0.00    +0.000 OA
ATOM     16  H   UNL     1       6.921   1.598  11.344  0.00  0.00    +0.000 HD
ENDBRANCH  14  15
ENDBRANCH   1  14
TORSDOF 2
ENDMDL
MODEL 6
REMARK VINA RESULT:      -6.4      2.148      3.003
REMARK  Name = 
REMARK  2 active torsions:
REMARK  status: ('A' for Active; 'I' for Inactive)
REMARK    1  A    between atoms: O_1  and  C_2
REMARK    2  A    between atoms: C_2  and  CA_3
REMARK                            x       y       z     vdW  Elec       q    Type
REMARK                         _______ _______ _______ _____ _____    ______ ____
ROOT
ATOM      1  CA  UNL     1       5.451   5.245  16.231  0.00  0.00    +0.000 A 
ATOM      2  C   UNL     1       5.313   6.612  16.170  0.00  0.00    +0.000 A 
ATOM      3  C   UNL     1       4.448   7.165  17.080  0.00  0.00    +0.000 A 
ATOM      4  N   UNL     1       3.748   6.444  17.975  0.00  0.00    +0.000 NA
ATOM      5  C   UNL     1       3.944   5.115  17.990  0.00  0.00    +0.000 A 
ATOM      6  N   UNL     1       3.231   4.336  18.877  0.00  0.00    +0.000 N 
ATOM      7  C   UNL     1       3.837   3.104  19.344  0.00  0.00    +0.000 C 
ATOM      8  C   UNL     1       3.208   1.912  18.628  0.00  0.00    +0.000 C 
ATOM      9  C   UNL     1       1.780   1.599  19.079  0.00  0.00    +0.000 C 
ATOM     10  C   UNL     1       0.793   2.768  19.010  0.00  0.00    +0.000 C 
ATOM     11  C   UNL     1       1.085   3.870  20.034  0.00  0.00    +0.000 C 
ATOM     12  C   UNL     1       2.096   4.921  19.560  0.00  0.00    +0.000 C 
ATOM     13  N   UNL     1       4.785   4.500  17.141  0.00  0.00    +0.000 NA
ENDROOT
BRANCH   1  14
ATOM     14  C   UNL     1       6.277   4.486  15.223  0.00  0.00    +0.000 C 
BRANCH  14  15
ATOM     15  O   UNL     1       7.464   5.187  14.854  0.00  0.00    +0.000 OA
ATOM     16  H   UNL     1       8.038   4.532  14.419  0.00  0.00    +0.000 HD
ENDBRANCH  14  15
ENDBRANCH   1  14
TORSDOF 2
ENDMDL
MODEL 7
REMARK VINA RESULT:      -6.4      2.119      2.995
REMARK  Name = 
REMARK  2 active torsions:
REMARK  status: ('A' for Active; 'I' for Inactive)
REMARK    1  A    between atoms: O_1  and  C_2
REMARK    2  A    between atoms: C_2  and  CA_3
REMARK                            x       y       z     vdW  Elec       q    Type
REMARK                         _______ _______ _______ _____ _____    ______ ____
ROOT
ATOM      1  CA  UNL     1       5.430   5.708  17.192  0.00  0.00    +0.000 A 
ATOM      2  C   UNL     1       6.488   6.083  17.986  0.00  0.00    +0.000 A 
ATOM      3  C   UNL     1       6.552   5.481  19.217  0.00  0.00    +0.000 A 
ATOM      4  N   UNL     1       5.644   4.592  19.659  0.00  0.00    +0.000 NA
ATOM      5  C   UNL     1       4.646   4.259  18.825  0.00  0.00    +0.000 A 
ATOM      6  N   UNL     1       3.681   3.368  19.247  0.00  0.00    +0.000 N 
ATOM      7  C   UNL     1       3.024   2.548  18.246  0.00  0.00    +0.000 C 
ATOM      8  C   UNL     1       1.627   3.094  17.964  0.00  0.00    +0.000 C 
ATOM      9  C   UNL     1       0.624   2.848  19.093  0.00  0.00    +0.000 C 
ATOM     10  C   UNL     1       1.054   3.340  20.478  0.00  0.00    +0.000 C 
ATOM     11  C   UNL     1       2.217   2.539  21.072  0.00  0.00    +0.000 C 
ATOM     12  C   UNL     1       3.606   3.039  20.655  0.00  0.00    +0.000 C 
ATOM     13  N   UNL     1       4.521   4.794  17.599  0.00  0.00    +0.000 NA
ENDROOT
BRANCH   1  14
ATOM     14  C   UNL     1       5.164   6.368  15.862  0.00  0.00    +0.000 C 
BRANCH  14  15
ATOM     15  O   UNL     1       5.978   5.836  14.818  0.00  0.00    +0.000 OA
ATOM     16  H   UNL     1       6.896   5.900  15.134  0.00  0.00    +0.000 HD
ENDBRANCH  14  15
ENDBRANCH   1  14
TORSDOF 2
ENDMDL
MODEL 8
REMARK VINA RESULT:      -6.2      2.428      4.866
REMARK  Name = 
REMARK  2 active torsions:
REMARK  status: ('A' for Active; 'I' for Inactive)
REMARK    1  A    between atoms: O_1  and  C_2
REMARK    2  A    between atoms: C_2  and  CA_3
REMARK                            x       y       z     vdW  Elec       q    Type
REMARK                         _______ _______ _______ _____ _____    ______ ____
ROOT
ATOM      1  CA  UNL     1       2.477   3.160  20.154  0.00  0.00    +0.000 A 
ATOM      2  C   UNL     1       1.577   2.349  19.503  0.00  0.00    +0.000 A 
ATOM      3  C   UNL     1       1.817   2.143  18.168  0.00  0.00    +0.000 A 
ATOM      4  N   UNL     1       2.846   2.699  17.502  0.00  0.00    +0.000 NA
ATOM      5  C   UNL     1       3.695   3.467  18.203  0.00  0.00    +0.000 A 
ATOM      6  N   UNL     1       4.751   4.074  17.555  0.00  0.00    +0.000 N 
ATOM      7  C   UNL     1       5.957   4.340  18.315  0.00  0.00    +0.000 C 
ATOM      8  C   UNL     1       6.028   5.822  18.672  0.00  0.00    +0.000 C 
ATOM      9  C   UNL     1       6.351   6.733  17.486  0.00  0.00    +0.000 C 
ATOM     10  C   UNL     1       5.435   6.583  16.269  0.00  0.00    +0.000 C 
ATOM     11  C   UNL     1       5.607   5.245  15.541  0.00  0.00    +0.000 C 
ATOM     12  C   UNL     1       4.753   4.104  16.107  0.00  0.00    +0.000 C 
ATOM     13  N   UNL     1       3.537   3.706  19.516  0.00  0.00    +0.000 NA
ENDROOT
BRANCH   1  14
ATOM     14  C   UNL     1       2.280   3.569  21.591  0.00  0.00    +0.000 C 
BRANCH  14  15
ATOM     15  O   UNL     1       1.551   2.597  22.339  0.00  0.00    +0.000 OA
ATOM     16  H   UNL     1       1.314   1.895  21.708  0.00  0.00    +0.000 HD
ENDBRANCH  14  15
ENDBRANCH   1  14
TORSDOF 2
ENDMDL
MODEL 9
REMARK VINA RESULT:      -6.2      2.325      3.376
REMARK  Name = 
REMARK  2 active torsions:
REMARK  status: ('A' for Active; 'I' for Inactive)
REMARK    1  A    between atoms: O_1  and  C_2
REMARK    2  A    between atoms: C_2  and  CA_3
REMARK                            x       y       z     vdW  Elec       q    Type
REMARK                         _______ _______ _______ _____ _____    ______ ____
ROOT
ATOM      1  CA  UNL     1       5.850   4.339  15.317  0.00  0.00    +0.000 A 
ATOM      2  C   UNL     1       6.900   5.145  15.690  0.00  0.00    +0.000 A 
ATOM      3  C   UNL     1       7.002   5.406  17.033  0.00  0.00    +0.000 A 
ATOM      4  N   UNL     1       6.137   4.937  17.951  0.00  0.00    +0.000 NA
ATOM      5  C   UNL     1       5.146   4.142  17.519  0.00  0.00    +0.000 A 
ATOM      6  N   UNL     1       4.224   3.657  18.423  0.00  0.00    +0.000 N 
ATOM      7  C   UNL     1       3.593   2.382  18.138  0.00  0.00    +0.000 C 
ATOM      8  C   UNL     1       2.171   2.609  17.633  0.00  0.00    +0.000 C 
ATOM      9  C   UNL     1       1.191   3.064  18.716  0.00  0.00    +0.000 C 
ATOM     10  C   UNL     1       1.614   4.301  19.513  0.00  0.00    +0.000 C 
ATOM     11  C   UNL     1       2.816   4.051  20.429  0.00  0.00    +0.000 C 
ATOM     12  C   UNL     1       4.178   4.239  19.749  0.00  0.00    +0.000 C 
ATOM     13  N   UNL     1       4.985   3.828  16.222  0.00  0.00    +0.000 NA
ENDROOT
BRANCH   1  14
ATOM     14  C   UNL     1       5.542   4.059  13.868  0.00  0.00    +0.000 C 
BRANCH  14  15
ATOM     15  O   UNL     1       6.537   3.246  13.247  0.00  0.00    +0.000 OA
ATOM     16  H   UNL     1       6.063   2.491  12.858  0.00  0.00    +0.000 HD
ENDBRANCH  14  15
ENDBRANCH   1  14
TORSDOF 2
ENDMDL
