MODEL 1
REMARK VINA RESULT:      -7.3      0.000      0.000
REMARK  Name = 
REMARK  3 active torsions:
REMARK  status: ('A' for Active; 'I' for Inactive)
REMARK    1  A    between atoms: C_1  and  C_2
REMARK    2  A    between atoms: C_6  and  C_7
REMARK    3  A    between atoms: C_8  and  N_9
REMARK                            x       y       z     vdW  Elec       q    Type
REMARK                         _______ _______ _______ _____ _____    ______ ____
ROOT
ATOM      1  N   UNL     1       4.349   4.223  18.380  0.00  0.00    +0.000 N 
ATOM      2  S   UNL     1       5.933   4.855  18.590  0.00  0.00    +0.000 S 
ATOM      3  C   UNL     1       6.229   4.749  16.855  0.00  0.00    +0.000 A 
ATOM      4  C   UNL     1       7.345   5.190  16.166  0.00  0.00    +0.000 A 
ATOM      5  C   UNL     1       7.386   5.016  14.780  0.00  0.00    +0.000 A 
ATOM      6  C   UNL     1       6.323   4.399  14.103  0.00  0.00    +0.000 A 
ATOM      7  C   UNL     1       5.194   3.967  14.802  0.00  0.00    +0.000 A 
ATOM      8  C   UNL     1       5.162   4.164  16.178  0.00  0.00    +0.000 A 
ATOM      9  C   UNL     1       4.038   3.837  17.077  0.00  0.00    +0.000 A 
ATOM     10  O   UNL     1       3.004   3.346  16.644  0.00  0.00    +0.000 OA
ENDROOT
BRANCH   1  18
ATOM     11  C   UNL     1       2.475   6.357  19.140  0.00  0.00    +0.000 C 
ATOM     12  C   UNL     1       2.613   5.060  19.894  0.00  0.00    +0.000 A 
ATOM     13  C   UNL     1       1.762   4.841  20.991  0.00  0.00    +0.000 A 
ATOM     14  C   UNL     1       1.781   3.632  21.678  0.00  0.00    +0.000 A 
ATOM     15  C   UNL     1       2.656   2.622  21.286  0.00  0.00    +0.000 A 
ATOM     16  C   UNL     1       3.527   2.806  20.199  0.00  0.00    +0.000 A 
ATOM     17  C   UNL     1       4.483   1.692  19.858  0.00  0.00    +0.000 C 
ATOM     18  C   UNL     1       3.502   4.030  19.493  0.00  0.00    +0.000 A 
ENDBRANCH   1  18
TORSDOF 1
ENDMDL
MODEL 2
REMARK VINA RESULT:      -7.2      0.033      2.058
REMARK  Name = 
REMARK  3 active torsions:
REMARK  status: ('A' for Active; 'I' for Inactive)
REMARK    1  A    between atoms: C_1  and  C_2
REMARK    2  A    between atoms: C_6  and  C_7
REMARK    3  A    between atoms: C_8  and  N_9
REMARK                            x       y       z     vdW  Elec       q    Type
REMARK                         _______ _______ _______ _____ _____    ______ ____
ROOT
ATOM      1  N   UNL     1       4.323   4.217  18.351  0.00  0.00    +0.000 N 
ATOM      2  S   UNL     1       5.909   4.839  18.573  0.00  0.00    +0.000 S 
ATOM      3  C   UNL     1       6.212   4.748  16.838  0.00  0.00    +0.000 A 
ATOM      4  C   UNL     1       7.332   5.191  16.157  0.00  0.00    +0.000 A 
ATOM      5  C   UNL     1       7.377   5.031  14.770  0.00  0.00    +0.000 A 
ATOM      6  C   UNL     1       6.313   4.426  14.083  0.00  0.00    +0.000 A 
ATOM      7  C   UNL     1       5.180   3.992  14.773  0.00  0.00    +0.000 A 
ATOM      8  C   UNL     1       5.144   4.175  16.152  0.00  0.00    +0.000 A 
ATOM      9  C   UNL     1       4.015   3.845  17.043  0.00  0.00    +0.000 A 
ATOM     10  O   UNL     1       2.981   3.363  16.601  0.00  0.00    +0.000 OA
ENDROOT
BRANCH   1  18
ATOM     11  C   UNL     1       4.477   1.686  19.838  0.00  0.00    +0.000 C 
ATOM     12  C   UNL     1       3.509   2.791  20.171  0.00  0.00    +0.000 A 
ATOM     13  C   UNL     1       2.669   2.619  21.285  0.00  0.00    +0.000 A 
ATOM     14  C   UNL     1       1.813   3.635  21.695  0.00  0.00    +0.000 A 
ATOM     15  C   UNL     1       1.774   4.838  20.994  0.00  0.00    +0.000 A 
ATOM     16  C   UNL     1       2.592   5.045  19.872  0.00  0.00    +0.000 A 
ATOM     17  C   UNL     1       2.465   6.349  19.129  0.00  0.00    +0.000 C 
ATOM     18  C   UNL     1       3.471   4.017  19.459  0.00  0.00    +0.000 A 
ENDBRANCH   1  18
TORSDOF 1
ENDMDL
MODEL 3
REMARK VINA RESULT:      -7.2      2.552      3.441
REMARK  Name = 
REMARK  3 active torsions:
REMARK  status: ('A' for Active; 'I' for Inactive)
REMARK    1  A    between atoms: C_1  and  C_2
REMARK    2  A    between atoms: C_6  and  C_7
REMARK    3  A    between atoms: C_8  and  N_9
REMARK                            x       y       z     vdW  Elec       q    Type
REMARK                         _______ _______ _______ _____ _____    ______ ____
ROOT
ATOM      1  N   UNL     1       3.926   4.791  18.675  0.00  0.00    +0.000 N 
ATOM      2  S   UNL     1       3.851   6.083  17.546  0.00  0.00    +0.000 S 
ATOM      3  C   UNL     1       5.554   6.452  17.822  0.00  0.00    +0.000 A 
ATOM      4  C   UNL     1       6.327   7.389  17.161  0.00  0.00    +0.000 A 
ATOM      5  C   UNL     1       7.669   7.527  17.526  0.00  0.00    +0.000 A 
ATOM      6  C   UNL     1       8.218   6.736  18.549  0.00  0.00    +0.000 A 
ATOM      7  C   UNL     1       7.436   5.783  19.204  0.00  0.00    +0.000 A 
ATOM      8  C   UNL     1       6.108   5.648  18.815  0.00  0.00    +0.000 A 
ATOM      9  C   UNL     1       5.145   4.659  19.339  0.00  0.00    +0.000 A 
ATOM     10  O   UNL     1       5.474   3.850  20.196  0.00  0.00    +0.000 OA
ENDROOT
BRANCH   1  18
ATOM     11  C   UNL     1       3.615   2.176  17.368  0.00  0.00    +0.000 C 
ATOM     12  C   UNL     1       2.596   2.765  18.308  0.00  0.00    +0.000 A 
ATOM     13  C   UNL     1       1.459   1.998  18.612  0.00  0.00    +0.000 A 
ATOM     14  C   UNL     1       0.522   2.447  19.537  0.00  0.00    +0.000 A 
ATOM     15  C   UNL     1       0.700   3.676  20.167  0.00  0.00    +0.000 A 
ATOM     16  C   UNL     1       1.820   4.475  19.884  0.00  0.00    +0.000 A 
ATOM     17  C   UNL     1       1.928   5.815  20.563  0.00  0.00    +0.000 C 
ATOM     18  C   UNL     1       2.779   4.015  18.952  0.00  0.00    +0.000 A 
ENDBRANCH   1  18
TORSDOF 1
ENDMDL
MODEL 4
REMARK VINA RESULT:      -7.2      2.547      2.992
REMARK  Name = 
REMARK  3 active torsions:
REMARK  status: ('A' for Active; 'I' for Inactive)
REMARK    1  A    between atoms: C_1  and  C_2
REMARK    2  A    between atoms: C_6  and  C_7
REMARK    3  A    between atoms: C_8  and  N_9
REMARK                            x       y       z     vdW  Elec       q    Type
REMARK                         _______ _______ _______ _____ _____    ______ ____
ROOT
ATOM      1  N   UNL     1       3.943   4.770  18.691  0.00  0.00    +0.000 N 
ATOM      2  S   UNL     1       3.851   6.060  17.559  0.00  0.00    +0.000 S 
ATOM      3  C   UNL     1       5.553   6.443  17.825  0.00  0.00    +0.000 A 
ATOM      4  C   UNL     1       6.314   7.385  17.158  0.00  0.00    +0.000 A 
ATOM      5  C   UNL     1       7.657   7.534  17.516  0.00  0.00    +0.000 A 
ATOM      6  C   UNL     1       8.218   6.750  18.536  0.00  0.00    +0.000 A 
ATOM      7  C   UNL     1       7.448   5.791  19.197  0.00  0.00    +0.000 A 
ATOM      8  C   UNL     1       6.118   5.645  18.816  0.00  0.00    +0.000 A 
ATOM      9  C   UNL     1       5.167   4.650  19.348  0.00  0.00    +0.000 A 
ATOM     10  O   UNL     1       5.506   3.844  20.204  0.00  0.00    +0.000 OA
ENDROOT
BRANCH   1  18
ATOM     11  C   UNL     1       1.929   5.799  20.570  0.00  0.00    +0.000 C 
ATOM     12  C   UNL     1       1.836   4.451  19.902  0.00  0.00    +0.000 A 
ATOM     13  C   UNL     1       0.698   3.667  20.156  0.00  0.00    +0.000 A 
ATOM     14  C   UNL     1       0.511   2.452  19.507  0.00  0.00    +0.000 A 
ATOM     15  C   UNL     1       1.462   1.994  18.599  0.00  0.00    +0.000 A 
ATOM     16  C   UNL     1       2.616   2.745  18.324  0.00  0.00    +0.000 A 
ATOM     17  C   UNL     1       3.629   2.170  17.370  0.00  0.00    +0.000 C 
ATOM     18  C   UNL     1       2.803   3.986  18.975  0.00  0.00    +0.000 A 
ENDBRANCH   1  18
TORSDOF 1
ENDMDL
MODEL 5
REMARK VINA RESULT:      -7.1      1.369      1.807
REMARK  Name = 
REMARK  3 active torsions:
REMARK  status: ('A' for Active; 'I' for Inactive)
REMARK    1  A    between atoms: C_1  and  C_2
REMARK    2  A    between atoms: C_6  and  C_7
REMARK    3  A    between atoms: C_8  and  N_9
REMARK                            x       y       z     vdW  Elec       q    Type
REMARK                         _______ _______ _______ _____ _____    ______ ____
ROOT
ATOM      1  N   UNL     1       4.282   4.060  18.359  0.00  0.00    +0.000 N 
ATOM      2  S   UNL     1       3.581   3.783  16.815  0.00  0.00    +0.000 S 
ATOM      3  C   UNL     1       5.090   4.240  16.024  0.00  0.00    +0.000 A 
ATOM      4  C   UNL     1       5.378   4.187  14.672  0.00  0.00    +0.000 A 
ATOM      5  C   UNL     1       6.645   4.593  14.242  0.00  0.00    +0.000 A 
ATOM      6  C   UNL     1       7.601   5.052  15.162  0.00  0.00    +0.000 A 
ATOM      7  C   UNL     1       7.309   5.092  16.527  0.00  0.00    +0.000 A 
ATOM      8  C   UNL     1       6.049   4.668  16.938  0.00  0.00    +0.000 A 
ATOM      9  C   UNL     1       5.577   4.575  18.333  0.00  0.00    +0.000 A 
ATOM     10  O   UNL     1       6.304   4.880  19.269  0.00  0.00    +0.000 OA
ENDROOT
BRANCH   1  18
ATOM     11  C   UNL     1       2.504   6.210  19.286  0.00  0.00    +0.000 C 
ATOM     12  C   UNL     1       2.682   4.903  20.014  0.00  0.00    +0.000 A 
ATOM     13  C   UNL     1       1.918   4.683  21.173  0.00  0.00    +0.000 A 
ATOM     14  C   UNL     1       1.974   3.466  21.843  0.00  0.00    +0.000 A 
ATOM     15  C   UNL     1       2.801   2.450  21.373  0.00  0.00    +0.000 A 
ATOM     16  C   UNL     1       3.586   2.634  20.223  0.00  0.00    +0.000 A 
ATOM     17  C   UNL     1       4.496   1.512  19.796  0.00  0.00    +0.000 C 
ATOM     18  C   UNL     1       3.523   3.866  19.534  0.00  0.00    +0.000 A 
ENDBRANCH   1  18
TORSDOF 1
ENDMDL
MODEL 6
REMARK VINA RESULT:      -7.1      1.367      2.736
REMARK  Name = 
REMARK  3 active torsions:
REMARK  status: ('A' for Active; 'I' for Inactive)
REMARK    1  A    between atoms: C_1  and  C_2
REMARK    2  A    between atoms: C_6  and  C_7
REMARK    3  A    between atoms: C_8  and  N_9
REMARK                            x       y       z     vdW  Elec       q    Type
REMARK                         _______ _______ _______ _____ _____    ______ ____
ROOT
ATOM      1  N   UNL     1       4.257   4.070  18.328  0.00  0.00    +0.000 N 
ATOM      2  S   UNL     1       3.572   3.800  16.775  0.00  0.00    +0.000 S 
ATOM      3  C   UNL     1       5.090   4.257  16.002  0.00  0.00    +0.000 A 
ATOM      4  C   UNL     1       5.393   4.210  14.653  0.00  0.00    +0.000 A 
ATOM      5  C   UNL     1       6.664   4.614  14.238  0.00  0.00    +0.000 A 
ATOM      6  C   UNL     1       7.611   5.068  15.170  0.00  0.00    +0.000 A 
ATOM      7  C   UNL     1       7.305   5.102  16.532  0.00  0.00    +0.000 A 
ATOM      8  C   UNL     1       6.041   4.679  16.928  0.00  0.00    +0.000 A 
ATOM      9  C   UNL     1       5.554   4.581  18.318  0.00  0.00    +0.000 A 
ATOM     10  O   UNL     1       6.272   4.881  19.262  0.00  0.00    +0.000 OA
ENDROOT
BRANCH   1  18
ATOM     11  C   UNL     1       4.492   1.529  19.788  0.00  0.00    +0.000 C 
ATOM     12  C   UNL     1       3.562   2.642  20.195  0.00  0.00    +0.000 A 
ATOM     13  C   UNL     1       2.803   2.472  21.365  0.00  0.00    +0.000 A 
ATOM     14  C   UNL     1       1.989   3.494  21.841  0.00  0.00    +0.000 A 
ATOM     15  C   UNL     1       1.911   4.702  21.151  0.00  0.00    +0.000 A 
ATOM     16  C   UNL     1       2.649   4.906  19.974  0.00  0.00    +0.000 A 
ATOM     17  C   UNL     1       2.482   6.216  19.249  0.00  0.00    +0.000 C 
ATOM     18  C   UNL     1       3.485   3.872  19.494  0.00  0.00    +0.000 A 
ENDBRANCH   1  18
TORSDOF 1
ENDMDL
MODEL 7
REMARK VINA RESULT:      -6.8      2.352      3.196
REMARK  Name = 
REMARK  3 active torsions:
REMARK  status: ('A' for Active; 'I' for Inactive)
REMARK    1  A    between atoms: C_1  and  C_2
REMARK    2  A    between atoms: C_6  and  C_7
REMARK    3  A    between atoms: C_8  and  N_9
REMARK                            x       y       z     vdW  Elec       q    Type
REMARK                         _______ _______ _______ _____ _____    ______ ____
ROOT
ATOM      1  N   UNL     1       4.045   4.686  18.851  0.00  0.00    +0.000 N 
ATOM      2  S   UNL     1       5.466   4.220  19.696  0.00  0.00    +0.000 S 
ATOM      3  C   UNL     1       6.380   5.511  18.916  0.00  0.00    +0.000 A 
ATOM      4  C   UNL     1       7.691   5.877  19.160  0.00  0.00    +0.000 A 
ATOM      5  C   UNL     1       8.236   6.940  18.434  0.00  0.00    +0.000 A 
ATOM      6  C   UNL     1       7.470   7.616  17.471  0.00  0.00    +0.000 A 
ATOM      7  C   UNL     1       6.143   7.250  17.237  0.00  0.00    +0.000 A 
ATOM      8  C   UNL     1       5.613   6.202  17.981  0.00  0.00    +0.000 A 
ATOM      9  C   UNL     1       4.222   5.714  17.926  0.00  0.00    +0.000 A 
ATOM     10  O   UNL     1       3.399   6.230  17.180  0.00  0.00    +0.000 OA
ENDROOT
BRANCH   1  18
ATOM     11  C   UNL     1       3.657   2.122  17.466  0.00  0.00    +0.000 C 
ATOM     12  C   UNL     1       2.619   2.755  18.356  0.00  0.00    +0.000 A 
ATOM     13  C   UNL     1       1.420   2.055  18.571  0.00  0.00    +0.000 A 
ATOM     14  C   UNL     1       0.457   2.544  19.447  0.00  0.00    +0.000 A 
ATOM     15  C   UNL     1       0.670   3.747  20.115  0.00  0.00    +0.000 A 
ATOM     16  C   UNL     1       1.852   4.480  19.920  0.00  0.00    +0.000 A 
ATOM     17  C   UNL     1       1.998   5.797  20.635  0.00  0.00    +0.000 C 
ATOM     18  C   UNL     1       2.837   3.979  19.038  0.00  0.00    +0.000 A 
ENDBRANCH   1  18
TORSDOF 1
ENDMDL
MODEL 8
REMARK VINA RESULT:      -6.7      2.356      2.700
REMARK  Name = 
REMARK  3 active torsions:
REMARK  status: ('A' for Active; 'I' for Inactive)
REMARK    1  A    between atoms: C_1  and  C_2
REMARK    2  A    between atoms: C_6  and  C_7
REMARK    3  A    between atoms: C_8  and  N_9
REMARK                            x       y       z     vdW  Elec       q    Type
REMARK                         _______ _______ _______ _____ _____    ______ ____
ROOT
ATOM      1  N   UNL     1       4.061   4.685  18.860  0.00  0.00    +0.000 N 
ATOM      2  S   UNL     1       5.501   4.224  19.675  0.00  0.00    +0.000 S 
ATOM      3  C   UNL     1       6.390   5.531  18.892  0.00  0.00    +0.000 A 
ATOM      4  C   UNL     1       7.702   5.906  19.117  0.00  0.00    +0.000 A 
ATOM      5  C   UNL     1       8.223   6.981  18.392  0.00  0.00    +0.000 A 
ATOM      6  C   UNL     1       7.435   7.659  17.449  0.00  0.00    +0.000 A 
ATOM      7  C   UNL     1       6.107   7.284  17.235  0.00  0.00    +0.000 A 
ATOM      8  C   UNL     1       5.600   6.224  17.978  0.00  0.00    +0.000 A 
ATOM      9  C   UNL     1       4.212   5.724  17.942  0.00  0.00    +0.000 A 
ATOM     10  O   UNL     1       3.372   6.240  17.217  0.00  0.00    +0.000 OA
ENDROOT
BRANCH   1  18
ATOM     11  C   UNL     1       2.012   5.789  20.656  0.00  0.00    +0.000 C 
ATOM     12  C   UNL     1       1.875   4.466  19.947  0.00  0.00    +0.000 A 
ATOM     13  C   UNL     1       0.680   3.746  20.118  0.00  0.00    +0.000 A 
ATOM     14  C   UNL     1       0.458   2.561  19.427  0.00  0.00    +0.000 A 
ATOM     15  C   UNL     1       1.429   2.068  18.559  0.00  0.00    +0.000 A 
ATOM     16  C   UNL     1       2.639   2.754  18.367  0.00  0.00    +0.000 A 
ATOM     17  C   UNL     1       3.667   2.141  17.453  0.00  0.00    +0.000 C 
ATOM     18  C   UNL     1       2.863   3.965  19.061  0.00  0.00    +0.000 A 
ENDBRANCH   1  18
TORSDOF 1
ENDMDL
MODEL 9
REMARK VINA RESULT:      -6.0      2.958      6.250
REMARK  Name = 
REMARK  3 active torsions:
REMARK  status: ('A' for Active; 'I' for Inactive)
REMARK    1  A    between atoms: C_1  and  C_2
REMARK    2  A    between atoms: C_6  and  C_7
REMARK    3  A    between atoms: C_8  and  N_9
REMARK                            x       y       z     vdW  Elec       q    Type
REMARK                         _______ _______ _______ _____ _____    ______ ____
ROOT
ATOM      1  N   UNL     1       2.862   6.765  18.466  0.00  0.00    +0.000 N 
ATOM      2  S   UNL     1       2.336   8.160  17.612  0.00  0.00    +0.000 S 
ATOM      3  C   UNL     1       1.614   8.815  19.082  0.00  0.00    +0.000 A 
ATOM      4  C   UNL     1       1.021  10.053  19.245  0.00  0.00    +0.000 A 
ATOM      5  C   UNL     1       0.508  10.389  20.501  0.00  0.00    +0.000 A 
ATOM      6  C   UNL     1       0.584   9.484  21.571  0.00  0.00    +0.000 A 
ATOM      7  C   UNL     1       1.194   8.239  21.404  0.00  0.00    +0.000 A 
ATOM      8  C   UNL     1       1.715   7.929  20.152  0.00  0.00    +0.000 A 
ATOM      9  C   UNL     1       2.449   6.699  19.796  0.00  0.00    +0.000 A 
ATOM     10  O   UNL     1       2.659   5.825  20.627  0.00  0.00    +0.000 OA
ENDROOT
BRANCH   1  18
ATOM     11  C   UNL     1       1.479   4.248  17.839  0.00  0.00    +0.000 C 
ATOM     12  C   UNL     1       2.927   4.507  17.513  0.00  0.00    +0.000 A 
ATOM     13  C   UNL     1       3.638   3.508  16.828  0.00  0.00    +0.000 A 
ATOM     14  C   UNL     1       4.952   3.718  16.425  0.00  0.00    +0.000 A 
ATOM     15  C   UNL     1       5.582   4.928  16.706  0.00  0.00    +0.000 A 
ATOM     16  C   UNL     1       4.907   5.948  17.396  0.00  0.00    +0.000 A 
ATOM     17  C   UNL     1       5.662   7.212  17.712  0.00  0.00    +0.000 C 
ATOM     18  C   UNL     1       3.567   5.740  17.798  0.00  0.00    +0.000 A 
ENDBRANCH   1  18
TORSDOF 1
ENDMDL
