MODEL 1
REMARK VINA RESULT:      -9.2      0.000      0.000
REMARK  Name = 
REMARK  5 active torsions:
REMARK  status: ('A' for Active; 'I' for Inactive)
REMARK    1  A    between atoms: C_1  and  S_2
REMARK    2  A    between atoms: S_2  and  C_5
REMARK    3  A    between atoms: C_8  and  C_9
REMARK    4  A    between atoms: N_14  and  C_15
REMARK    5  A    between atoms: C_15  and  C_16
REMARK                            x       y       z     vdW  Elec       q    Type
REMARK                         _______ _______ _______ _____ _____    ______ ____
ROOT
ATOM      1  C   UNL     1       1.688   8.376  19.294  0.00  0.00    +0.000 C 
ATOM      2  C   UNL     1       1.132   9.210  20.190  0.00  0.00    +0.000 C 
ATOM      3  S   UNL     1       0.843   8.991  21.862  0.00  0.00    +0.000 S 
ATOM      4  C   UNL     1      -0.045  10.510  21.990  0.00  0.00    +0.000 C 
ATOM      5  O   UNL     1      -0.417  10.956  23.061  0.00  0.00    +0.000 OA
ATOM      6  N   UNL     1      -0.169  11.095  20.764  0.00  0.00    +0.000 N 
ATOM      7  C   UNL     1       0.614  10.551  19.773  0.00  0.00    +0.000 C 
ATOM      8  O   UNL     1       0.938  11.088  18.722  0.00  0.00    +0.000 OA
ENDROOT
BRANCH   1  12
ATOM      9  C   UNL     1       3.048   4.327  19.550  0.00  0.00    +0.000 A 
ATOM     10  C   UNL     1       2.199   4.854  20.524  0.00  0.00    +0.000 A 
ATOM     11  C   UNL     1       1.826   6.191  20.451  0.00  0.00    +0.000 A 
ATOM     12  C   UNL     1       2.301   7.035  19.425  0.00  0.00    +0.000 A 
ATOM     13  C   UNL     1       3.199   6.502  18.493  0.00  0.00    +0.000 A 
ATOM     14  C   UNL     1       3.582   5.156  18.554  0.00  0.00    +0.000 A 
BRANCH   9  16
ATOM     15  C   UNL     1       3.381   2.173  17.825  0.00  0.00    +0.000 C 
ATOM     16  S   UNL     1       3.441   2.606  19.550  0.00  0.00    +0.000 S 
ATOM     17  O   UNL     1       2.359   1.904  20.217  0.00  0.00    +0.000 OA
ATOM     18  O   UNL     1       4.836   2.452  20.001  0.00  0.00    +0.000 OA
ENDBRANCH   9  16
ENDBRANCH   1  12
BRANCH   6  19
ATOM     19  C   UNL     1      -0.874  12.386  20.594  0.00  0.00    +0.000 C 
BRANCH  19  20
ATOM     20  C   UNL     1      -2.364  12.210  20.290  0.00  0.00    +0.000 A 
ATOM     21  C   UNL     1      -2.873  11.921  18.987  0.00  0.00    +0.000 A 
ATOM     22  C   UNL     1      -2.141  11.594  17.821  0.00  0.00    +0.000 A 
ATOM     23  C   UNL     1      -2.790  11.130  16.671  0.00  0.00    +0.000 A 
ATOM     24  C   UNL     1      -4.162  10.925  16.690  0.00  0.00    +0.000 A 
ATOM     25  C   UNL     1      -4.897  11.390  17.774  0.00  0.00    +0.000 A 
ATOM     26  C   UNL     1      -4.266  12.008  18.845  0.00  0.00    +0.000 A 
ATOM     27  N   UNL     1      -4.972  12.801  19.656  0.00  0.00    +0.000 NA
ATOM     28  C   UNL     1      -4.342  13.296  20.730  0.00  0.00    +0.000 A 
ATOM     29  C   UNL     1      -4.443  14.612  21.164  0.00  0.00    +0.000 A 
ATOM     30  C   UNL     1      -3.792  15.033  22.328  0.00  0.00    +0.000 A 
ATOM     31  C   UNL     1      -3.249  14.069  23.166  0.00  0.00    +0.000 A 
ATOM     32  C   UNL     1      -3.034  12.804  22.646  0.00  0.00    +0.000 A 
ATOM     33  C   UNL     1      -3.287  12.622  21.278  0.00  0.00    +0.000 A 
ENDBRANCH  19  20
ENDBRANCH   6  19
TORSDOF 4
ENDMDL
MODEL 2
REMARK VINA RESULT:      -9.1      1.138      1.539
REMARK  Name = 
REMARK  5 active torsions:
REMARK  status: ('A' for Active; 'I' for Inactive)
REMARK    1  A    between atoms: C_1  and  S_2
REMARK    2  A    between atoms: S_2  and  C_5
REMARK    3  A    between atoms: C_8  and  C_9
REMARK    4  A    between atoms: N_14  and  C_15
REMARK    5  A    between atoms: C_15  and  C_16
REMARK                            x       y       z     vdW  Elec       q    Type
REMARK                         _______ _______ _______ _____ _____    ______ ____
ROOT
ATOM      1  C   UNL     1       1.507   9.054  18.948  0.00  0.00    +0.000 C 
ATOM      2  C   UNL     1       0.977   9.680  20.013  0.00  0.00    +0.000 C 
ATOM      3  S   UNL     1       0.838   9.159  21.637  0.00  0.00    +0.000 S 
ATOM      4  C   UNL     1      -0.126  10.565  22.091  0.00  0.00    +0.000 C 
ATOM      5  O   UNL     1      -0.435  10.793  23.246  0.00  0.00    +0.000 OA
ATOM      6  N   UNL     1      -0.385  11.339  20.998  0.00  0.00    +0.000 N 
ATOM      7  C   UNL     1       0.346  11.031  19.875  0.00  0.00    +0.000 C 
ATOM      8  O   UNL     1       0.551  11.761  18.915  0.00  0.00    +0.000 OA
ENDROOT
BRANCH   1  12
ATOM      9  C   UNL     1       3.922   5.536  18.627  0.00  0.00    +0.000 A 
ATOM     10  C   UNL     1       3.977   6.526  17.646  0.00  0.00    +0.000 A 
ATOM     11  C   UNL     1       3.133   7.627  17.742  0.00  0.00    +0.000 A 
ATOM     12  C   UNL     1       2.208   7.759  18.799  0.00  0.00    +0.000 A 
ATOM     13  C   UNL     1       2.128   6.726  19.740  0.00  0.00    +0.000 A 
ATOM     14  C   UNL     1       2.973   5.611  19.656  0.00  0.00    +0.000 A 
BRANCH   9  16
ATOM     15  C   UNL     1       5.113   3.737  16.876  0.00  0.00    +0.000 C 
ATOM     16  S   UNL     1       5.063   4.190  18.596  0.00  0.00    +0.000 S 
ATOM     17  O   UNL     1       4.467   3.086  19.325  0.00  0.00    +0.000 OA
ATOM     18  O   UNL     1       6.395   4.707  18.959  0.00  0.00    +0.000 OA
ENDBRANCH   9  16
ENDBRANCH   1  12
BRANCH   6  19
ATOM     19  C   UNL     1      -1.178  12.585  21.107  0.00  0.00    +0.000 C 
BRANCH  19  20
ATOM     20  C   UNL     1      -2.682  12.341  20.973  0.00  0.00    +0.000 A 
ATOM     21  C   UNL     1      -3.337  12.117  19.724  0.00  0.00    +0.000 A 
ATOM     22  C   UNL     1      -2.741  11.921  18.454  0.00  0.00    +0.000 A 
ATOM     23  C   UNL     1      -3.505  11.504  17.358  0.00  0.00    +0.000 A 
ATOM     24  C   UNL     1      -4.852  11.214  17.527  0.00  0.00    +0.000 A 
ATOM     25  C   UNL     1      -5.467  11.552  18.726  0.00  0.00    +0.000 A 
ATOM     26  C   UNL     1      -4.739  12.128  19.759  0.00  0.00    +0.000 A 
ATOM     27  N   UNL     1      -5.378  12.815  20.710  0.00  0.00    +0.000 NA
ATOM     28  C   UNL     1      -4.644  13.268  21.736  0.00  0.00    +0.000 A 
ATOM     29  C   UNL     1      -4.757  14.540  22.284  0.00  0.00    +0.000 A 
ATOM     30  C   UNL     1      -3.987  14.914  23.389  0.00  0.00    +0.000 A 
ATOM     31  C   UNL     1      -3.293  13.927  24.075  0.00  0.00    +0.000 A 
ATOM     32  C   UNL     1      -3.081  12.719  23.434  0.00  0.00    +0.000 A 
ATOM     33  C   UNL     1      -3.494  12.622  22.096  0.00  0.00    +0.000 A 
ENDBRANCH  19  20
ENDBRANCH   6  19
TORSDOF 4
ENDMDL
MODEL 3
REMARK VINA RESULT:      -9.0      1.313      3.343
REMARK  Name = 
REMARK  5 active torsions:
REMARK  status: ('A' for Active; 'I' for Inactive)
REMARK    1  A    between atoms: C_1  and  S_2
REMARK    2  A    between atoms: S_2  and  C_5
REMARK    3  A    between atoms: C_8  and  C_9
REMARK    4  A    between atoms: N_14  and  C_15
REMARK    5  A    between atoms: C_15  and  C_16
REMARK                            x       y       z     vdW  Elec       q    Type
REMARK                         _______ _______ _______ _____ _____    ______ ____
ROOT
ATOM      1  C   UNL     1       1.711   8.904  19.665  0.00  0.00    +0.000 C 
ATOM      2  C   UNL     1       1.048   9.464  20.692  0.00  0.00    +0.000 C 
ATOM      3  S   UNL     1       0.272   8.732  22.029  0.00  0.00    +0.000 S 
ATOM      4  C   UNL     1      -0.395  10.267  22.586  0.00  0.00    +0.000 C 
ATOM      5  O   UNL     1      -0.987  10.371  23.646  0.00  0.00    +0.000 OA
ATOM      6  N   UNL     1      -0.086  11.267  21.712  0.00  0.00    +0.000 N 
ATOM      7  C   UNL     1       0.860  10.948  20.766  0.00  0.00    +0.000 C 
ATOM      8  O   UNL     1       1.538  11.734  20.119  0.00  0.00    +0.000 OA
ENDROOT
BRANCH   1  12
ATOM      9  C   UNL     1       3.186   4.982  18.796  0.00  0.00    +0.000 A 
ATOM     10  C   UNL     1       3.247   5.993  17.836  0.00  0.00    +0.000 A 
ATOM     11  C   UNL     1       2.701   7.239  18.123  0.00  0.00    +0.000 A 
ATOM     12  C   UNL     1       2.069   7.501  19.356  0.00  0.00    +0.000 A 
ATOM     13  C   UNL     1       1.965   6.456  20.281  0.00  0.00    +0.000 A 
ATOM     14  C   UNL     1       2.512   5.196  20.006  0.00  0.00    +0.000 A 
BRANCH   9  16
ATOM     15  C   UNL     1       2.670   2.252  18.764  0.00  0.00    +0.000 C 
ATOM     16  S   UNL     1       3.977   3.431  18.505  0.00  0.00    +0.000 S 
ATOM     17  O   UNL     1       4.962   3.232  19.552  0.00  0.00    +0.000 OA
ATOM     18  O   UNL     1       4.359   3.369  17.082  0.00  0.00    +0.000 OA
ENDBRANCH   9  16
ENDBRANCH   1  12
BRANCH   6  19
ATOM     19  C   UNL     1      -0.527  12.661  21.948  0.00  0.00    +0.000 C 
BRANCH  19  20
ATOM     20  C   UNL     1      -1.952  12.922  21.453  0.00  0.00    +0.000 A 
ATOM     21  C   UNL     1      -3.113  12.743  22.265  0.00  0.00    +0.000 A 
ATOM     22  C   UNL     1      -3.170  12.467  23.652  0.00  0.00    +0.000 A 
ATOM     23  C   UNL     1      -4.382  12.528  24.349  0.00  0.00    +0.000 A 
ATOM     24  C   UNL     1      -5.536  12.926  23.689  0.00  0.00    +0.000 A 
ATOM     25  C   UNL     1      -5.513  13.044  22.305  0.00  0.00    +0.000 A 
ATOM     26  C   UNL     1      -4.343  12.815  21.593  0.00  0.00    +0.000 A 
ATOM     27  N   UNL     1      -4.411  12.523  20.291  0.00  0.00    +0.000 NA
ATOM     28  C   UNL     1      -3.253  12.407  19.628  0.00  0.00    +0.000 A 
ATOM     29  C   UNL     1      -2.968  11.403  18.711  0.00  0.00    +0.000 A 
ATOM     30  C   UNL     1      -1.751  11.387  18.023  0.00  0.00    +0.000 A 
ATOM     31  C   UNL     1      -0.940  12.511  18.089  0.00  0.00    +0.000 A 
ATOM     32  C   UNL     1      -1.171  13.419  19.108  0.00  0.00    +0.000 A 
ATOM     33  C   UNL     1      -2.143  13.078  20.061  0.00  0.00    +0.000 A 
ENDBRANCH  19  20
ENDBRANCH   6  19
TORSDOF 4
ENDMDL
MODEL 4
REMARK VINA RESULT:      -9.0      4.442     10.283
REMARK  Name = 
REMARK  5 active torsions:
REMARK  status: ('A' for Active; 'I' for Inactive)
REMARK    1  A    between atoms: C_1  and  S_2
REMARK    2  A    between atoms: S_2  and  C_5
REMARK    3  A    between atoms: C_8  and  C_9
REMARK    4  A    between atoms: N_14  and  C_15
REMARK    5  A    between atoms: C_15  and  C_16
REMARK                            x       y       z     vdW  Elec       q    Type
REMARK                         _______ _______ _______ _____ _____    ______ ____
ROOT
ATOM      1  C   UNL     1       2.172  11.413  18.140  0.00  0.00    +0.000 C 
ATOM      2  C   UNL     1       1.859  10.275  18.784  0.00  0.00    +0.000 C 
ATOM      3  S   UNL     1       1.368  10.028  20.404  0.00  0.00    +0.000 S 
ATOM      4  C   UNL     1       1.424   8.273  20.239  0.00  0.00    +0.000 C 
ATOM      5  O   UNL     1       1.031   7.526  21.118  0.00  0.00    +0.000 OA
ATOM      6  N   UNL     1       1.886   7.924  19.004  0.00  0.00    +0.000 N 
ATOM      7  C   UNL     1       1.954   8.951  18.092  0.00  0.00    +0.000 C 
ATOM      8  O   UNL     1       1.997   8.842  16.874  0.00  0.00    +0.000 OA
ENDROOT
BRANCH   1  12
ATOM      9  C   UNL     1       2.094  15.626  18.887  0.00  0.00    +0.000 A 
ATOM     10  C   UNL     1       3.269  15.001  18.469  0.00  0.00    +0.000 A 
ATOM     11  C   UNL     1       3.282  13.621  18.298  0.00  0.00    +0.000 A 
ATOM     12  C   UNL     1       2.140  12.834  18.554  0.00  0.00    +0.000 A 
ATOM     13  C   UNL     1       0.990  13.474  19.030  0.00  0.00    +0.000 A 
ATOM     14  C   UNL     1       0.962  14.863  19.206  0.00  0.00    +0.000 A 
BRANCH   9  16
ATOM     15  C   UNL     1       0.447  17.675  19.788  0.00  0.00    +0.000 C 
ATOM     16  S   UNL     1       2.014  17.385  18.997  0.00  0.00    +0.000 S 
ATOM     17  O   UNL     1       1.929  17.911  17.646  0.00  0.00    +0.000 OA
ATOM     18  O   UNL     1       3.071  17.837  19.921  0.00  0.00    +0.000 OA
ENDBRANCH   9  16
ENDBRANCH   1  12
BRANCH   6  19
ATOM     19  C   UNL     1       2.028   6.504  18.607  0.00  0.00    +0.000 C 
BRANCH  19  20
ATOM     20  C   UNL     1       3.323   5.873  19.124  0.00  0.00    +0.000 A 
ATOM     21  C   UNL     1       4.591   6.047  18.491  0.00  0.00    +0.000 A 
ATOM     22  C   UNL     1       4.918   6.917  17.423  0.00  0.00    +0.000 A 
ATOM     23  C   UNL     1       6.249   7.130  17.049  0.00  0.00    +0.000 A 
ATOM     24  C   UNL     1       7.271   6.534  17.774  0.00  0.00    +0.000 A 
ATOM     25  C   UNL     1       6.951   5.564  18.716  0.00  0.00    +0.000 A 
ATOM     26  C   UNL     1       5.627   5.228  18.965  0.00  0.00    +0.000 A 
ATOM     27  N   UNL     1       5.342   4.053  19.533  0.00  0.00    +0.000 NA
ATOM     28  C   UNL     1       4.059   3.817  19.843  0.00  0.00    +0.000 A 
ATOM     29  C   UNL     1       3.402   2.615  19.609  0.00  0.00    +0.000 A 
ATOM     30  C   UNL     1       2.075   2.436  20.012  0.00  0.00    +0.000 A 
ATOM     31  C   UNL     1       1.508   3.380  20.856  0.00  0.00    +0.000 A 
ATOM     32  C   UNL     1       2.121   4.618  20.950  0.00  0.00    +0.000 A 
ATOM     33  C   UNL     1       3.212   4.858  20.101  0.00  0.00    +0.000 A 
ENDBRANCH  19  20
ENDBRANCH   6  19
TORSDOF 4
ENDMDL
MODEL 5
REMARK VINA RESULT:      -8.9      0.891      1.067
REMARK  Name = 
REMARK  5 active torsions:
REMARK  status: ('A' for Active; 'I' for Inactive)
REMARK    1  A    between atoms: C_1  and  S_2
REMARK    2  A    between atoms: S_2  and  C_5
REMARK    3  A    between atoms: C_8  and  C_9
REMARK    4  A    between atoms: N_14  and  C_15
REMARK    5  A    between atoms: C_15  and  C_16
REMARK                            x       y       z     vdW  Elec       q    Type
REMARK                         _______ _______ _______ _____ _____    ______ ____
ROOT
ATOM      1  C   UNL     1       1.684   8.590  19.333  0.00  0.00    +0.000 C 
ATOM      2  C   UNL     1       1.099   9.261  20.341  0.00  0.00    +0.000 C 
ATOM      3  S   UNL     1       0.685   8.736  21.916  0.00  0.00    +0.000 S 
ATOM      4  C   UNL     1      -0.151  10.245  22.287  0.00  0.00    +0.000 C 
ATOM      5  O   UNL     1      -0.579  10.492  23.400  0.00  0.00    +0.000 OA
ATOM      6  N   UNL     1      -0.167  11.062  21.196  0.00  0.00    +0.000 N 
ATOM      7  C   UNL     1       0.662  10.682  20.166  0.00  0.00    +0.000 C 
ATOM      8  O   UNL     1       1.079  11.396  19.264  0.00  0.00    +0.000 OA
ENDROOT
BRANCH   1  12
ATOM      9  C   UNL     1       2.839   4.480  19.052  0.00  0.00    +0.000 A 
ATOM     10  C   UNL     1       2.358   5.001  20.253  0.00  0.00    +0.000 A 
ATOM     11  C   UNL     1       2.052   6.355  20.334  0.00  0.00    +0.000 A 
ATOM     12  C   UNL     1       2.235   7.220  19.235  0.00  0.00    +0.000 A 
ATOM     13  C   UNL     1       2.775   6.688  18.058  0.00  0.00    +0.000 A 
ATOM     14  C   UNL     1       3.086   5.326  17.962  0.00  0.00    +0.000 A 
BRANCH   9  16
ATOM     15  C   UNL     1       4.248   2.385  20.214  0.00  0.00    +0.000 C 
ATOM     16  S   UNL     1       3.120   2.745  18.886  0.00  0.00    +0.000 S 
ATOM     17  O   UNL     1       3.827   2.528  17.637  0.00  0.00    +0.000 OA
ATOM     18  O   UNL     1       1.854   2.044  19.173  0.00  0.00    +0.000 OA
ENDBRANCH   9  16
ENDBRANCH   1  12
BRANCH   6  19
ATOM     19  C   UNL     1      -0.809  12.396  21.241  0.00  0.00    +0.000 C 
BRANCH  19  20
ATOM     20  C   UNL     1      -2.310  12.339  20.947  0.00  0.00    +0.000 A 
ATOM     21  C   UNL     1      -2.851  12.152  19.639  0.00  0.00    +0.000 A 
ATOM     22  C   UNL     1      -2.154  11.836  18.448  0.00  0.00    +0.000 A 
ATOM     23  C   UNL     1      -2.844  11.477  17.284  0.00  0.00    +0.000 A 
ATOM     24  C   UNL     1      -4.227  11.366  17.310  0.00  0.00    +0.000 A 
ATOM     25  C   UNL     1      -4.918  11.825  18.425  0.00  0.00    +0.000 A 
ATOM     26  C   UNL     1      -4.235  12.342  19.518  0.00  0.00    +0.000 A 
ATOM     27  N   UNL     1      -4.877  13.140  20.377  0.00  0.00    +0.000 NA
ATOM     28  C   UNL     1      -4.205  13.535  21.466  0.00  0.00    +0.000 A 
ATOM     29  C   UNL     1      -4.210  14.831  21.968  0.00  0.00    +0.000 A 
ATOM     30  C   UNL     1      -3.520  15.146  23.143  0.00  0.00    +0.000 A 
ATOM     31  C   UNL     1      -3.038  14.105  23.924  0.00  0.00    +0.000 A 
ATOM     32  C   UNL     1      -2.917  12.857  23.339  0.00  0.00    +0.000 A 
ATOM     33  C   UNL     1      -3.193  12.763  21.967  0.00  0.00    +0.000 A 
ENDBRANCH  19  20
ENDBRANCH   6  19
TORSDOF 4
ENDMDL
MODEL 6
REMARK VINA RESULT:      -8.9      1.103      1.293
REMARK  Name = 
REMARK  5 active torsions:
REMARK  status: ('A' for Active; 'I' for Inactive)
REMARK    1  A    between atoms: C_1  and  S_2
REMARK    2  A    between atoms: S_2  and  C_5
REMARK    3  A    between atoms: C_8  and  C_9
REMARK    4  A    between atoms: N_14  and  C_15
REMARK    5  A    between atoms: C_15  and  C_16
REMARK                            x       y       z     vdW  Elec       q    Type
REMARK                         _______ _______ _______ _____ _____    ______ ____
ROOT
ATOM      1  C   UNL     1       1.983   8.195  18.609  0.00  0.00    +0.000 C 
ATOM      2  C   UNL     1       1.536   8.935  19.640  0.00  0.00    +0.000 C 
ATOM      3  S   UNL     1       1.263   8.495  21.271  0.00  0.00    +0.000 S 
ATOM      4  C   UNL     1       0.541  10.058  21.655  0.00  0.00    +0.000 C 
ATOM      5  O   UNL     1       0.242  10.371  22.794  0.00  0.00    +0.000 OA
ATOM      6  N   UNL     1       0.451  10.831  20.535  0.00  0.00    +0.000 N 
ATOM      7  C   UNL     1       1.151  10.368  19.446  0.00  0.00    +0.000 C 
ATOM      8  O   UNL     1       1.506  11.023  18.475  0.00  0.00    +0.000 OA
ENDROOT
BRANCH   1  12
ATOM      9  C   UNL     1       3.234   4.107  18.789  0.00  0.00    +0.000 A 
ATOM     10  C   UNL     1       3.996   5.110  19.389  0.00  0.00    +0.000 A 
ATOM     11  C   UNL     1       3.600   6.436  19.258  0.00  0.00    +0.000 A 
ATOM     12  C   UNL     1       2.456   6.795  18.517  0.00  0.00    +0.000 A 
ATOM     13  C   UNL     1       1.739   5.780  17.874  0.00  0.00    +0.000 A 
ATOM     14  C   UNL     1       2.126   4.439  17.997  0.00  0.00    +0.000 A 
BRANCH   9  16
ATOM     15  C   UNL     1       2.219   1.764  19.886  0.00  0.00    +0.000 C 
ATOM     16  S   UNL     1       3.645   2.409  19.039  0.00  0.00    +0.000 S 
ATOM     17  O   UNL     1       4.765   2.355  19.961  0.00  0.00    +0.000 OA
ATOM     18  O   UNL     1       3.715   1.753  17.721  0.00  0.00    +0.000 OA
ENDBRANCH   9  16
ENDBRANCH   1  12
BRANCH   6  19
ATOM     19  C   UNL     1      -0.120  12.197  20.585  0.00  0.00    +0.000 C 
BRANCH  19  20
ATOM     20  C   UNL     1      -1.649  12.200  20.533  0.00  0.00    +0.000 A 
ATOM     21  C   UNL     1      -2.397  12.004  19.332  0.00  0.00    +0.000 A 
ATOM     22  C   UNL     1      -1.910  11.625  18.057  0.00  0.00    +0.000 A 
ATOM     23  C   UNL     1      -2.789  11.268  17.029  0.00  0.00    +0.000 A 
ATOM     24  C   UNL     1      -4.154  11.220  17.275  0.00  0.00    +0.000 A 
ATOM     25  C   UNL     1      -4.641  11.738  18.469  0.00  0.00    +0.000 A 
ATOM     26  C   UNL     1      -3.774  12.253  19.424  0.00  0.00    +0.000 A 
ATOM     27  N   UNL     1      -4.240  13.101  20.346  0.00  0.00    +0.000 NA
ATOM     28  C   UNL     1      -3.388  13.493  21.303  0.00  0.00    +0.000 A 
ATOM     29  C   UNL     1      -3.261  14.800  21.756  0.00  0.00    +0.000 A 
ATOM     30  C   UNL     1      -2.383  15.114  22.797  0.00  0.00    +0.000 A 
ATOM     31  C   UNL     1      -1.825  14.074  23.527  0.00  0.00    +0.000 A 
ATOM     32  C   UNL     1      -1.849  12.806  22.971  0.00  0.00    +0.000 A 
ATOM     33  C   UNL     1      -2.342  12.689  21.663  0.00  0.00    +0.000 A 
ENDBRANCH  19  20
ENDBRANCH   6  19
TORSDOF 4
ENDMDL
MODEL 7
REMARK VINA RESULT:      -8.9      1.394      3.262
REMARK  Name = 
REMARK  5 active torsions:
REMARK  status: ('A' for Active; 'I' for Inactive)
REMARK    1  A    between atoms: C_1  and  S_2
REMARK    2  A    between atoms: S_2  and  C_5
REMARK    3  A    between atoms: C_8  and  C_9
REMARK    4  A    between atoms: N_14  and  C_15
REMARK    5  A    between atoms: C_15  and  C_16
REMARK                            x       y       z     vdW  Elec       q    Type
REMARK                         _______ _______ _______ _____ _____    ______ ____
ROOT
ATOM      1  C   UNL     1       1.679   8.819  19.752  0.00  0.00    +0.000 C 
ATOM      2  C   UNL     1       1.030   9.422  20.763  0.00  0.00    +0.000 C 
ATOM      3  S   UNL     1       0.262   8.745  22.135  0.00  0.00    +0.000 S 
ATOM      4  C   UNL     1      -0.388  10.305  22.641  0.00  0.00    +0.000 C 
ATOM      5  O   UNL     1      -0.968  10.452  23.702  0.00  0.00    +0.000 OA
ATOM      6  N   UNL     1      -0.080  11.270  21.727  0.00  0.00    +0.000 N 
ATOM      7  C   UNL     1       0.854  10.908  20.785  0.00  0.00    +0.000 C 
ATOM      8  O   UNL     1       1.532  11.665  20.103  0.00  0.00    +0.000 OA
ENDROOT
BRANCH   1  12
ATOM      9  C   UNL     1       2.219   4.641  19.000  0.00  0.00    +0.000 A 
ATOM     10  C   UNL     1       1.839   5.091  20.265  0.00  0.00    +0.000 A 
ATOM     11  C   UNL     1       1.735   6.458  20.498  0.00  0.00    +0.000 A 
ATOM     12  C   UNL     1       2.023   7.403  19.491  0.00  0.00    +0.000 A 
ATOM     13  C   UNL     1       2.460   6.931  18.248  0.00  0.00    +0.000 A 
ATOM     14  C   UNL     1       2.569   5.557  17.999  0.00  0.00    +0.000 A 
BRANCH   9  16
ATOM     15  C   UNL     1       3.854   2.402  19.196  0.00  0.00    +0.000 C 
ATOM     16  S   UNL     1       2.242   2.913  18.643  0.00  0.00    +0.000 S 
ATOM     17  O   UNL     1       2.203   2.758  17.200  0.00  0.00    +0.000 OA
ATOM     18  O   UNL     1       1.244   2.251  19.504  0.00  0.00    +0.000 OA
ENDBRANCH   9  16
ENDBRANCH   1  12
BRANCH   6  19
ATOM     19  C   UNL     1      -0.509  12.675  21.916  0.00  0.00    +0.000 C 
BRANCH  19  20
ATOM     20  C   UNL     1      -1.933  12.930  21.416  0.00  0.00    +0.000 A 
ATOM     21  C   UNL     1      -3.096  12.753  22.227  0.00  0.00    +0.000 A 
ATOM     22  C   UNL     1      -3.155  12.484  23.615  0.00  0.00    +0.000 A 
ATOM     23  C   UNL     1      -4.368  12.545  24.309  0.00  0.00    +0.000 A 
ATOM     24  C   UNL     1      -5.522  12.938  23.645  0.00  0.00    +0.000 A 
ATOM     25  C   UNL     1      -5.496  13.049  22.260  0.00  0.00    +0.000 A 
ATOM     26  C   UNL     1      -4.324  12.819  21.553  0.00  0.00    +0.000 A 
ATOM     27  N   UNL     1      -4.389  12.521  20.252  0.00  0.00    +0.000 NA
ATOM     28  C   UNL     1      -3.229  12.404  19.591  0.00  0.00    +0.000 A 
ATOM     29  C   UNL     1      -2.940  11.395  18.680  0.00  0.00    +0.000 A 
ATOM     30  C   UNL     1      -1.722  11.378  17.995  0.00  0.00    +0.000 A 
ATOM     31  C   UNL     1      -0.914  12.505  18.057  0.00  0.00    +0.000 A 
ATOM     32  C   UNL     1      -1.149  13.417  19.071  0.00  0.00    +0.000 A 
ATOM     33  C   UNL     1      -2.121  13.079  20.023  0.00  0.00    +0.000 A 
ENDBRANCH  19  20
ENDBRANCH   6  19
TORSDOF 4
ENDMDL
MODEL 8
REMARK VINA RESULT:      -8.8      1.960      2.541
REMARK  Name = 
REMARK  5 active torsions:
REMARK  status: ('A' for Active; 'I' for Inactive)
REMARK    1  A    between atoms: C_1  and  S_2
REMARK    2  A    between atoms: S_2  and  C_5
REMARK    3  A    between atoms: C_8  and  C_9
REMARK    4  A    between atoms: N_14  and  C_15
REMARK    5  A    between atoms: C_15  and  C_16
REMARK                            x       y       z     vdW  Elec       q    Type
REMARK                         _______ _______ _______ _____ _____    ______ ____
ROOT
ATOM      1  C   UNL     1       0.277   9.876  18.854  0.00  0.00    +0.000 C 
ATOM      2  C   UNL     1      -0.024  10.895  19.677  0.00  0.00    +0.000 C 
ATOM      3  S   UNL     1       0.734  11.399  21.127  0.00  0.00    +0.000 S 
ATOM      4  C   UNL     1      -0.512  12.604  21.454  0.00  0.00    +0.000 C 
ATOM      5  O   UNL     1      -0.417  13.400  22.371  0.00  0.00    +0.000 OA
ATOM      6  N   UNL     1      -1.499  12.539  20.516  0.00  0.00    +0.000 N 
ATOM      7  C   UNL     1      -1.207  11.774  19.411  0.00  0.00    +0.000 C 
ATOM      8  O   UNL     1      -1.753  11.833  18.318  0.00  0.00    +0.000 OA
ENDROOT
BRANCH   1  12
ATOM      9  C   UNL     1       3.138   6.694  18.803  0.00  0.00    +0.000 A 
ATOM     10  C   UNL     1       2.335   6.909  19.924  0.00  0.00    +0.000 A 
ATOM     11  C   UNL     1       1.461   7.990  19.938  0.00  0.00    +0.000 A 
ATOM     12  C   UNL     1       1.379   8.887  18.853  0.00  0.00    +0.000 A 
ATOM     13  C   UNL     1       2.235   8.688  17.764  0.00  0.00    +0.000 A 
ATOM     14  C   UNL     1       3.120   7.602  17.735  0.00  0.00    +0.000 A 
BRANCH   9  16
ATOM     15  C   UNL     1       3.266   4.049  19.649  0.00  0.00    +0.000 C 
ATOM     16  S   UNL     1       4.166   5.263  18.708  0.00  0.00    +0.000 S 
ATOM     17  O   UNL     1       5.395   5.551  19.425  0.00  0.00    +0.000 OA
ATOM     18  O   UNL     1       4.195   4.808  17.306  0.00  0.00    +0.000 OA
ENDBRANCH   9  16
ENDBRANCH   1  12
BRANCH   6  19
ATOM     19  C   UNL     1      -2.667  13.448  20.561  0.00  0.00    +0.000 C 
BRANCH  19  20
ATOM     20  C   UNL     1      -3.951  12.739  20.997  0.00  0.00    +0.000 A 
ATOM     21  C   UNL     1      -4.931  12.249  20.081  0.00  0.00    +0.000 A 
ATOM     22  C   UNL     1      -4.842  12.176  18.670  0.00  0.00    +0.000 A 
ATOM     23  C   UNL     1      -5.799  11.478  17.925  0.00  0.00    +0.000 A 
ATOM     24  C   UNL     1      -6.814  10.792  18.577  0.00  0.00    +0.000 A 
ATOM     25  C   UNL     1      -6.992  10.991  19.940  0.00  0.00    +0.000 A 
ATOM     26  C   UNL     1      -6.140  11.824  20.652  0.00  0.00    +0.000 A 
ATOM     27  N   UNL     1      -6.542  12.332  21.821  0.00  0.00    +0.000 NA
ATOM     28  C   UNL     1      -5.649  13.050  22.516  0.00  0.00    +0.000 A 
ATOM     29  C   UNL     1      -5.931  14.253  23.152  0.00  0.00    +0.000 A 
ATOM     30  C   UNL     1      -4.952  14.912  23.902  0.00  0.00    +0.000 A 
ATOM     31  C   UNL     1      -3.779  14.232  24.199  0.00  0.00    +0.000 A 
ATOM     32  C   UNL     1      -3.467  13.116  23.442  0.00  0.00    +0.000 A 
ATOM     33  C   UNL     1      -4.311  12.818  22.362  0.00  0.00    +0.000 A 
ENDBRANCH  19  20
ENDBRANCH   6  19
TORSDOF 4
ENDMDL
MODEL 9
REMARK VINA RESULT:      -8.8      3.896     10.253
REMARK  Name = 
REMARK  5 active torsions:
REMARK  status: ('A' for Active; 'I' for Inactive)
REMARK    1  A    between atoms: C_1  and  S_2
REMARK    2  A    between atoms: S_2  and  C_5
REMARK    3  A    between atoms: C_8  and  C_9
REMARK    4  A    between atoms: N_14  and  C_15
REMARK    5  A    between atoms: C_15  and  C_16
REMARK                            x       y       z     vdW  Elec       q    Type
REMARK                         _______ _______ _______ _____ _____    ______ ____
ROOT
ATOM      1  C   UNL     1       0.471   9.653  21.084  0.00  0.00    +0.000 C 
ATOM      2  C   UNL     1       1.154   9.204  20.016  0.00  0.00    +0.000 C 
ATOM      3  S   UNL     1       1.694  10.044  18.626  0.00  0.00    +0.000 S 
ATOM      4  C   UNL     1       2.245   8.561  17.846  0.00  0.00    +0.000 C 
ATOM      5  O   UNL     1       2.867   8.573  16.799  0.00  0.00    +0.000 OA
ATOM      6  N   UNL     1       1.935   7.475  18.610  0.00  0.00    +0.000 N 
ATOM      7  C   UNL     1       1.521   7.759  19.891  0.00  0.00    +0.000 C 
ATOM      8  O   UNL     1       1.522   6.992  20.844  0.00  0.00    +0.000 OA
ENDROOT
BRANCH   1  12
ATOM      9  C   UNL     1      -0.662  13.475  22.639  0.00  0.00    +0.000 A 
ATOM     10  C   UNL     1      -1.319  12.317  23.054  0.00  0.00    +0.000 A 
ATOM     11  C   UNL     1      -0.975  11.097  22.483  0.00  0.00    +0.000 A 
ATOM     12  C   UNL     1       0.012  11.003  21.480  0.00  0.00    +0.000 A 
ATOM     13  C   UNL     1       0.617  12.185  21.036  0.00  0.00    +0.000 A 
ATOM     14  C   UNL     1       0.281  13.421  21.602  0.00  0.00    +0.000 A 
BRANCH   9  16
ATOM     15  C   UNL     1      -1.725  15.993  22.134  0.00  0.00    +0.000 C 
ATOM     16  S   UNL     1      -0.994  15.017  23.430  0.00  0.00    +0.000 S 
ATOM     17  O   UNL     1       0.280  15.624  23.772  0.00  0.00    +0.000 OA
ATOM     18  O   UNL     1      -2.027  14.794  24.458  0.00  0.00    +0.000 OA
ENDBRANCH   9  16
ENDBRANCH   1  12
BRANCH   6  19
ATOM     19  C   UNL     1       2.290   6.103  18.180  0.00  0.00    +0.000 C 
BRANCH  19  20
ATOM     20  C   UNL     1       3.561   5.583  18.855  0.00  0.00    +0.000 A 
ATOM     21  C   UNL     1       4.879   5.912  18.413  0.00  0.00    +0.000 A 
ATOM     22  C   UNL     1       5.255   6.856  17.427  0.00  0.00    +0.000 A 
ATOM     23  C   UNL     1       6.595   7.218  17.251  0.00  0.00    +0.000 A 
ATOM     24  C   UNL     1       7.565   6.696  18.095  0.00  0.00    +0.000 A 
ATOM     25  C   UNL     1       7.223   5.658  18.954  0.00  0.00    +0.000 A 
ATOM     26  C   UNL     1       5.920   5.181  19.004  0.00  0.00    +0.000 A 
ATOM     27  N   UNL     1       5.686   3.959  19.492  0.00  0.00    +0.000 NA
ATOM     28  C   UNL     1       4.405   3.582  19.611  0.00  0.00    +0.000 A 
ATOM     29  C   UNL     1       3.917   2.332  19.252  0.00  0.00    +0.000 A 
ATOM     30  C   UNL     1       2.573   2.003  19.458  0.00  0.00    +0.000 A 
ATOM     31  C   UNL     1       1.800   2.848  20.241  0.00  0.00    +0.000 A 
ATOM     32  C   UNL     1       2.260   4.135  20.456  0.00  0.00    +0.000 A 
ATOM     33  C   UNL     1       3.425   4.521  19.778  0.00  0.00    +0.000 A 
ENDBRANCH  19  20
ENDBRANCH   6  19
TORSDOF 4
ENDMDL
