MODEL 1
REMARK VINA RESULT:      -7.1      0.000      0.000
REMARK  Name = 
REMARK  5 active torsions:
REMARK  status: ('A' for Active; 'I' for Inactive)
REMARK    1  A    between atoms: C_1  and  N_2
REMARK    2  A    between atoms: N_2  and  C_3
REMARK    3  A    between atoms: N_2  and  C_4
REMARK    4  A    between atoms: C_7  and  C_8
REMARK    5  A    between atoms: C_9  and  C_11
REMARK                            x       y       z     vdW  Elec       q    Type
REMARK                         _______ _______ _______ _____ _____    ______ ____
ROOT
ATOM      1  C   UNL     1       1.463   8.642  20.375  0.00  0.00    +0.000 C 
ATOM      2  C   UNL     1       1.645   8.527  19.041  0.00  0.00    +0.000 C 
ATOM      3 CL   UNL     1       0.803   9.501  17.880  0.00  0.00    +0.000 Cl
ENDROOT
BRANCH   2   4
ATOM      4  C   UNL     1       2.571   7.538  18.560  0.00  0.00    +0.000 A 
ATOM      5  N   UNL     1       3.485   7.724  17.622  0.00  0.00    +0.000 NA
ATOM      6  C   UNL     1       4.087   6.530  17.265  0.00  0.00    +0.000 A 
ATOM      7  C   UNL     1       5.059   6.366  16.257  0.00  0.00    +0.000 A 
ATOM      8  C   UNL     1       5.532   5.087  15.948  0.00  0.00    +0.000 A 
ATOM      9  C   UNL     1       5.066   3.977  16.646  0.00  0.00    +0.000 A 
ATOM     10  C   UNL     1       4.129   4.119  17.673  0.00  0.00    +0.000 A 
ATOM     11  C   UNL     1       3.647   5.407  17.960  0.00  0.00    +0.000 A 
ATOM     12  S   UNL     1       2.481   5.895  19.121  0.00  0.00    +0.000 S 
ENDBRANCH   2   4
BRANCH   1  16
ATOM     13  C   UNL     1      -0.889  11.490  22.667  0.00  0.00    +0.000 A 
ATOM     14  C   UNL     1      -0.783  10.137  23.031  0.00  0.00    +0.000 A 
ATOM     15  C   UNL     1      -0.037   9.216  22.271  0.00  0.00    +0.000 A 
ATOM     16  C   UNL     1       0.655   9.620  21.125  0.00  0.00    +0.000 A 
ATOM     17  C   UNL     1       0.641  10.977  20.813  0.00  0.00    +0.000 A 
ATOM     18  C   UNL     1      -0.127  11.884  21.556  0.00  0.00    +0.000 A 
BRANCH  13  20
ATOM     19  C   UNL     1      -3.114  12.224  23.452  0.00  0.00    +0.000 C 
ATOM     20  N   UNL     1      -1.669  12.416  23.370  0.00  0.00    +0.000 N 
ATOM     21  C   UNL     1      -1.206  13.804  23.375  0.00  0.00    +0.000 C 
ENDBRANCH  13  20
ENDBRANCH   1  16
TORSDOF 3
ENDMDL
MODEL 2
REMARK VINA RESULT:      -7.0      0.130      1.046
REMARK  Name = 
REMARK  5 active torsions:
REMARK  status: ('A' for Active; 'I' for Inactive)
REMARK    1  A    between atoms: C_1  and  N_2
REMARK    2  A    between atoms: N_2  and  C_3
REMARK    3  A    between atoms: N_2  and  C_4
REMARK    4  A    between atoms: C_7  and  C_8
REMARK    5  A    between atoms: C_9  and  C_11
REMARK                            x       y       z     vdW  Elec       q    Type
REMARK                         _______ _______ _______ _____ _____    ______ ____
ROOT
ATOM      1  C   UNL     1       1.518   8.532  20.362  0.00  0.00    +0.000 C 
ATOM      2  C   UNL     1       1.694   8.444  19.025  0.00  0.00    +0.000 C 
ATOM      3 CL   UNL     1       0.859   9.453  17.888  0.00  0.00    +0.000 Cl
ENDROOT
BRANCH   2   4
ATOM      4  C   UNL     1       2.607   7.455  18.520  0.00  0.00    +0.000 A 
ATOM      5  N   UNL     1       3.536   7.657  17.600  0.00  0.00    +0.000 NA
ATOM      6  C   UNL     1       4.120   6.465  17.207  0.00  0.00    +0.000 A 
ATOM      7  C   UNL     1       5.101   6.319  16.205  0.00  0.00    +0.000 A 
ATOM      8  C   UNL     1       5.553   5.043  15.856  0.00  0.00    +0.000 A 
ATOM      9  C   UNL     1       5.058   3.918  16.508  0.00  0.00    +0.000 A 
ATOM     10  C   UNL     1       4.111   4.040  17.528  0.00  0.00    +0.000 A 
ATOM     11  C   UNL     1       3.650   5.327  17.856  0.00  0.00    +0.000 A 
ATOM     12  S   UNL     1       2.479   5.795  19.020  0.00  0.00    +0.000 S 
ENDBRANCH   2   4
BRANCH   1  16
ATOM     13  C   UNL     1      -0.860  11.430  22.564  0.00  0.00    +0.000 A 
ATOM     14  C   UNL     1      -0.202  11.752  21.366  0.00  0.00    +0.000 A 
ATOM     15  C   UNL     1       0.585  10.815  20.670  0.00  0.00    +0.000 A 
ATOM     16  C   UNL     1       0.723   9.503  21.136  0.00  0.00    +0.000 A 
ATOM     17  C   UNL     1      -0.006   9.144  22.266  0.00  0.00    +0.000 A 
ATOM     18  C   UNL     1      -0.764  10.090  22.970  0.00  0.00    +0.000 A 
BRANCH  13  20
ATOM     19  C   UNL     1      -3.046  12.198  23.421  0.00  0.00    +0.000 C 
ATOM     20  N   UNL     1      -1.600  12.356  23.308  0.00  0.00    +0.000 N 
ATOM     21  C   UNL     1      -1.102  13.732  23.336  0.00  0.00    +0.000 C 
ENDBRANCH  13  20
ENDBRANCH   1  16
TORSDOF 3
ENDMDL
MODEL 3
REMARK VINA RESULT:      -6.9      2.107      2.531
REMARK  Name = 
REMARK  5 active torsions:
REMARK  status: ('A' for Active; 'I' for Inactive)
REMARK    1  A    between atoms: C_1  and  N_2
REMARK    2  A    between atoms: N_2  and  C_3
REMARK    3  A    between atoms: N_2  and  C_4
REMARK    4  A    between atoms: C_7  and  C_8
REMARK    5  A    between atoms: C_9  and  C_11
REMARK                            x       y       z     vdW  Elec       q    Type
REMARK                         _______ _______ _______ _____ _____    ______ ____
ROOT
ATOM      1  C   UNL     1       1.661   8.949  18.228  0.00  0.00    +0.000 C 
ATOM      2  C   UNL     1       2.112   7.881  18.923  0.00  0.00    +0.000 C 
ATOM      3 CL   UNL     1       1.644   7.545  20.558  0.00  0.00    +0.000 Cl
ENDROOT
BRANCH   2   4
ATOM      4  C   UNL     1       3.039   6.990  18.281  0.00  0.00    +0.000 A 
ATOM      5  N   UNL     1       3.936   7.331  17.370  0.00  0.00    +0.000 NA
ATOM      6  C   UNL     1       4.544   6.215  16.822  0.00  0.00    +0.000 A 
ATOM      7  C   UNL     1       5.501   6.222  15.787  0.00  0.00    +0.000 A 
ATOM      8  C   UNL     1       5.981   5.012  15.276  0.00  0.00    +0.000 A 
ATOM      9  C   UNL     1       5.538   3.801  15.799  0.00  0.00    +0.000 A 
ATOM     10  C   UNL     1       4.616   3.770  16.850  0.00  0.00    +0.000 A 
ATOM     11  C   UNL     1       4.127   4.992  17.340  0.00  0.00    +0.000 A 
ATOM     12  S   UNL     1       2.975   5.279  18.580  0.00  0.00    +0.000 S 
ENDBRANCH   2   4
BRANCH   1  16
ATOM     13  C   UNL     1      -1.385  11.839  19.355  0.00  0.00    +0.000 A 
ATOM     14  C   UNL     1      -1.608  10.853  18.380  0.00  0.00    +0.000 A 
ATOM     15  C   UNL     1      -0.610   9.935  18.004  0.00  0.00    +0.000 A 
ATOM     16  C   UNL     1       0.650   9.952  18.611  0.00  0.00    +0.000 A 
ATOM     17  C   UNL     1       0.850  10.857  19.649  0.00  0.00    +0.000 A 
ATOM     18  C   UNL     1      -0.138  11.788  19.998  0.00  0.00    +0.000 A 
BRANCH  13  20
ATOM     19  C   UNL     1      -1.969  13.882  20.616  0.00  0.00    +0.000 C 
ATOM     20  N   UNL     1      -2.338  12.802  19.707  0.00  0.00    +0.000 N 
ATOM     21  C   UNL     1      -3.733  12.363  19.767  0.00  0.00    +0.000 C 
ENDBRANCH  13  20
ENDBRANCH   1  16
TORSDOF 3
ENDMDL
MODEL 4
REMARK VINA RESULT:      -6.9      1.927      2.342
REMARK  Name = 
REMARK  5 active torsions:
REMARK  status: ('A' for Active; 'I' for Inactive)
REMARK    1  A    between atoms: C_1  and  N_2
REMARK    2  A    between atoms: N_2  and  C_3
REMARK    3  A    between atoms: N_2  and  C_4
REMARK    4  A    between atoms: C_7  and  C_8
REMARK    5  A    between atoms: C_9  and  C_11
REMARK                            x       y       z     vdW  Elec       q    Type
REMARK                         _______ _______ _______ _____ _____    ______ ____
ROOT
ATOM      1  C   UNL     1       1.449   9.123  18.515  0.00  0.00    +0.000 C 
ATOM      2  C   UNL     1       1.904   8.045  19.191  0.00  0.00    +0.000 C 
ATOM      3 CL   UNL     1       1.445   7.683  20.824  0.00  0.00    +0.000 Cl
ENDROOT
BRANCH   2   4
ATOM      4  C   UNL     1       2.829   7.164  18.531  0.00  0.00    +0.000 A 
ATOM      5  N   UNL     1       3.690   7.512  17.589  0.00  0.00    +0.000 NA
ATOM      6  C   UNL     1       4.303   6.401  17.035  0.00  0.00    +0.000 A 
ATOM      7  C   UNL     1       5.227   6.414  15.970  0.00  0.00    +0.000 A 
ATOM      8  C   UNL     1       5.715   5.208  15.458  0.00  0.00    +0.000 A 
ATOM      9  C   UNL     1       5.312   3.995  16.009  0.00  0.00    +0.000 A 
ATOM     10  C   UNL     1       4.425   3.959  17.088  0.00  0.00    +0.000 A 
ATOM     11  C   UNL     1       3.926   5.177  17.580  0.00  0.00    +0.000 A 
ATOM     12  S   UNL     1       2.808   5.456  18.852  0.00  0.00    +0.000 S 
ENDBRANCH   2   4
BRANCH   1  16
ATOM     13  C   UNL     1      -1.458  12.125  19.712  0.00  0.00    +0.000 A 
ATOM     14  C   UNL     1      -0.186  12.033  20.301  0.00  0.00    +0.000 A 
ATOM     15  C   UNL     1       0.741  11.044  19.924  0.00  0.00    +0.000 A 
ATOM     16  C   UNL     1       0.440  10.119  18.919  0.00  0.00    +0.000 A 
ATOM     17  C   UNL     1      -0.776  10.264  18.258  0.00  0.00    +0.000 A 
ATOM     18  C   UNL     1      -1.707  11.233  18.658  0.00  0.00    +0.000 A 
BRANCH  13  20
ATOM     19  C   UNL     1      -2.073  14.084  21.087  0.00  0.00    +0.000 C 
ATOM     20  N   UNL     1      -2.422  13.060  20.107  0.00  0.00    +0.000 N 
ATOM     21  C   UNL     1      -3.815  12.611  20.118  0.00  0.00    +0.000 C 
ENDBRANCH  13  20
ENDBRANCH   1  16
TORSDOF 3
ENDMDL
MODEL 5
REMARK VINA RESULT:      -6.8      1.588      1.833
REMARK  Name = 
REMARK  5 active torsions:
REMARK  status: ('A' for Active; 'I' for Inactive)
REMARK    1  A    between atoms: C_1  and  N_2
REMARK    2  A    between atoms: N_2  and  C_3
REMARK    3  A    between atoms: N_2  and  C_4
REMARK    4  A    between atoms: C_7  and  C_8
REMARK    5  A    between atoms: C_9  and  C_11
REMARK                            x       y       z     vdW  Elec       q    Type
REMARK                         _______ _______ _______ _____ _____    ______ ____
ROOT
ATOM      1  C   UNL     1       1.830   8.656  19.035  0.00  0.00    +0.000 C 
ATOM      2  C   UNL     1       2.146   7.389  19.381  0.00  0.00    +0.000 C 
ATOM      3 CL   UNL     1       1.487   6.592  20.773  0.00  0.00    +0.000 Cl
ENDROOT
BRANCH   2   4
ATOM      4  C   UNL     1       3.087   6.672  18.564  0.00  0.00    +0.000 A 
ATOM      5  N   UNL     1       3.798   7.183  17.572  0.00  0.00    +0.000 NA
ATOM      6  C   UNL     1       4.468   6.193  16.874  0.00  0.00    +0.000 A 
ATOM      7  C   UNL     1       5.265   6.389  15.728  0.00  0.00    +0.000 A 
ATOM      8  C   UNL     1       5.828   5.287  15.077  0.00  0.00    +0.000 A 
ATOM      9  C   UNL     1       5.626   4.000  15.567  0.00  0.00    +0.000 A 
ATOM     10  C   UNL     1       4.869   3.785  16.722  0.00  0.00    +0.000 A 
ATOM     11  C   UNL     1       4.293   4.899  17.355  0.00  0.00    +0.000 A 
ATOM     12  S   UNL     1       3.293   4.956  18.749  0.00  0.00    +0.000 S 
ENDBRANCH   2   4
BRANCH   1  16
ATOM     13  C   UNL     1      -1.019  11.391  20.851  0.00  0.00    +0.000 A 
ATOM     14  C   UNL     1       0.090  10.887  21.551  0.00  0.00    +0.000 A 
ATOM     15  C   UNL     1       0.995   9.984  20.963  0.00  0.00    +0.000 A 
ATOM     16  C   UNL     1       0.840   9.568  19.636  0.00  0.00    +0.000 A 
ATOM     17  C   UNL     1      -0.195  10.140  18.903  0.00  0.00    +0.000 A 
ATOM     18  C   UNL     1      -1.111  11.016  19.502  0.00  0.00    +0.000 A 
BRANCH  13  20
ATOM     19  C   UNL     1      -2.309  12.092  22.839  0.00  0.00    +0.000 C 
ATOM     20  N   UNL     1      -1.968  12.244  21.428  0.00  0.00    +0.000 N 
ATOM     21  C   UNL     1      -3.042  12.725  20.557  0.00  0.00    +0.000 C 
ENDBRANCH  13  20
ENDBRANCH   1  16
TORSDOF 3
ENDMDL
MODEL 6
REMARK VINA RESULT:      -6.8      2.205      8.980
REMARK  Name = 
REMARK  5 active torsions:
REMARK  status: ('A' for Active; 'I' for Inactive)
REMARK    1  A    between atoms: C_1  and  N_2
REMARK    2  A    between atoms: N_2  and  C_3
REMARK    3  A    between atoms: N_2  and  C_4
REMARK    4  A    between atoms: C_7  and  C_8
REMARK    5  A    between atoms: C_9  and  C_11
REMARK                            x       y       z     vdW  Elec       q    Type
REMARK                         _______ _______ _______ _____ _____    ______ ____
ROOT
ATOM      1  C   UNL     1       2.270   7.947  18.692  0.00  0.00    +0.000 C 
ATOM      2  C   UNL     1       1.715   7.791  19.913  0.00  0.00    +0.000 C 
ATOM      3 CL   UNL     1       1.837   6.325  20.832  0.00  0.00    +0.000 Cl
ENDROOT
BRANCH   2   4
ATOM      4  C   UNL     1       0.972   8.887  20.472  0.00  0.00    +0.000 A 
ATOM      5  N   UNL     1       0.608   9.010  21.738  0.00  0.00    +0.000 NA
ATOM      6  C   UNL     1      -0.248  10.084  21.911  0.00  0.00    +0.000 A 
ATOM      7  C   UNL     1      -0.867  10.458  23.122  0.00  0.00    +0.000 A 
ATOM      8  C   UNL     1      -1.770  11.525  23.140  0.00  0.00    +0.000 A 
ATOM      9  C   UNL     1      -2.045  12.235  21.975  0.00  0.00    +0.000 A 
ATOM     10  C   UNL     1      -1.417  11.905  20.771  0.00  0.00    +0.000 A 
ATOM     11  C   UNL     1      -0.527  10.818  20.762  0.00  0.00    +0.000 A 
ATOM     12  S   UNL     1       0.358  10.153  19.451  0.00  0.00    +0.000 S 
ENDBRANCH   2   4
BRANCH   1  16
ATOM     13  C   UNL     1       4.928   5.285  16.513  0.00  0.00    +0.000 A 
ATOM     14  C   UNL     1       5.176   6.662  16.632  0.00  0.00    +0.000 A 
ATOM     15  C   UNL     1       4.299   7.522  17.320  0.00  0.00    +0.000 A 
ATOM     16  C   UNL     1       3.146   7.029  17.941  0.00  0.00    +0.000 A 
ATOM     17  C   UNL     1       2.943   5.653  17.916  0.00  0.00    +0.000 A 
ATOM     18  C   UNL     1       3.804   4.806  17.204  0.00  0.00    +0.000 A 
BRANCH  13  20
ATOM     19  C   UNL     1       7.144   4.243  16.181  0.00  0.00    +0.000 C 
ATOM     20  N   UNL     1       5.750   4.416  15.785  0.00  0.00    +0.000 N 
ATOM     21  C   UNL     1       5.469   4.280  14.355  0.00  0.00    +0.000 C 
ENDBRANCH  13  20
ENDBRANCH   1  16
TORSDOF 3
ENDMDL
MODEL 7
REMARK VINA RESULT:      -6.7      1.349      1.730
REMARK  Name = 
REMARK  5 active torsions:
REMARK  status: ('A' for Active; 'I' for Inactive)
REMARK    1  A    between atoms: C_1  and  N_2
REMARK    2  A    between atoms: N_2  and  C_3
REMARK    3  A    between atoms: N_2  and  C_4
REMARK    4  A    between atoms: C_7  and  C_8
REMARK    5  A    between atoms: C_9  and  C_11
REMARK                            x       y       z     vdW  Elec       q    Type
REMARK                         _______ _______ _______ _____ _____    ______ ____
ROOT
ATOM      1  C   UNL     1       1.057   7.983  20.941  0.00  0.00    +0.000 C 
ATOM      2  C   UNL     1       1.710   7.779  19.776  0.00  0.00    +0.000 C 
ATOM      3 CL   UNL     1       1.857   8.991  18.545  0.00  0.00    +0.000 Cl
ENDROOT
BRANCH   2   4
ATOM      4  C   UNL     1       2.296   6.488  19.538  0.00  0.00    +0.000 A 
ATOM      5  N   UNL     1       2.937   6.120  18.441  0.00  0.00    +0.000 NA
ATOM      6  C   UNL     1       3.217   4.764  18.455  0.00  0.00    +0.000 A 
ATOM      7  C   UNL     1       3.836   4.039  17.417  0.00  0.00    +0.000 A 
ATOM      8  C   UNL     1       3.994   2.655  17.533  0.00  0.00    +0.000 A 
ATOM      9  C   UNL     1       3.564   1.991  18.678  0.00  0.00    +0.000 A 
ATOM     10  C   UNL     1       2.980   2.694  19.736  0.00  0.00    +0.000 A 
ATOM     11  C   UNL     1       2.809   4.081  19.598  0.00  0.00    +0.000 A 
ATOM     12  S   UNL     1       2.100   5.201  20.689  0.00  0.00    +0.000 S 
ENDBRANCH   2   4
BRANCH   1  16
ATOM     13  C   UNL     1      -0.705  11.602  22.582  0.00  0.00    +0.000 A 
ATOM     14  C   UNL     1      -0.928  10.336  23.146  0.00  0.00    +0.000 A 
ATOM     15  C   UNL     1      -0.372   9.165  22.596  0.00  0.00    +0.000 A 
ATOM     16  C   UNL     1       0.454   9.221  21.468  0.00  0.00    +0.000 A 
ATOM     17  C   UNL     1       0.764  10.479  20.962  0.00  0.00    +0.000 A 
ATOM     18  C   UNL     1       0.184  11.639  21.497  0.00  0.00    +0.000 A 
BRANCH  13  20
ATOM     19  C   UNL     1      -2.720  12.797  23.369  0.00  0.00    +0.000 C 
ATOM     20  N   UNL     1      -1.291  12.776  23.072  0.00  0.00    +0.000 N 
ATOM     21  C   UNL     1      -0.711  14.043  22.626  0.00  0.00    +0.000 C 
ENDBRANCH  13  20
ENDBRANCH   1  16
TORSDOF 3
ENDMDL
MODEL 8
REMARK VINA RESULT:      -6.7      2.612      8.621
REMARK  Name = 
REMARK  5 active torsions:
REMARK  status: ('A' for Active; 'I' for Inactive)
REMARK    1  A    between atoms: C_1  and  N_2
REMARK    2  A    between atoms: N_2  and  C_3
REMARK    3  A    between atoms: N_2  and  C_4
REMARK    4  A    between atoms: C_7  and  C_8
REMARK    5  A    between atoms: C_9  and  C_11
REMARK                            x       y       z     vdW  Elec       q    Type
REMARK                         _______ _______ _______ _____ _____    ______ ____
ROOT
ATOM      1  C   UNL     1       1.476   7.638  20.553  0.00  0.00    +0.000 C 
ATOM      2  C   UNL     1       1.248   8.716  19.770  0.00  0.00    +0.000 C 
ATOM      3 CL   UNL     1       1.839   8.852  18.146  0.00  0.00    +0.000 Cl
ENDROOT
BRANCH   2   4
ATOM      4  C   UNL     1       0.493   9.810  20.317  0.00  0.00    +0.000 A 
ATOM      5  N   UNL     1       0.253  10.019  21.601  0.00  0.00    +0.000 NA
ATOM      6  C   UNL     1      -0.652  11.051  21.780  0.00  0.00    +0.000 A 
ATOM      7  C   UNL     1      -1.168  11.490  23.017  0.00  0.00    +0.000 A 
ATOM      8  C   UNL     1      -2.136  12.499  23.048  0.00  0.00    +0.000 A 
ATOM      9  C   UNL     1      -2.575  13.089  21.866  0.00  0.00    +0.000 A 
ATOM     10  C   UNL     1      -2.053  12.695  20.632  0.00  0.00    +0.000 A 
ATOM     11  C   UNL     1      -1.096  11.666  20.613  0.00  0.00    +0.000 A 
ATOM     12  S   UNL     1      -0.306  10.944  19.271  0.00  0.00    +0.000 S 
ENDBRANCH   2   4
BRANCH   1  16
ATOM     13  C   UNL     1       3.327   3.837  19.538  0.00  0.00    +0.000 A 
ATOM     14  C   UNL     1       2.145   3.920  20.293  0.00  0.00    +0.000 A 
ATOM     15  C   UNL     1       1.564   5.156  20.636  0.00  0.00    +0.000 A 
ATOM     16  C   UNL     1       2.133   6.362  20.215  0.00  0.00    +0.000 A 
ATOM     17  C   UNL     1       3.245   6.289  19.382  0.00  0.00    +0.000 A 
ATOM     18  C   UNL     1       3.836   5.057  19.067  0.00  0.00    +0.000 A 
BRANCH  13  20
ATOM     19  C   UNL     1       3.404   1.768  18.190  0.00  0.00    +0.000 C 
ATOM     20  N   UNL     1       3.959   2.627  19.232  0.00  0.00    +0.000 N 
ATOM     21  C   UNL     1       4.647   1.942  20.327  0.00  0.00    +0.000 C 
ENDBRANCH  13  20
ENDBRANCH   1  16
TORSDOF 3
ENDMDL
MODEL 9
REMARK VINA RESULT:      -6.7      1.671      2.185
REMARK  Name = 
REMARK  5 active torsions:
REMARK  status: ('A' for Active; 'I' for Inactive)
REMARK    1  A    between atoms: C_1  and  N_2
REMARK    2  A    between atoms: N_2  and  C_3
REMARK    3  A    between atoms: N_2  and  C_4
REMARK    4  A    between atoms: C_7  and  C_8
REMARK    5  A    between atoms: C_9  and  C_11
REMARK                            x       y       z     vdW  Elec       q    Type
REMARK                         _______ _______ _______ _____ _____    ______ ____
ROOT
ATOM      1  C   UNL     1       2.050   8.482  18.828  0.00  0.00    +0.000 C 
ATOM      2  C   UNL     1       2.370   7.216  19.174  0.00  0.00    +0.000 C 
ATOM      3 CL   UNL     1       1.706   6.411  20.559  0.00  0.00    +0.000 Cl
ENDROOT
BRANCH   2   4
ATOM      4  C   UNL     1       3.322   6.506  18.363  0.00  0.00    +0.000 A 
ATOM      5  N   UNL     1       4.017   7.017  17.359  0.00  0.00    +0.000 NA
ATOM      6  C   UNL     1       4.704   6.031  16.673  0.00  0.00    +0.000 A 
ATOM      7  C   UNL     1       5.491   6.225  15.519  0.00  0.00    +0.000 A 
ATOM      8  C   UNL     1       6.073   5.126  14.881  0.00  0.00    +0.000 A 
ATOM      9  C   UNL     1       5.900   3.843  15.391  0.00  0.00    +0.000 A 
ATOM     10  C   UNL     1       5.153   3.629  16.553  0.00  0.00    +0.000 A 
ATOM     11  C   UNL     1       4.557   4.740  17.173  0.00  0.00    +0.000 A 
ATOM     12  S   UNL     1       3.564   4.798  18.572  0.00  0.00    +0.000 S 
ENDBRANCH   2   4
BRANCH   1  16
ATOM     13  C   UNL     1      -0.961  11.118  20.526  0.00  0.00    +0.000 A 
ATOM     14  C   UNL     1      -0.844  10.903  19.143  0.00  0.00    +0.000 A 
ATOM     15  C   UNL     1       0.149  10.066  18.599  0.00  0.00    +0.000 A 
ATOM     16  C   UNL     1       1.051   9.387  19.424  0.00  0.00    +0.000 A 
ATOM     17  C   UNL     1       0.879   9.512  20.800  0.00  0.00    +0.000 A 
ATOM     18  C   UNL     1      -0.092  10.370  21.335  0.00  0.00    +0.000 A 
BRANCH  13  20
ATOM     19  C   UNL     1      -2.410  13.107  20.302  0.00  0.00    +0.000 C 
ATOM     20  N   UNL     1      -1.899  11.990  21.091  0.00  0.00    +0.000 N 
ATOM     21  C   UNL     1      -1.811  12.213  22.535  0.00  0.00    +0.000 C 
ENDBRANCH  13  20
ENDBRANCH   1  16
TORSDOF 3
ENDMDL
