MODEL 1
REMARK VINA RESULT:      -7.5      0.000      0.000
REMARK  Name = 
REMARK  5 active torsions:
REMARK  status: ('A' for Active; 'I' for Inactive)
REMARK    1  A    between atoms: C_1  and  C_2
REMARK    2  A    between atoms: C_2  and  C_3
REMARK    3  A    between atoms: C_2  and  N_4
REMARK    4  A    between atoms: C_6  and  C_7
REMARK    5  A    between atoms: N_9  and  C_10
REMARK                            x       y       z     vdW  Elec       q    Type
REMARK                         _______ _______ _______ _____ _____    ______ ____
ROOT
ATOM      1  C   UNL     1       5.731   4.456  18.544  0.00  0.00    +0.000 C 
ATOM      2  O   UNL     1       6.933   4.375  18.773  0.00  0.00    +0.000 OA
ATOM      3  N   UNL     1       5.200   4.320  17.278  0.00  0.00    +0.000 N 
ATOM      4  H   UNL     1       4.228   4.559  17.121  0.00  0.00    +0.000 HD
ENDROOT
BRANCH   3   5
ATOM      5  C   UNL     1       6.044   4.067  16.114  0.00  0.00    +0.000 C 
ATOM      6  C   UNL     1       5.251   3.486  14.923  0.00  0.00    +0.000 C 
ATOM      7  C   UNL     1       6.110   3.899  13.769  0.00  0.00    +0.000 A 
ATOM      8  C   UNL     1       6.102   3.396  12.479  0.00  0.00    +0.000 A 
ATOM      9  C   UNL     1       6.985   3.945  11.547  0.00  0.00    +0.000 A 
ATOM     10  C   UNL     1       7.846   4.993  11.912  0.00  0.00    +0.000 A 
ATOM     11  C   UNL     1       7.837   5.505  13.213  0.00  0.00    +0.000 A 
ATOM     12  C   UNL     1       6.968   4.944  14.134  0.00  0.00    +0.000 A 
ATOM     13  C   UNL     1       6.758   5.327  15.570  0.00  0.00    +0.000 C 
ENDBRANCH   3   5
BRANCH   1  16
ATOM     14  N   UNL     1       2.504   4.275  20.264  0.00  0.00    +0.000 N 
ATOM     15  C   UNL     1       3.663   3.621  19.698  0.00  0.00    +0.000 C 
ATOM     16  C   UNL     1       4.707   4.727  19.629  0.00  0.00    +0.000 C 
ATOM     17  C   UNL     1       3.861   5.973  19.373  0.00  0.00    +0.000 C 
ATOM     18  C   UNL     1       2.548   5.645  20.042  0.00  0.00    +0.000 C 
ATOM     19  O   UNL     1       1.674   6.460  20.302  0.00  0.00    +0.000 OA
BRANCH  14  21
ATOM     20  C   UNL     1       0.682   2.820  19.423  0.00  0.00    +0.000 C 
ATOM     21  C   UNL     1       1.282   3.552  20.626  0.00  0.00    +0.000 C 
ATOM     22  C   UNL     1       1.529   2.582  21.779  0.00  0.00    +0.000 C 
ENDBRANCH  14  21
ENDBRANCH   1  16
TORSDOF 3
ENDMDL
MODEL 2
REMARK VINA RESULT:      -7.2      4.299      8.439
REMARK  Name = 
REMARK  5 active torsions:
REMARK  status: ('A' for Active; 'I' for Inactive)
REMARK    1  A    between atoms: C_1  and  C_2
REMARK    2  A    between atoms: C_2  and  C_3
REMARK    3  A    between atoms: C_2  and  N_4
REMARK    4  A    between atoms: C_6  and  C_7
REMARK    5  A    between atoms: N_9  and  C_10
REMARK                            x       y       z     vdW  Elec       q    Type
REMARK                         _______ _______ _______ _____ _____    ______ ____
ROOT
ATOM      1  C   UNL     1       2.571   7.444  18.806  0.00  0.00    +0.000 C 
ATOM      2  O   UNL     1       2.866   8.394  18.089  0.00  0.00    +0.000 OA
ATOM      3  N   UNL     1       1.864   7.586  19.982  0.00  0.00    +0.000 N 
ATOM      4  H   UNL     1       1.791   6.798  20.614  0.00  0.00    +0.000 HD
ENDROOT
BRANCH   3   5
ATOM      5  C   UNL     1       1.414   8.891  20.455  0.00  0.00    +0.000 C 
ATOM      6  C   UNL     1       0.328   9.509  19.546  0.00  0.00    +0.000 C 
ATOM      7  C   UNL     1      -0.368  10.426  20.503  0.00  0.00    +0.000 A 
ATOM      8  C   UNL     1      -1.207  11.486  20.206  0.00  0.00    +0.000 A 
ATOM      9  C   UNL     1      -1.768  12.204  21.264  0.00  0.00    +0.000 A 
ATOM     10  C   UNL     1      -1.495  11.844  22.594  0.00  0.00    +0.000 A 
ATOM     11  C   UNL     1      -0.659  10.763  22.885  0.00  0.00    +0.000 A 
ATOM     12  C   UNL     1      -0.095  10.066  21.828  0.00  0.00    +0.000 A 
ATOM     13  C   UNL     1       0.808   8.869  21.879  0.00  0.00    +0.000 C 
ENDBRANCH   3   5
BRANCH   1  16
ATOM     14  N   UNL     1       2.754   3.811  19.218  0.00  0.00    +0.000 N 
ATOM     15  C   UNL     1       1.975   5.018  19.060  0.00  0.00    +0.000 C 
ATOM     16  C   UNL     1       2.965   6.017  18.478  0.00  0.00    +0.000 C 
ATOM     17  C   UNL     1       4.287   5.587  19.111  0.00  0.00    +0.000 C 
ATOM     18  C   UNL     1       4.108   4.102  19.315  0.00  0.00    +0.000 C 
ATOM     19  O   UNL     1       5.014   3.317  19.559  0.00  0.00    +0.000 OA
BRANCH  14  21
ATOM     20  C   UNL     1       1.836   2.537  21.136  0.00  0.00    +0.000 C 
ATOM     21  C   UNL     1       2.168   2.536  19.642  0.00  0.00    +0.000 C 
ATOM     22  C   UNL     1       0.932   2.189  18.816  0.00  0.00    +0.000 C 
ENDBRANCH  14  21
ENDBRANCH   1  16
TORSDOF 3
ENDMDL
MODEL 3
REMARK VINA RESULT:      -7.1      3.328      8.275
REMARK  Name = 
REMARK  5 active torsions:
REMARK  status: ('A' for Active; 'I' for Inactive)
REMARK    1  A    between atoms: C_1  and  C_2
REMARK    2  A    between atoms: C_2  and  C_3
REMARK    3  A    between atoms: C_2  and  N_4
REMARK    4  A    between atoms: C_6  and  C_7
REMARK    5  A    between atoms: N_9  and  C_10
REMARK                            x       y       z     vdW  Elec       q    Type
REMARK                         _______ _______ _______ _____ _____    ______ ____
ROOT
ATOM      1  C   UNL     1       3.870   6.446  17.510  0.00  0.00    +0.000 C 
ATOM      2  O   UNL     1       3.129   5.494  17.727  0.00  0.00    +0.000 OA
ATOM      3  N   UNL     1       3.513   7.750  17.788  0.00  0.00    +0.000 N 
ATOM      4  H   UNL     1       4.090   8.506  17.440  0.00  0.00    +0.000 HD
ENDROOT
BRANCH   3   5
ATOM      5  C   UNL     1       2.216   8.084  18.367  0.00  0.00    +0.000 C 
ATOM      6  C   UNL     1       2.169   7.848  19.893  0.00  0.00    +0.000 C 
ATOM      7  C   UNL     1       1.082   8.792  20.302  0.00  0.00    +0.000 A 
ATOM      8  C   UNL     1       0.361   8.797  21.485  0.00  0.00    +0.000 A 
ATOM      9  C   UNL     1      -0.604   9.789  21.668  0.00  0.00    +0.000 A 
ATOM     10  C   UNL     1      -0.822  10.764  20.681  0.00  0.00    +0.000 A 
ATOM     11  C   UNL     1      -0.079  10.760  19.497  0.00  0.00    +0.000 A 
ATOM     12  C   UNL     1       0.867   9.763  19.318  0.00  0.00    +0.000 A 
ATOM     13  C   UNL     1       1.795   9.558  18.156  0.00  0.00    +0.000 C 
ENDBRANCH   3   5
BRANCH   1  16
ATOM     14  N   UNL     1       6.488   4.993  15.403  0.00  0.00    +0.000 N 
ATOM     15  C   UNL     1       5.186   5.605  15.543  0.00  0.00    +0.000 C 
ATOM     16  C   UNL     1       5.250   6.290  16.901  0.00  0.00    +0.000 C 
ATOM     17  C   UNL     1       6.169   5.366  17.700  0.00  0.00    +0.000 C 
ATOM     18  C   UNL     1       7.072   4.777  16.644  0.00  0.00    +0.000 C 
ATOM     19  O   UNL     1       8.118   4.185  16.871  0.00  0.00    +0.000 OA
BRANCH  14  21
ATOM     20  C   UNL     1       5.734   3.731  13.407  0.00  0.00    +0.000 C 
ATOM     21  C   UNL     1       6.920   4.317  14.176  0.00  0.00    +0.000 C 
ATOM     22  C   UNL     1       7.733   5.251  13.283  0.00  0.00    +0.000 C 
ENDBRANCH  14  21
ENDBRANCH   1  16
TORSDOF 3
ENDMDL
MODEL 4
REMARK VINA RESULT:      -7.1      6.102      8.004
REMARK  Name = 
REMARK  5 active torsions:
REMARK  status: ('A' for Active; 'I' for Inactive)
REMARK    1  A    between atoms: C_1  and  C_2
REMARK    2  A    between atoms: C_2  and  C_3
REMARK    3  A    between atoms: C_2  and  N_4
REMARK    4  A    between atoms: C_6  and  C_7
REMARK    5  A    between atoms: N_9  and  C_10
REMARK                            x       y       z     vdW  Elec       q    Type
REMARK                         _______ _______ _______ _____ _____    ______ ____
ROOT
ATOM      1  C   UNL     1       7.851   8.182  17.886  0.00  0.00    +0.000 C 
ATOM      2  O   UNL     1       7.171   8.863  17.127  0.00  0.00    +0.000 OA
ATOM      3  N   UNL     1       8.749   8.729  18.780  0.00  0.00    +0.000 N 
ATOM      4  H   UNL     1       9.400   8.122  19.263  0.00  0.00    +0.000 HD
ENDROOT
BRANCH   3   5
ATOM      5  C   UNL     1       8.949  10.172  18.882  0.00  0.00    +0.000 C 
ATOM      6  C   UNL     1       9.391  10.610  20.296  0.00  0.00    +0.000 C 
ATOM      7  C   UNL     1      10.099  11.894  19.997  0.00  0.00    +0.000 A 
ATOM      8  C   UNL     1      10.425  12.911  20.878  0.00  0.00    +0.000 A 
ATOM      9  C   UNL     1      11.110  14.023  20.383  0.00  0.00    +0.000 A 
ATOM     10  C   UNL     1      11.469  14.094  19.028  0.00  0.00    +0.000 A 
ATOM     11  C   UNL     1      11.149  13.057  18.148  0.00  0.00    +0.000 A 
ATOM     12  C   UNL     1      10.457  11.964  18.645  0.00  0.00    +0.000 A 
ATOM     13  C   UNL     1      10.021  10.727  17.915  0.00  0.00    +0.000 C 
ENDBRANCH   3   5
BRANCH   1  16
ATOM     14  N   UNL     1       6.521   4.847  17.172  0.00  0.00    +0.000 N 
ATOM     15  C   UNL     1       7.021   6.123  16.712  0.00  0.00    +0.000 C 
ATOM     16  C   UNL     1       7.785   6.667  17.911  0.00  0.00    +0.000 C 
ATOM     17  C   UNL     1       6.995   6.110  19.094  0.00  0.00    +0.000 C 
ATOM     18  C   UNL     1       6.430   4.818  18.557  0.00  0.00    +0.000 C 
ATOM     19  O   UNL     1       5.948   3.927  19.244  0.00  0.00    +0.000 OA
BRANCH  14  21
ATOM     20  C   UNL     1       4.299   4.033  16.433  0.00  0.00    +0.000 C 
ATOM     21  C   UNL     1       5.818   3.907  16.294  0.00  0.00    +0.000 C 
ATOM     22  C   UNL     1       6.243   4.080  14.838  0.00  0.00    +0.000 C 
ENDBRANCH  14  21
ENDBRANCH   1  16
TORSDOF 3
ENDMDL
MODEL 5
REMARK VINA RESULT:      -7.1      4.760      6.827
REMARK  Name = 
REMARK  5 active torsions:
REMARK  status: ('A' for Active; 'I' for Inactive)
REMARK    1  A    between atoms: C_1  and  C_2
REMARK    2  A    between atoms: C_2  and  C_3
REMARK    3  A    between atoms: C_2  and  N_4
REMARK    4  A    between atoms: C_6  and  C_7
REMARK    5  A    between atoms: N_9  and  C_10
REMARK                            x       y       z     vdW  Elec       q    Type
REMARK                         _______ _______ _______ _____ _____    ______ ____
ROOT
ATOM      1  C   UNL     1       1.919   8.805  18.233  0.00  0.00    +0.000 C 
ATOM      2  O   UNL     1       2.404   8.833  17.107  0.00  0.00    +0.000 OA
ATOM      3  N   UNL     1       2.006   7.703  19.059  0.00  0.00    +0.000 N 
ATOM      4  H   UNL     1       1.451   7.673  19.905  0.00  0.00    +0.000 HD
ENDROOT
BRANCH   3   5
ATOM      5  C   UNL     1       2.691   6.483  18.641  0.00  0.00    +0.000 C 
ATOM      6  C   UNL     1       3.319   5.720  19.829  0.00  0.00    +0.000 C 
ATOM      7  C   UNL     1       3.372   4.326  19.286  0.00  0.00    +0.000 A 
ATOM      8  C   UNL     1       4.126   3.261  19.749  0.00  0.00    +0.000 A 
ATOM      9  C   UNL     1       4.008   2.032  19.098  0.00  0.00    +0.000 A 
ATOM     10  C   UNL     1       3.132   1.882  18.010  0.00  0.00    +0.000 A 
ATOM     11  C   UNL     1       2.363   2.958  17.559  0.00  0.00    +0.000 A 
ATOM     12  C   UNL     1       2.498   4.178  18.202  0.00  0.00    +0.000 A 
ATOM     13  C   UNL     1       1.776   5.463  17.922  0.00  0.00    +0.000 C 
ENDBRANCH   3   5
BRANCH   1  16
ATOM     14  N   UNL     1      -0.301  10.565  20.553  0.00  0.00    +0.000 N 
ATOM     15  C   UNL     1       0.875   9.761  20.308  0.00  0.00    +0.000 C 
ATOM     16  C   UNL     1       1.162   9.976  18.828  0.00  0.00    +0.000 C 
ATOM     17  C   UNL     1      -0.235  10.163  18.240  0.00  0.00    +0.000 C 
ATOM     18  C   UNL     1      -1.014  10.772  19.380  0.00  0.00    +0.000 C 
ATOM     19  O   UNL     1      -2.104  11.319  19.269  0.00  0.00    +0.000 OA
BRANCH  14  21
ATOM     20  C   UNL     1      -0.298   9.750  22.894  0.00  0.00    +0.000 C 
ATOM     21  C   UNL     1      -0.869  10.755  21.890  0.00  0.00    +0.000 C 
ATOM     22  C   UNL     1      -0.665  12.185  22.384  0.00  0.00    +0.000 C 
ENDBRANCH  14  21
ENDBRANCH   1  16
TORSDOF 3
ENDMDL
MODEL 6
REMARK VINA RESULT:      -7.0      4.250      7.868
REMARK  Name = 
REMARK  5 active torsions:
REMARK  status: ('A' for Active; 'I' for Inactive)
REMARK    1  A    between atoms: C_1  and  C_2
REMARK    2  A    between atoms: C_2  and  C_3
REMARK    3  A    between atoms: C_2  and  N_4
REMARK    4  A    between atoms: C_6  and  C_7
REMARK    5  A    between atoms: N_9  and  C_10
REMARK                            x       y       z     vdW  Elec       q    Type
REMARK                         _______ _______ _______ _____ _____    ______ ____
ROOT
ATOM      1  C   UNL     1       2.922   7.274  18.221  0.00  0.00    +0.000 C 
ATOM      2  O   UNL     1       3.509   8.119  17.554  0.00  0.00    +0.000 OA
ATOM      3  N   UNL     1       1.934   7.591  19.131  0.00  0.00    +0.000 N 
ATOM      4  H   UNL     1       1.601   6.879  19.769  0.00  0.00    +0.000 HD
ENDROOT
BRANCH   3   5
ATOM      5  C   UNL     1       1.518   8.971  19.362  0.00  0.00    +0.000 C 
ATOM      6  C   UNL     1       0.600   9.508  18.241  0.00  0.00    +0.000 C 
ATOM      7  C   UNL     1      -0.148  10.584  18.965  0.00  0.00    +0.000 A 
ATOM      8  C   UNL     1      -0.869  11.633  18.420  0.00  0.00    +0.000 A 
ATOM      9  C   UNL     1      -1.509  12.520  19.289  0.00  0.00    +0.000 A 
ATOM     10  C   UNL     1      -1.431  12.337  20.679  0.00  0.00    +0.000 A 
ATOM     11  C   UNL     1      -0.714  11.267  21.220  0.00  0.00    +0.000 A 
ATOM     12  C   UNL     1      -0.070  10.401  20.351  0.00  0.00    +0.000 A 
ATOM     13  C   UNL     1       0.737   9.180  20.681  0.00  0.00    +0.000 C 
ENDBRANCH   3   5
BRANCH   1  16
ATOM     14  N   UNL     1       2.803   3.730  19.132  0.00  0.00    +0.000 N 
ATOM     15  C   UNL     1       2.129   4.950  18.749  0.00  0.00    +0.000 C 
ATOM     16  C   UNL     1       3.231   5.793  18.122  0.00  0.00    +0.000 C 
ATOM     17  C   UNL     1       4.467   5.372  18.914  0.00  0.00    +0.000 C 
ATOM     18  C   UNL     1       4.164   3.945  19.300  0.00  0.00    +0.000 C 
ATOM     19  O   UNL     1       4.988   3.145  19.721  0.00  0.00    +0.000 OA
BRANCH  14  21
ATOM     20  C   UNL     1       1.732   2.764  21.147  0.00  0.00    +0.000 C 
ATOM     21  C   UNL     1       2.093   2.567  19.673  0.00  0.00    +0.000 C 
ATOM     22  C   UNL     1       0.849   2.241  18.852  0.00  0.00    +0.000 C 
ENDBRANCH  14  21
ENDBRANCH   1  16
TORSDOF 3
ENDMDL
MODEL 7
REMARK VINA RESULT:      -6.8      4.638      8.936
REMARK  Name = 
REMARK  5 active torsions:
REMARK  status: ('A' for Active; 'I' for Inactive)
REMARK    1  A    between atoms: C_1  and  C_2
REMARK    2  A    between atoms: C_2  and  C_3
REMARK    3  A    between atoms: C_2  and  N_4
REMARK    4  A    between atoms: C_6  and  C_7
REMARK    5  A    between atoms: N_9  and  C_10
REMARK                            x       y       z     vdW  Elec       q    Type
REMARK                         _______ _______ _______ _____ _____    ______ ____
ROOT
ATOM      1  C   UNL     1       2.026   7.191  20.157  0.00  0.00    +0.000 C 
ATOM      2  O   UNL     1       2.325   7.915  19.213  0.00  0.00    +0.000 OA
ATOM      3  N   UNL     1       1.377   7.658  21.281  0.00  0.00    +0.000 N 
ATOM      4  H   UNL     1       1.302   7.058  22.094  0.00  0.00    +0.000 HD
ENDROOT
BRANCH   3   5
ATOM      5  C   UNL     1       0.998   9.060  21.423  0.00  0.00    +0.000 C 
ATOM      6  C   UNL     1       0.143   9.565  20.239  0.00  0.00    +0.000 C 
ATOM      7  C   UNL     1      -0.596  10.700  20.875  0.00  0.00    +0.000 A 
ATOM      8  C   UNL     1      -1.260  11.741  20.247  0.00  0.00    +0.000 A 
ATOM      9  C   UNL     1      -1.904  12.692  21.041  0.00  0.00    +0.000 A 
ATOM     10  C   UNL     1      -1.887  12.582  22.441  0.00  0.00    +0.000 A 
ATOM     11  C   UNL     1      -1.227  11.520  23.066  0.00  0.00    +0.000 A 
ATOM     12  C   UNL     1      -0.579  10.589  22.270  0.00  0.00    +0.000 A 
ATOM     13  C   UNL     1       0.174   9.363  22.697  0.00  0.00    +0.000 C 
ENDBRANCH   3   5
BRANCH   1  16
ATOM     14  N   UNL     1       2.554   3.819  18.832  0.00  0.00    +0.000 N 
ATOM     15  C   UNL     1       2.882   5.227  18.847  0.00  0.00    +0.000 C 
ATOM     16  C   UNL     1       2.351   5.710  20.189  0.00  0.00    +0.000 C 
ATOM     17  C   UNL     1       1.128   4.821  20.406  0.00  0.00    +0.000 C 
ATOM     18  C   UNL     1       1.492   3.547  19.684  0.00  0.00    +0.000 C 
ATOM     19  O   UNL     1       0.911   2.478  19.817  0.00  0.00    +0.000 OA
BRANCH  14  21
ATOM     20  C   UNL     1       3.983   3.592  16.819  0.00  0.00    +0.000 C 
ATOM     21  C   UNL     1       2.990   2.913  17.765  0.00  0.00    +0.000 C 
ATOM     22  C   UNL     1       3.581   1.626  18.335  0.00  0.00    +0.000 C 
ENDBRANCH  14  21
ENDBRANCH   1  16
TORSDOF 3
ENDMDL
MODEL 8
REMARK VINA RESULT:      -6.8      4.447      8.965
REMARK  Name = 
REMARK  5 active torsions:
REMARK  status: ('A' for Active; 'I' for Inactive)
REMARK    1  A    between atoms: C_1  and  C_2
REMARK    2  A    between atoms: C_2  and  C_3
REMARK    3  A    between atoms: C_2  and  N_4
REMARK    4  A    between atoms: C_6  and  C_7
REMARK    5  A    between atoms: N_9  and  C_10
REMARK                            x       y       z     vdW  Elec       q    Type
REMARK                         _______ _______ _______ _____ _____    ______ ____
ROOT
ATOM      1  C   UNL     1       2.371   7.429  19.288  0.00  0.00    +0.000 C 
ATOM      2  O   UNL     1       2.499   8.309  18.444  0.00  0.00    +0.000 OA
ATOM      3  N   UNL     1       1.801   7.655  20.524  0.00  0.00    +0.000 N 
ATOM      4  H   UNL     1       1.869   6.941  21.239  0.00  0.00    +0.000 HD
ENDROOT
BRANCH   3   5
ATOM      5  C   UNL     1       1.305   8.972  20.912  0.00  0.00    +0.000 C 
ATOM      6  C   UNL     1       0.313   9.558  19.882  0.00  0.00    +0.000 C 
ATOM      7  C   UNL     1      -0.474  10.501  20.738  0.00  0.00    +0.000 A 
ATOM      8  C   UNL     1      -1.281  11.549  20.329  0.00  0.00    +0.000 A 
ATOM      9  C   UNL     1      -1.944  12.296  21.305  0.00  0.00    +0.000 A 
ATOM     10  C   UNL     1      -1.803  11.976  22.665  0.00  0.00    +0.000 A 
ATOM     11  C   UNL     1      -0.998  10.907  23.069  0.00  0.00    +0.000 A 
ATOM     12  C   UNL     1      -0.333  10.181  22.094  0.00  0.00    +0.000 A 
ATOM     13  C   UNL     1       0.562   8.990  22.269  0.00  0.00    +0.000 C 
ENDBRANCH   3   5
BRANCH   1  16
ATOM     14  N   UNL     1       4.149   4.674  17.659  0.00  0.00    +0.000 N 
ATOM     15  C   UNL     1       4.162   5.963  18.313  0.00  0.00    +0.000 C 
ATOM     16  C   UNL     1       2.839   6.004  19.064  0.00  0.00    +0.000 C 
ATOM     17  C   UNL     1       1.913   5.193  18.159  0.00  0.00    +0.000 C 
ATOM     18  C   UNL     1       2.850   4.214  17.493  0.00  0.00    +0.000 C 
ATOM     19  O   UNL     1       2.496   3.212  16.885  0.00  0.00    +0.000 OA
BRANCH  14  21
ATOM     20  C   UNL     1       5.279   4.620  15.454  0.00  0.00    +0.000 C 
ATOM     21  C   UNL     1       5.295   4.151  16.911  0.00  0.00    +0.000 C 
ATOM     22  C   UNL     1       6.615   4.522  17.582  0.00  0.00    +0.000 C 
ENDBRANCH  14  21
ENDBRANCH   1  16
TORSDOF 3
ENDMDL
MODEL 9
REMARK VINA RESULT:      -6.8      4.136      8.551
REMARK  Name = 
REMARK  5 active torsions:
REMARK  status: ('A' for Active; 'I' for Inactive)
REMARK    1  A    between atoms: C_1  and  C_2
REMARK    2  A    between atoms: C_2  and  C_3
REMARK    3  A    between atoms: C_2  and  N_4
REMARK    4  A    between atoms: C_6  and  C_7
REMARK    5  A    between atoms: N_9  and  C_10
REMARK                            x       y       z     vdW  Elec       q    Type
REMARK                         _______ _______ _______ _____ _____    ______ ____
ROOT
ATOM      1  C   UNL     1       2.578   7.725  18.362  0.00  0.00    +0.000 C 
ATOM      2  O   UNL     1       2.924   8.815  17.918  0.00  0.00    +0.000 OA
ATOM      3  N   UNL     1       1.862   7.588  19.534  0.00  0.00    +0.000 N 
ATOM      4  H   UNL     1       1.746   6.667  19.938  0.00  0.00    +0.000 HD
ENDROOT
BRANCH   3   5
ATOM      5  C   UNL     1       1.466   8.744  20.331  0.00  0.00    +0.000 C 
ATOM      6  C   UNL     1       0.453   9.651  19.597  0.00  0.00    +0.000 C 
ATOM      7  C   UNL     1      -0.231  10.320  20.748  0.00  0.00    +0.000 A 
ATOM      8  C   UNL     1      -0.998  11.472  20.729  0.00  0.00    +0.000 A 
ATOM      9  C   UNL     1      -1.562  11.914  21.928  0.00  0.00    +0.000 A 
ATOM     10  C   UNL     1      -1.364  11.193  23.117  0.00  0.00    +0.000 A 
ATOM     11  C   UNL     1      -0.600  10.023  23.125  0.00  0.00    +0.000 A 
ATOM     12  C   UNL     1      -0.033   9.600  21.933  0.00  0.00    +0.000 A 
ATOM     13  C   UNL     1       0.801   8.379  21.681  0.00  0.00    +0.000 C 
ENDBRANCH   3   5
BRANCH   1  16
ATOM     14  N   UNL     1       3.420   4.173  18.084  0.00  0.00    +0.000 N 
ATOM     15  C   UNL     1       2.531   5.221  18.535  0.00  0.00    +0.000 C 
ATOM     16  C   UNL     1       2.911   6.416  17.673  0.00  0.00    +0.000 C 
ATOM     17  C   UNL     1       4.408   6.208  17.450  0.00  0.00    +0.000 C 
ATOM     18  C   UNL     1       4.561   4.707  17.499  0.00  0.00    +0.000 C 
ATOM     19  O   UNL     1       5.547   4.092  17.115  0.00  0.00    +0.000 OA
BRANCH  14  21
ATOM     20  C   UNL     1       4.026   2.612  19.911  0.00  0.00    +0.000 C 
ATOM     21  C   UNL     1       3.326   2.791  18.562  0.00  0.00    +0.000 C 
ATOM     22  C   UNL     1       1.874   2.327  18.642  0.00  0.00    +0.000 C 
ENDBRANCH  14  21
ENDBRANCH   1  16
TORSDOF 3
ENDMDL
