MODEL 1
REMARK VINA RESULT:      -8.6      0.000      0.000
REMARK  Name = 
REMARK  5 active torsions:
REMARK  status: ('A' for Active; 'I' for Inactive)
REMARK    1  A    between atoms: C_2  and  O_3
REMARK    2  A    between atoms: C_2  and  C_12
REMARK    3  A    between atoms: O_3  and  C_4
REMARK    4  A    between atoms: C_4  and  C_5
REMARK    5  A    between atoms: C_17  and  N_18
REMARK                            x       y       z     vdW  Elec       q    Type
REMARK                         _______ _______ _______ _____ _____    ______ ____
ROOT
ATOM      1  C   UNL     1       5.233   5.612  16.324  0.00  0.00    +0.000 A 
ATOM      2  C   UNL     1       5.908   5.986  15.150  0.00  0.00    +0.000 A 
ATOM      3  C   UNL     1       6.331   5.019  14.240  0.00  0.00    +0.000 A 
ATOM      4  C   UNL     1       6.124   3.667  14.509  0.00  0.00    +0.000 A 
ATOM      5  C   UNL     1       5.483   3.273  15.689  0.00  0.00    +0.000 A 
ATOM      6  C   UNL     1       4.999   4.238  16.585  0.00  0.00    +0.000 A 
ENDROOT
BRANCH   6   7
ATOM      7  N   UNL     1       4.198   3.818  17.668  0.00  0.00    +0.000 N 
ATOM      8  C   UNL     1       2.871   3.503  17.517  0.00  0.00    +0.000 C 
ATOM      9  O   UNL     1       2.217   3.340  16.500  0.00  0.00    +0.000 OA
ATOM     10  C   UNL     1       2.332   3.329  18.854  0.00  0.00    +0.000 A 
ATOM     11  C   UNL     1       1.020   3.147  19.243  0.00  0.00    +0.000 A 
ATOM     12  C   UNL     1       0.765   3.125  20.613  0.00  0.00    +0.000 A 
ATOM     13  C   UNL     1       1.817   3.266  21.543  0.00  0.00    +0.000 A 
ATOM     14  C   UNL     1       3.144   3.425  21.115  0.00  0.00    +0.000 A 
ATOM     15  C   UNL     1       3.375   3.455  19.755  0.00  0.00    +0.000 A 
ATOM     16  C   UNL     1       4.604   3.693  18.978  0.00  0.00    +0.000 C 
ATOM     17  O   UNL     1       5.712   3.777  19.478  0.00  0.00    +0.000 OA
ENDBRANCH   6   7
BRANCH   1  19
ATOM     18  O   UNL     1       5.659   7.313  17.971  0.00  0.00    +0.000 OA
ATOM     19  C   UNL     1       4.853   6.669  17.318  0.00  0.00    +0.000 C 
BRANCH  19  20
ATOM     20  O   UNL     1       3.501   6.761  17.419  0.00  0.00    +0.000 OA
BRANCH  20  21
ATOM     21  C   UNL     1       2.969   8.089  17.511  0.00  0.00    +0.000 C 
BRANCH  21  22
ATOM     22  C   UNL     1       2.107   8.284  18.736  0.00  0.00    +0.000 A 
ATOM     23  C   UNL     1       2.143   7.359  19.791  0.00  0.00    +0.000 A 
ATOM     24  C   UNL     1       1.389   7.571  20.951  0.00  0.00    +0.000 A 
ATOM     25  C   UNL     1       0.588   8.705  21.059  0.00  0.00    +0.000 A 
ATOM     26 CL   UNL     1      -0.334   8.969  22.488  0.00  0.00    +0.000 Cl
ATOM     27  C   UNL     1       0.534   9.629  20.018  0.00  0.00    +0.000 A 
ATOM     28  C   UNL     1       1.286   9.416  18.858  0.00  0.00    +0.000 A 
ENDBRANCH  21  22
ENDBRANCH  20  21
ENDBRANCH  19  20
ENDBRANCH   1  19
TORSDOF 5
ENDMDL
MODEL 2
REMARK VINA RESULT:      -8.6      1.420      4.788
REMARK  Name = 
REMARK  5 active torsions:
REMARK  status: ('A' for Active; 'I' for Inactive)
REMARK    1  A    between atoms: C_2  and  O_3
REMARK    2  A    between atoms: C_2  and  C_12
REMARK    3  A    between atoms: O_3  and  C_4
REMARK    4  A    between atoms: C_4  and  C_5
REMARK    5  A    between atoms: C_17  and  N_18
REMARK                            x       y       z     vdW  Elec       q    Type
REMARK                         _______ _______ _______ _____ _____    ______ ____
ROOT
ATOM      1  C   UNL     1       2.470   4.706  19.762  0.00  0.00    +0.000 A 
ATOM      2  C   UNL     1       1.720   4.612  20.946  0.00  0.00    +0.000 A 
ATOM      3  C   UNL     1       1.882   3.523  21.800  0.00  0.00    +0.000 A 
ATOM      4  C   UNL     1       2.762   2.495  21.465  0.00  0.00    +0.000 A 
ATOM      5  C   UNL     1       3.493   2.555  20.274  0.00  0.00    +0.000 A 
ATOM      6  C   UNL     1       3.385   3.673  19.434  0.00  0.00    +0.000 A 
ENDROOT
BRANCH   6   7
ATOM      7  N   UNL     1       4.269   3.789  18.340  0.00  0.00    +0.000 N 
ATOM      8  C   UNL     1       5.543   4.279  18.478  0.00  0.00    +0.000 C 
ATOM      9  O   UNL     1       6.188   4.505  19.489  0.00  0.00    +0.000 OA
ATOM     10  C   UNL     1       6.068   4.452  17.136  0.00  0.00    +0.000 A 
ATOM     11  C   UNL     1       7.248   5.047  16.736  0.00  0.00    +0.000 A 
ATOM     12  C   UNL     1       7.453   5.186  15.365  0.00  0.00    +0.000 A 
ATOM     13  C   UNL     1       6.493   4.716  14.443  0.00  0.00    +0.000 A 
ATOM     14  C   UNL     1       5.315   4.093  14.881  0.00  0.00    +0.000 A 
ATOM     15  C   UNL     1       5.125   3.975  16.243  0.00  0.00    +0.000 A 
ATOM     16  C   UNL     1       3.987   3.469  17.030  0.00  0.00    +0.000 C 
ATOM     17  O   UNL     1       3.019   2.916  16.539  0.00  0.00    +0.000 OA
ENDBRANCH   6   7
BRANCH   1  19
ATOM     18  O   UNL     1       1.668   5.745  17.746  0.00  0.00    +0.000 OA
ATOM     19  C   UNL     1       2.223   5.853  18.828  0.00  0.00    +0.000 C 
BRANCH  19  20
ATOM     20  O   UNL     1       2.749   6.999  19.335  0.00  0.00    +0.000 OA
BRANCH  20  21
ATOM     21  C   UNL     1       2.129   8.217  18.901  0.00  0.00    +0.000 C 
BRANCH  21  22
ATOM     22  C   UNL     1       1.251   8.831  19.967  0.00  0.00    +0.000 A 
ATOM     23  C   UNL     1       1.367   8.431  21.307  0.00  0.00    +0.000 A 
ATOM     24  C   UNL     1       0.596   9.042  22.302  0.00  0.00    +0.000 A 
ATOM     25  C   UNL     1      -0.302  10.051  21.962  0.00  0.00    +0.000 A 
ATOM     26 CL   UNL     1      -1.246  10.806  23.186  0.00  0.00    +0.000 Cl
ATOM     27  C   UNL     1      -0.435  10.454  20.635  0.00  0.00    +0.000 A 
ATOM     28  C   UNL     1       0.334   9.842  19.640  0.00  0.00    +0.000 A 
ENDBRANCH  21  22
ENDBRANCH  20  21
ENDBRANCH  19  20
ENDBRANCH   1  19
TORSDOF 5
ENDMDL
MODEL 3
REMARK VINA RESULT:      -8.4      0.608      1.093
REMARK  Name = 
REMARK  5 active torsions:
REMARK  status: ('A' for Active; 'I' for Inactive)
REMARK    1  A    between atoms: C_2  and  O_3
REMARK    2  A    between atoms: C_2  and  C_12
REMARK    3  A    between atoms: O_3  and  C_4
REMARK    4  A    between atoms: C_4  and  C_5
REMARK    5  A    between atoms: C_17  and  N_18
REMARK                            x       y       z     vdW  Elec       q    Type
REMARK                         _______ _______ _______ _____ _____    ______ ____
ROOT
ATOM      1  C   UNL     1       5.555   5.391  16.696  0.00  0.00    +0.000 A 
ATOM      2  C   UNL     1       6.329   5.820  15.605  0.00  0.00    +0.000 A 
ATOM      3  C   UNL     1       6.602   4.954  14.547  0.00  0.00    +0.000 A 
ATOM      4  C   UNL     1       6.143   3.639  14.585  0.00  0.00    +0.000 A 
ATOM      5  C   UNL     1       5.399   3.183  15.678  0.00  0.00    +0.000 A 
ATOM      6  C   UNL     1       5.066   4.060  16.720  0.00  0.00    +0.000 A 
ENDROOT
BRANCH   6   7
ATOM      7  N   UNL     1       4.162   3.624  17.713  0.00  0.00    +0.000 N 
ATOM      8  C   UNL     1       2.814   3.522  17.480  0.00  0.00    +0.000 C 
ATOM      9  O   UNL     1       2.195   3.582  16.431  0.00  0.00    +0.000 OA
ATOM     10  C   UNL     1       2.191   3.258  18.765  0.00  0.00    +0.000 A 
ATOM     11  C   UNL     1       0.849   3.216  19.085  0.00  0.00    +0.000 A 
ATOM     12  C   UNL     1       0.525   3.057  20.432  0.00  0.00    +0.000 A 
ATOM     13  C   UNL     1       1.539   2.931  21.404  0.00  0.00    +0.000 A 
ATOM     14  C   UNL     1       2.895   2.953  21.044  0.00  0.00    +0.000 A 
ATOM     15  C   UNL     1       3.195   3.121  19.707  0.00  0.00    +0.000 A 
ATOM     16  C   UNL     1       4.482   3.279  19.007  0.00  0.00    +0.000 C 
ATOM     17  O   UNL     1       5.565   3.143  19.548  0.00  0.00    +0.000 OA
ENDBRANCH   6   7
BRANCH   1  19
ATOM     18  O   UNL     1       5.810   6.152  18.963  0.00  0.00    +0.000 OA
ATOM     19  C   UNL     1       5.338   6.322  17.851  0.00  0.00    +0.000 C 
BRANCH  19  20
ATOM     20  O   UNL     1       4.507   7.337  17.492  0.00  0.00    +0.000 OA
BRANCH  20  21
ATOM     21  C   UNL     1       3.107   7.022  17.477  0.00  0.00    +0.000 C 
BRANCH  21  22
ATOM     22  C   UNL     1       2.381   7.561  18.687  0.00  0.00    +0.000 A 
ATOM     23  C   UNL     1       1.785   8.832  18.657  0.00  0.00    +0.000 A 
ATOM     24  C   UNL     1       1.061   9.306  19.756  0.00  0.00    +0.000 A 
ATOM     25  C   UNL     1       0.936   8.516  20.896  0.00  0.00    +0.000 A 
ATOM     26 CL   UNL     1       0.041   9.096  22.247  0.00  0.00    +0.000 Cl
ATOM     27  C   UNL     1       1.528   7.256  20.947  0.00  0.00    +0.000 A 
ATOM     28  C   UNL     1       2.254   6.783  19.848  0.00  0.00    +0.000 A 
ENDBRANCH  21  22
ENDBRANCH  20  21
ENDBRANCH  19  20
ENDBRANCH   1  19
TORSDOF 5
ENDMDL
MODEL 4
REMARK VINA RESULT:      -8.3      0.890      1.303
REMARK  Name = 
REMARK  5 active torsions:
REMARK  status: ('A' for Active; 'I' for Inactive)
REMARK    1  A    between atoms: C_2  and  O_3
REMARK    2  A    between atoms: C_2  and  C_12
REMARK    3  A    between atoms: O_3  and  C_4
REMARK    4  A    between atoms: C_4  and  C_5
REMARK    5  A    between atoms: C_17  and  N_18
REMARK                            x       y       z     vdW  Elec       q    Type
REMARK                         _______ _______ _______ _____ _____    ______ ____
ROOT
ATOM      1  C   UNL     1       5.187   5.546  16.398  0.00  0.00    +0.000 A 
ATOM      2  C   UNL     1       5.846   5.971  15.233  0.00  0.00    +0.000 A 
ATOM      3  C   UNL     1       6.239   5.047  14.266  0.00  0.00    +0.000 A 
ATOM      4  C   UNL     1       6.017   3.685  14.469  0.00  0.00    +0.000 A 
ATOM      5  C   UNL     1       5.392   3.240  15.639  0.00  0.00    +0.000 A 
ATOM      6  C   UNL     1       4.937   4.163  16.592  0.00  0.00    +0.000 A 
ENDROOT
BRANCH   6   7
ATOM      7  N   UNL     1       4.149   3.699  17.666  0.00  0.00    +0.000 N 
ATOM      8  C   UNL     1       2.826   3.367  17.512  0.00  0.00    +0.000 C 
ATOM      9  O   UNL     1       2.170   3.222  16.494  0.00  0.00    +0.000 OA
ATOM     10  C   UNL     1       2.298   3.145  18.846  0.00  0.00    +0.000 A 
ATOM     11  C   UNL     1       0.991   2.930  19.236  0.00  0.00    +0.000 A 
ATOM     12  C   UNL     1       0.743   2.864  20.606  0.00  0.00    +0.000 A 
ATOM     13  C   UNL     1       1.798   2.996  21.534  0.00  0.00    +0.000 A 
ATOM     14  C   UNL     1       3.119   3.189  21.106  0.00  0.00    +0.000 A 
ATOM     15  C   UNL     1       3.343   3.263  19.745  0.00  0.00    +0.000 A 
ATOM     16  C   UNL     1       4.564   3.544  18.970  0.00  0.00    +0.000 C 
ATOM     17  O   UNL     1       5.673   3.632  19.466  0.00  0.00    +0.000 OA
ENDBRANCH   6   7
BRANCH   1  19
ATOM     18  O   UNL     1       5.659   7.089  18.182  0.00  0.00    +0.000 OA
ATOM     19  C   UNL     1       4.839   6.555  17.451  0.00  0.00    +0.000 C 
BRANCH  19  20
ATOM     20  O   UNL     1       3.494   6.741  17.505  0.00  0.00    +0.000 OA
BRANCH  20  21
ATOM     21  C   UNL     1       2.921   6.789  18.819  0.00  0.00    +0.000 C 
BRANCH  21  22
ATOM     22  C   UNL     1       2.039   7.998  19.022  0.00  0.00    +0.000 A 
ATOM     23  C   UNL     1       1.700   8.827  17.940  0.00  0.00    +0.000 A 
ATOM     24  C   UNL     1       0.835   9.912  18.118  0.00  0.00    +0.000 A 
ATOM     25  C   UNL     1       0.310  10.181  19.379  0.00  0.00    +0.000 A 
ATOM     26 CL   UNL     1      -0.759  11.512  19.597  0.00  0.00    +0.000 Cl
ATOM     27  C   UNL     1       0.643   9.374  20.465  0.00  0.00    +0.000 A 
ATOM     28  C   UNL     1       1.509   8.290  20.289  0.00  0.00    +0.000 A 
ENDBRANCH  21  22
ENDBRANCH  20  21
ENDBRANCH  19  20
ENDBRANCH   1  19
TORSDOF 5
ENDMDL
MODEL 5
REMARK VINA RESULT:      -8.2      1.487      4.615
REMARK  Name = 
REMARK  5 active torsions:
REMARK  status: ('A' for Active; 'I' for Inactive)
REMARK    1  A    between atoms: C_2  and  O_3
REMARK    2  A    between atoms: C_2  and  C_12
REMARK    3  A    between atoms: O_3  and  C_4
REMARK    4  A    between atoms: C_4  and  C_5
REMARK    5  A    between atoms: C_17  and  N_18
REMARK                            x       y       z     vdW  Elec       q    Type
REMARK                         _______ _______ _______ _____ _____    ______ ____
ROOT
ATOM      1  C   UNL     1       2.526   4.748  19.951  0.00  0.00    +0.000 A 
ATOM      2  C   UNL     1       1.868   4.406  21.144  0.00  0.00    +0.000 A 
ATOM      3  C   UNL     1       2.172   3.217  21.803  0.00  0.00    +0.000 A 
ATOM      4  C   UNL     1       3.105   2.335  21.260  0.00  0.00    +0.000 A 
ATOM      5  C   UNL     1       3.747   2.641  20.055  0.00  0.00    +0.000 A 
ATOM      6  C   UNL     1       3.495   3.862  19.412  0.00  0.00    +0.000 A 
ENDROOT
BRANCH   6   7
ATOM      7  N   UNL     1       4.290   4.223  18.304  0.00  0.00    +0.000 N 
ATOM      8  C   UNL     1       3.954   3.880  17.019  0.00  0.00    +0.000 C 
ATOM      9  O   UNL     1       2.913   3.419  16.580  0.00  0.00    +0.000 OA
ATOM     10  C   UNL     1       5.092   4.226  16.187  0.00  0.00    +0.000 A 
ATOM     11  C   UNL     1       5.306   3.948  14.852  0.00  0.00    +0.000 A 
ATOM     12  C   UNL     1       6.549   4.295  14.325  0.00  0.00    +0.000 A 
ATOM     13  C   UNL     1       7.524   4.915  15.134  0.00  0.00    +0.000 A 
ATOM     14  C   UNL     1       7.268   5.207  16.482  0.00  0.00    +0.000 A 
ATOM     15  C   UNL     1       6.035   4.846  16.988  0.00  0.00    +0.000 A 
ATOM     16  C   UNL     1       5.479   4.918  18.351  0.00  0.00    +0.000 C 
ATOM     17  O   UNL     1       6.038   5.474  19.279  0.00  0.00    +0.000 OA
ENDBRANCH   6   7
BRANCH   1  19
ATOM     18  O   UNL     1       1.681   6.017  18.090  0.00  0.00    +0.000 OA
ATOM     19  C   UNL     1       2.127   5.999  19.227  0.00  0.00    +0.000 C 
BRANCH  19  20
ATOM     20  O   UNL     1       2.384   7.092  19.993  0.00  0.00    +0.000 OA
BRANCH  20  21
ATOM     21  C   UNL     1       1.935   8.347  19.462  0.00  0.00    +0.000 C 
BRANCH  21  22
ATOM     22  C   UNL     1       1.007   9.075  20.406  0.00  0.00    +0.000 A 
ATOM     23  C   UNL     1       0.968   8.744  21.770  0.00  0.00    +0.000 A 
ATOM     24  C   UNL     1       0.152   9.459  22.654  0.00  0.00    +0.000 A 
ATOM     25  C   UNL     1      -0.637  10.504  22.178  0.00  0.00    +0.000 A 
ATOM     26 CL   UNL     1      -1.636  11.387  23.266  0.00  0.00    +0.000 Cl
ATOM     27  C   UNL     1      -0.617  10.840  20.826  0.00  0.00    +0.000 A 
ATOM     28  C   UNL     1       0.197  10.124  19.942  0.00  0.00    +0.000 A 
ENDBRANCH  21  22
ENDBRANCH  20  21
ENDBRANCH  19  20
ENDBRANCH   1  19
TORSDOF 5
ENDMDL
MODEL 6
REMARK VINA RESULT:      -8.1      1.549      4.913
REMARK  Name = 
REMARK  5 active torsions:
REMARK  status: ('A' for Active; 'I' for Inactive)
REMARK    1  A    between atoms: C_2  and  O_3
REMARK    2  A    between atoms: C_2  and  C_12
REMARK    3  A    between atoms: O_3  and  C_4
REMARK    4  A    between atoms: C_4  and  C_5
REMARK    5  A    between atoms: C_17  and  N_18
REMARK                            x       y       z     vdW  Elec       q    Type
REMARK                         _______ _______ _______ _____ _____    ______ ____
ROOT
ATOM      1  C   UNL     1       2.456   4.570  19.773  0.00  0.00    +0.000 A 
ATOM      2  C   UNL     1       1.689   4.439  20.942  0.00  0.00    +0.000 A 
ATOM      3  C   UNL     1       1.905   3.374  21.815  0.00  0.00    +0.000 A 
ATOM      4  C   UNL     1       2.860   2.404  21.511  0.00  0.00    +0.000 A 
ATOM      5  C   UNL     1       3.611   2.499  20.335  0.00  0.00    +0.000 A 
ATOM      6  C   UNL     1       3.446   3.597  19.478  0.00  0.00    +0.000 A 
ENDROOT
BRANCH   6   7
ATOM      7  N   UNL     1       4.343   3.761  18.402  0.00  0.00    +0.000 N 
ATOM      8  C   UNL     1       5.566   4.365  18.554  0.00  0.00    +0.000 C 
ATOM      9  O   UNL     1       6.163   4.675  19.572  0.00  0.00    +0.000 OA
ATOM     10  C   UNL     1       6.108   4.546  17.219  0.00  0.00    +0.000 A 
ATOM     11  C   UNL     1       7.240   5.232  16.829  0.00  0.00    +0.000 A 
ATOM     12  C   UNL     1       7.467   5.350  15.459  0.00  0.00    +0.000 A 
ATOM     13  C   UNL     1       6.575   4.772  14.530  0.00  0.00    +0.000 A 
ATOM     14  C   UNL     1       5.445   4.059  14.960  0.00  0.00    +0.000 A 
ATOM     15  C   UNL     1       5.232   3.963  16.320  0.00  0.00    +0.000 A 
ATOM     16  C   UNL     1       4.123   3.381  17.096  0.00  0.00    +0.000 C 
ATOM     17  O   UNL     1       3.220   2.732  16.600  0.00  0.00    +0.000 OA
ENDBRANCH   6   7
BRANCH   1  19
ATOM     18  O   UNL     1       1.588   5.533  17.747  0.00  0.00    +0.000 OA
ATOM     19  C   UNL     1       2.152   5.686  18.819  0.00  0.00    +0.000 C 
BRANCH  19  20
ATOM     20  O   UNL     1       2.639   6.863  19.296  0.00  0.00    +0.000 OA
BRANCH  20  21
ATOM     21  C   UNL     1       2.504   7.994  18.424  0.00  0.00    +0.000 C 
BRANCH  21  22
ATOM     22  C   UNL     1       1.444   8.962  18.893  0.00  0.00    +0.000 A 
ATOM     23  C   UNL     1       0.735   9.750  17.971  0.00  0.00    +0.000 A 
ATOM     24  C   UNL     1      -0.287  10.603  18.400  0.00  0.00    +0.000 A 
ATOM     25  C   UNL     1      -0.602  10.681  19.755  0.00  0.00    +0.000 A 
ATOM     26 CL   UNL     1      -1.864  11.725  20.283  0.00  0.00    +0.000 Cl
ATOM     27  C   UNL     1       0.097   9.913  20.684  0.00  0.00    +0.000 A 
ATOM     28  C   UNL     1       1.121   9.061  20.255  0.00  0.00    +0.000 A 
ENDBRANCH  21  22
ENDBRANCH  20  21
ENDBRANCH  19  20
ENDBRANCH   1  19
TORSDOF 5
ENDMDL
MODEL 7
REMARK VINA RESULT:      -8.1      1.568      4.932
REMARK  Name = 
REMARK  5 active torsions:
REMARK  status: ('A' for Active; 'I' for Inactive)
REMARK    1  A    between atoms: C_2  and  O_3
REMARK    2  A    between atoms: C_2  and  C_12
REMARK    3  A    between atoms: O_3  and  C_4
REMARK    4  A    between atoms: C_4  and  C_5
REMARK    5  A    between atoms: C_17  and  N_18
REMARK                            x       y       z     vdW  Elec       q    Type
REMARK                         _______ _______ _______ _____ _____    ______ ____
ROOT
ATOM      1  C   UNL     1       2.019   4.074  19.374  0.00  0.00    +0.000 A 
ATOM      2  C   UNL     1       1.088   3.923  20.415  0.00  0.00    +0.000 A 
ATOM      3  C   UNL     1       1.408   3.174  21.546  0.00  0.00    +0.000 A 
ATOM      4  C   UNL     1       2.643   2.533  21.635  0.00  0.00    +0.000 A 
ATOM      5  C   UNL     1       3.570   2.644  20.594  0.00  0.00    +0.000 A 
ATOM      6  C   UNL     1       3.286   3.443  19.477  0.00  0.00    +0.000 A 
ENDROOT
BRANCH   6   7
ATOM      7  N   UNL     1       4.309   3.684  18.536  0.00  0.00    +0.000 N 
ATOM      8  C   UNL     1       5.289   4.622  18.745  0.00  0.00    +0.000 C 
ATOM      9  O   UNL     1       5.578   5.238  19.757  0.00  0.00    +0.000 OA
ATOM     10  C   UNL     1       6.022   4.740  17.497  0.00  0.00    +0.000 A 
ATOM     11  C   UNL     1       7.003   5.648  17.150  0.00  0.00    +0.000 A 
ATOM     12  C   UNL     1       7.459   5.613  15.834  0.00  0.00    +0.000 A 
ATOM     13  C   UNL     1       6.940   4.674  14.918  0.00  0.00    +0.000 A 
ATOM     14  C   UNL     1       5.960   3.748  15.307  0.00  0.00    +0.000 A 
ATOM     15  C   UNL     1       5.513   3.805  16.612  0.00  0.00    +0.000 A 
ATOM     16  C   UNL     1       4.453   3.062  17.315  0.00  0.00    +0.000 C 
ATOM     17  O   UNL     1       3.855   2.119  16.829  0.00  0.00    +0.000 OA
ENDBRANCH   6   7
BRANCH   1  19
ATOM     18  O   UNL     1       0.897   4.372  17.268  0.00  0.00    +0.000 OA
ATOM     19  C   UNL     1       1.622   4.825  18.139  0.00  0.00    +0.000 C 
BRANCH  19  20
ATOM     20  O   UNL     1       2.223   6.044  18.111  0.00  0.00    +0.000 OA
BRANCH  20  21
ATOM     21  C   UNL     1       2.340   6.712  19.375  0.00  0.00    +0.000 C 
BRANCH  21  22
ATOM     22  C   UNL     1       1.807   8.125  19.334  0.00  0.00    +0.000 A 
ATOM     23  C   UNL     1       1.203   8.695  20.465  0.00  0.00    +0.000 A 
ATOM     24  C   UNL     1       0.763  10.023  20.446  0.00  0.00    +0.000 A 
ATOM     25  C   UNL     1       0.918  10.787  19.291  0.00  0.00    +0.000 A 
ATOM     26 CL   UNL     1       0.383  12.423  19.268  0.00  0.00    +0.000 Cl
ATOM     27  C   UNL     1       1.508  10.235  18.157  0.00  0.00    +0.000 A 
ATOM     28  C   UNL     1       1.945   8.906  18.176  0.00  0.00    +0.000 A 
ENDBRANCH  21  22
ENDBRANCH  20  21
ENDBRANCH  19  20
ENDBRANCH   1  19
TORSDOF 5
ENDMDL
MODEL 8
REMARK VINA RESULT:      -7.9      0.422      1.702
REMARK  Name = 
REMARK  5 active torsions:
REMARK  status: ('A' for Active; 'I' for Inactive)
REMARK    1  A    between atoms: C_2  and  O_3
REMARK    2  A    between atoms: C_2  and  C_12
REMARK    3  A    between atoms: O_3  and  C_4
REMARK    4  A    between atoms: C_4  and  C_5
REMARK    5  A    between atoms: C_17  and  N_18
REMARK                            x       y       z     vdW  Elec       q    Type
REMARK                         _______ _______ _______ _____ _____    ______ ____
ROOT
ATOM      1  C   UNL     1       5.070   5.672  16.343  0.00  0.00    +0.000 A 
ATOM      2  C   UNL     1       5.777   5.858  15.144  0.00  0.00    +0.000 A 
ATOM      3  C   UNL     1       6.109   4.766  14.343  0.00  0.00    +0.000 A 
ATOM      4  C   UNL     1       5.776   3.475  14.748  0.00  0.00    +0.000 A 
ATOM      5  C   UNL     1       5.101   3.267  15.956  0.00  0.00    +0.000 A 
ATOM      6  C   UNL     1       4.708   4.360  16.742  0.00  0.00    +0.000 A 
ENDROOT
BRANCH   6   7
ATOM      7  N   UNL     1       3.871   4.131  17.854  0.00  0.00    +0.000 N 
ATOM      8  C   UNL     1       4.367   3.975  19.124  0.00  0.00    +0.000 C 
ATOM      9  O   UNL     1       5.490   4.178  19.555  0.00  0.00    +0.000 OA
ATOM     10  C   UNL     1       3.254   3.550  19.954  0.00  0.00    +0.000 A 
ATOM     11  C   UNL     1       3.265   3.125  21.267  0.00  0.00    +0.000 A 
ATOM     12  C   UNL     1       2.060   2.658  21.791  0.00  0.00    +0.000 A 
ATOM     13  C   UNL     1       0.891   2.643  21.000  0.00  0.00    +0.000 A 
ATOM     14  C   UNL     1       0.908   3.103  19.675  0.00  0.00    +0.000 A 
ATOM     15  C   UNL     1       2.112   3.553  19.172  0.00  0.00    +0.000 A 
ATOM     16  C   UNL     1       2.499   4.009  17.826  0.00  0.00    +0.000 C 
ATOM     17  O   UNL     1       1.704   4.189  16.920  0.00  0.00    +0.000 OA
ENDBRANCH   6   7
BRANCH   1  19
ATOM     18  O   UNL     1       5.656   7.567  17.705  0.00  0.00    +0.000 OA
ATOM     19  C   UNL     1       4.790   6.857  17.219  0.00  0.00    +0.000 C 
BRANCH  19  20
ATOM     20  O   UNL     1       3.453   6.986  17.428  0.00  0.00    +0.000 OA
BRANCH  20  21
ATOM     21  C   UNL     1       2.976   8.325  17.619  0.00  0.00    +0.000 C 
BRANCH  21  22
ATOM     22  C   UNL     1       2.068   8.450  18.820  0.00  0.00    +0.000 A 
ATOM     23  C   UNL     1       2.095   7.487  19.842  0.00  0.00    +0.000 A 
ATOM     24  C   UNL     1       1.297   7.634  20.981  0.00  0.00    +0.000 A 
ATOM     25  C   UNL     1       0.461   8.741  21.104  0.00  0.00    +0.000 A 
ATOM     26 CL   UNL     1      -0.517   8.926  22.508  0.00  0.00    +0.000 Cl
ATOM     27  C   UNL     1       0.415   9.702  20.096  0.00  0.00    +0.000 A 
ATOM     28  C   UNL     1       1.211   9.553  18.955  0.00  0.00    +0.000 A 
ENDBRANCH  21  22
ENDBRANCH  20  21
ENDBRANCH  19  20
ENDBRANCH   1  19
TORSDOF 5
ENDMDL
MODEL 9
REMARK VINA RESULT:      -7.8      3.970      5.183
REMARK  Name = 
REMARK  5 active torsions:
REMARK  status: ('A' for Active; 'I' for Inactive)
REMARK    1  A    between atoms: C_2  and  O_3
REMARK    2  A    between atoms: C_2  and  C_12
REMARK    3  A    between atoms: O_3  and  C_4
REMARK    4  A    between atoms: C_4  and  C_5
REMARK    5  A    between atoms: C_17  and  N_18
REMARK                            x       y       z     vdW  Elec       q    Type
REMARK                         _______ _______ _______ _____ _____    ______ ____
ROOT
ATOM      1  C   UNL     1       6.888   5.672  16.428  0.00  0.00    +0.000 A 
ATOM      2  C   UNL     1       7.604   5.498  15.232  0.00  0.00    +0.000 A 
ATOM      3  C   UNL     1       7.074   4.732  14.196  0.00  0.00    +0.000 A 
ATOM      4  C   UNL     1       5.843   4.096  14.355  0.00  0.00    +0.000 A 
ATOM      5  C   UNL     1       5.131   4.229  15.551  0.00  0.00    +0.000 A 
ATOM      6  C   UNL     1       5.624   5.046  16.579  0.00  0.00    +0.000 A 
ENDROOT
BRANCH   6   7
ATOM      7  N   UNL     1       4.799   5.309  17.693  0.00  0.00    +0.000 N 
ATOM      8  C   UNL     1       4.636   4.405  18.713  0.00  0.00    +0.000 C 
ATOM      9  O   UNL     1       5.252   3.380  18.954  0.00  0.00    +0.000 OA
ATOM     10  C   UNL     1       3.571   4.919  19.556  0.00  0.00    +0.000 A 
ATOM     11  C   UNL     1       2.940   4.310  20.622  0.00  0.00    +0.000 A 
ATOM     12  C   UNL     1       1.860   4.986  21.186  0.00  0.00    +0.000 A 
ATOM     13  C   UNL     1       1.457   6.242  20.685  0.00  0.00    +0.000 A 
ATOM     14  C   UNL     1       2.135   6.846  19.615  0.00  0.00    +0.000 A 
ATOM     15  C   UNL     1       3.196   6.156  19.063  0.00  0.00    +0.000 A 
ATOM     16  C   UNL     1       4.050   6.447  17.899  0.00  0.00    +0.000 C 
ATOM     17  O   UNL     1       4.016   7.497  17.283  0.00  0.00    +0.000 OA
ENDBRANCH   6   7
BRANCH   1  19
ATOM     18  O   UNL     1       7.560   6.050  18.706  0.00  0.00    +0.000 OA
ATOM     19  C   UNL     1       7.515   6.442  17.551  0.00  0.00    +0.000 C 
BRANCH  19  20
ATOM     20  O   UNL     1       7.968   7.644  17.107  0.00  0.00    +0.000 OA
BRANCH  20  21
ATOM     21  C   UNL     1       7.273   8.797  17.603  0.00  0.00    +0.000 C 
BRANCH  21  22
ATOM     22  C   UNL     1       8.213   9.877  18.083  0.00  0.00    +0.000 A 
ATOM     23  C   UNL     1       8.162  11.168  17.532  0.00  0.00    +0.000 A 
ATOM     24  C   UNL     1       8.992  12.183  18.019  0.00  0.00    +0.000 A 
ATOM     25  C   UNL     1       9.885  11.913  19.053  0.00  0.00    +0.000 A 
ATOM     26 CL   UNL     1      10.901  13.164  19.656  0.00  0.00    +0.000 Cl
ATOM     27  C   UNL     1       9.955  10.636  19.605  0.00  0.00    +0.000 A 
ATOM     28  C   UNL     1       9.126   9.620  19.117  0.00  0.00    +0.000 A 
ENDBRANCH  21  22
ENDBRANCH  20  21
ENDBRANCH  19  20
ENDBRANCH   1  19
TORSDOF 5
ENDMDL
