MODEL 1
REMARK VINA RESULT:      -8.6      0.000      0.000
REMARK  Name = 
REMARK  8 active torsions:
REMARK  status: ('A' for Active; 'I' for Inactive)
REMARK    1  A    between atoms: C_1  and  C_2
REMARK    2  A    between atoms: C_5  and  O_6
REMARK    3  A    between atoms: O_6  and  C_7
REMARK    4  A    between atoms: C_7  and  C_8
REMARK    5  A    between atoms: N_10  and  C_11
REMARK    6  A    between atoms: C_14  and  N_15
REMARK    7  A    between atoms: C_19  and  C_21
REMARK    8  A    between atoms: C_31  and  C_32
REMARK                            x       y       z     vdW  Elec       q    Type
REMARK                         _______ _______ _______ _____ _____    ______ ____
ROOT
ATOM      1  C   UNL     1       2.808   4.573  19.877  0.00  0.00    +0.000 A 
ATOM      2  C   UNL     1       1.731   4.953  20.653  0.00  0.00    +0.000 A 
ATOM      3  C   UNL     1       1.282   6.263  20.709  0.00  0.00    +0.000 A 
ATOM      4  C   UNL     1       1.961   7.282  20.058  0.00  0.00    +0.000 A 
ATOM      5  C   UNL     1       3.127   6.920  19.365  0.00  0.00    +0.000 A 
ATOM      6  C   UNL     1       3.551   5.581  19.269  0.00  0.00    +0.000 A 
ENDROOT
BRANCH   4   7
ATOM      7  N   UNL     1       1.481   8.563  20.116  0.00  0.00    +0.000 N 
ATOM      8  C   UNL     1       1.363   9.424  18.936  0.00  0.00    +0.000 C 
ATOM      9  C   UNL     1      -0.058  10.021  18.854  0.00  0.00    +0.000 C 
ATOM     10  N   UNL     1      -0.478  10.593  20.139  0.00  0.00    +0.000 N 
ATOM     11  C   UNL     1      -1.051  11.867  20.182  0.00  0.00    +0.000 C 
ATOM     12  O   UNL     1      -1.313  12.464  19.141  0.00  0.00    +0.000 OA
ATOM     13  C   UNL     1      -0.356   9.667  21.268  0.00  0.00    +0.000 C 
ATOM     14  C   UNL     1       1.089   9.176  21.400  0.00  0.00    +0.000 C 
BRANCH  11  15
ATOM     15  C   UNL     1      -1.348  12.448  21.477  0.00  0.00    +0.000 A 
ATOM     16  C   UNL     1      -0.589  13.284  22.278  0.00  0.00    +0.000 A 
ATOM     17  C   UNL     1      -1.371  13.576  23.422  0.00  0.00    +0.000 A 
ATOM     18  C   UNL     1      -2.536  12.867  23.280  0.00  0.00    +0.000 A 
ATOM     19  O   UNL     1      -2.514  12.147  22.129  0.00  0.00    +0.000 OA
ENDBRANCH  11  15
ENDBRANCH   4   7
BRANCH   1  22
ATOM     20  C   UNL     1       3.415   2.536  18.518  0.00  0.00    +0.000 C 
ATOM     21  O   UNL     1       3.672   1.324  18.607  0.00  0.00    +0.000 OA
ATOM     22  N   UNL     1       3.180   3.229  19.681  0.00  0.00    +0.000 N 
ATOM     23  H   UNL     1       3.356   2.668  20.508  0.00  0.00    +0.000 HD
BRANCH  20  24
ATOM     24  C   UNL     1       3.414   3.230  17.155  0.00  0.00    +0.000 C 
BRANCH  24  25
ATOM     25  O   UNL     1       4.775   3.258  16.739  0.00  0.00    +0.000 OA
BRANCH  25  30
ATOM     26  C   UNL     1       7.588   8.099  17.577  0.00  0.00    +0.000 C 
ATOM     27  C   UNL     1       6.886   6.800  17.293  0.00  0.00    +0.000 A 
ATOM     28  C   UNL     1       5.975   6.719  16.226  0.00  0.00    +0.000 A 
ATOM     29  C   UNL     1       5.258   5.542  15.974  0.00  0.00    +0.000 A 
ATOM     30  C   UNL     1       5.445   4.440  16.800  0.00  0.00    +0.000 A 
ATOM     31  C   UNL     1       6.405   4.488  17.811  0.00  0.00    +0.000 A 
ATOM     32  C   UNL     1       7.114   5.663  18.089  0.00  0.00    +0.000 A 
ATOM     33  C   UNL     1       8.060   5.682  19.257  0.00  0.00    +0.000 C 
ENDBRANCH  25  30
ENDBRANCH  24  25
ENDBRANCH  20  24
ENDBRANCH   1  22
TORSDOF 6
ENDMDL
MODEL 2
REMARK VINA RESULT:      -8.4      0.661      1.128
REMARK  Name = 
REMARK  8 active torsions:
REMARK  status: ('A' for Active; 'I' for Inactive)
REMARK    1  A    between atoms: C_1  and  C_2
REMARK    2  A    between atoms: C_5  and  O_6
REMARK    3  A    between atoms: O_6  and  C_7
REMARK    4  A    between atoms: C_7  and  C_8
REMARK    5  A    between atoms: N_10  and  C_11
REMARK    6  A    between atoms: C_14  and  N_15
REMARK    7  A    between atoms: C_19  and  C_21
REMARK    8  A    between atoms: C_31  and  C_32
REMARK                            x       y       z     vdW  Elec       q    Type
REMARK                         _______ _______ _______ _____ _____    ______ ____
ROOT
ATOM      1  C   UNL     1       2.755   4.934  19.804  0.00  0.00    +0.000 A 
ATOM      2  C   UNL     1       3.036   5.871  18.829  0.00  0.00    +0.000 A 
ATOM      3  C   UNL     1       2.586   7.180  18.907  0.00  0.00    +0.000 A 
ATOM      4  C   UNL     1       1.741   7.589  19.928  0.00  0.00    +0.000 A 
ATOM      5  C   UNL     1       1.354   6.609  20.855  0.00  0.00    +0.000 A 
ATOM      6  C   UNL     1       1.854   5.294  20.802  0.00  0.00    +0.000 A 
ENDROOT
BRANCH   4   7
ATOM      7  N   UNL     1       1.330   8.894  19.987  0.00  0.00    +0.000 N 
ATOM      8  C   UNL     1       1.312   9.777  18.818  0.00  0.00    +0.000 C 
ATOM      9  C   UNL     1      -0.070  10.453  18.685  0.00  0.00    +0.000 C 
ATOM     10  N   UNL     1      -0.514  11.029  19.960  0.00  0.00    +0.000 N 
ATOM     11  C   UNL     1      -1.017  12.332  20.001  0.00  0.00    +0.000 C 
ATOM     12  O   UNL     1      -1.200  12.958  18.959  0.00  0.00    +0.000 OA
ATOM     13  C   UNL     1      -0.493  10.081  21.078  0.00  0.00    +0.000 C 
ATOM     14  C   UNL     1       0.915   9.509  21.263  0.00  0.00    +0.000 C 
BRANCH  11  15
ATOM     15  C   UNL     1      -1.339  12.910  21.291  0.00  0.00    +0.000 A 
ATOM     16  C   UNL     1      -2.558  13.037  21.935  0.00  0.00    +0.000 A 
ATOM     17  C   UNL     1      -2.298  13.649  23.185  0.00  0.00    +0.000 A 
ATOM     18  C   UNL     1      -0.952  13.906  23.214  0.00  0.00    +0.000 A 
ATOM     19  O   UNL     1      -0.370  13.503  22.054  0.00  0.00    +0.000 OA
ENDBRANCH  11  15
ENDBRANCH   4   7
BRANCH   1  22
ATOM     20  C   UNL     1       3.652   2.805  18.792  0.00  0.00    +0.000 C 
ATOM     21  O   UNL     1       4.099   1.682  19.077  0.00  0.00    +0.000 OA
ATOM     22  N   UNL     1       3.331   3.650  19.827  0.00  0.00    +0.000 N 
ATOM     23  H   UNL     1       3.609   3.279  20.729  0.00  0.00    +0.000 HD
BRANCH  20  24
ATOM     24  C   UNL     1       3.517   3.237  17.331  0.00  0.00    +0.000 C 
BRANCH  24  25
ATOM     25  O   UNL     1       4.844   3.281  16.820  0.00  0.00    +0.000 OA
BRANCH  25  30
ATOM     26  C   UNL     1       7.644   8.139  17.607  0.00  0.00    +0.000 C 
ATOM     27  C   UNL     1       6.947   6.834  17.338  0.00  0.00    +0.000 A 
ATOM     28  C   UNL     1       6.069   6.724  16.246  0.00  0.00    +0.000 A 
ATOM     29  C   UNL     1       5.358   5.542  16.006  0.00  0.00    +0.000 A 
ATOM     30  C   UNL     1       5.515   4.464  16.868  0.00  0.00    +0.000 A 
ATOM     31  C   UNL     1       6.444   4.539  17.907  0.00  0.00    +0.000 A 
ATOM     32  C   UNL     1       7.147   5.720  18.172  0.00  0.00    +0.000 A 
ATOM     33  C   UNL     1       8.057   5.771  19.368  0.00  0.00    +0.000 C 
ENDBRANCH  25  30
ENDBRANCH  24  25
ENDBRANCH  20  24
ENDBRANCH   1  22
TORSDOF 6
ENDMDL
MODEL 3
REMARK VINA RESULT:      -8.2      1.887      4.034
REMARK  Name = 
REMARK  8 active torsions:
REMARK  status: ('A' for Active; 'I' for Inactive)
REMARK    1  A    between atoms: C_1  and  C_2
REMARK    2  A    between atoms: C_5  and  O_6
REMARK    3  A    between atoms: O_6  and  C_7
REMARK    4  A    between atoms: C_7  and  C_8
REMARK    5  A    between atoms: N_10  and  C_11
REMARK    6  A    between atoms: C_14  and  N_15
REMARK    7  A    between atoms: C_19  and  C_21
REMARK    8  A    between atoms: C_31  and  C_32
REMARK                            x       y       z     vdW  Elec       q    Type
REMARK                         _______ _______ _______ _____ _____    ______ ____
ROOT
ATOM      1  C   UNL     1       4.351   6.621  17.654  0.00  0.00    +0.000 A 
ATOM      2  C   UNL     1       3.686   7.737  17.185  0.00  0.00    +0.000 A 
ATOM      3  C   UNL     1       2.694   8.371  17.918  0.00  0.00    +0.000 A 
ATOM      4  C   UNL     1       2.249   7.851  19.124  0.00  0.00    +0.000 A 
ATOM      5  C   UNL     1       2.838   6.649  19.547  0.00  0.00    +0.000 A 
ATOM      6  C   UNL     1       3.881   6.036  18.826  0.00  0.00    +0.000 A 
ENDROOT
BRANCH   4   7
ATOM      7  N   UNL     1       1.282   8.512  19.832  0.00  0.00    +0.000 N 
ATOM      8  C   UNL     1       0.763   8.028  21.115  0.00  0.00    +0.000 C 
ATOM      9  C   UNL     1       0.814   9.157  22.167  0.00  0.00    +0.000 C 
ATOM     10  N   UNL     1       0.242  10.405  21.648  0.00  0.00    +0.000 N 
ATOM     11  C   UNL     1      -0.679  11.123  22.414  0.00  0.00    +0.000 C 
ATOM     12  O   UNL     1      -0.926  10.780  23.568  0.00  0.00    +0.000 OA
ATOM     13  C   UNL     1       0.826  10.840  20.376  0.00  0.00    +0.000 C 
ATOM     14  C   UNL     1       0.663   9.747  19.315  0.00  0.00    +0.000 C 
BRANCH  11  15
ATOM     15  C   UNL     1      -1.309  12.289  21.826  0.00  0.00    +0.000 A 
ATOM     16  C   UNL     1      -1.116  13.636  22.082  0.00  0.00    +0.000 A 
ATOM     17  C   UNL     1      -1.969  14.346  21.203  0.00  0.00    +0.000 A 
ATOM     18  C   UNL     1      -2.667  13.399  20.498  0.00  0.00    +0.000 A 
ATOM     19  O   UNL     1      -2.308  12.153  20.900  0.00  0.00    +0.000 OA
ENDBRANCH  11  15
ENDBRANCH   4   7
BRANCH   1  22
ATOM     20  C   UNL     1       5.608   4.841  16.383  0.00  0.00    +0.000 C 
ATOM     21  O   UNL     1       6.727   4.547  15.932  0.00  0.00    +0.000 OA
ATOM     22  N   UNL     1       5.466   6.059  17.002  0.00  0.00    +0.000 N 
ATOM     23  H   UNL     1       6.296   6.635  16.918  0.00  0.00    +0.000 HD
BRANCH  20  24
ATOM     24  C   UNL     1       4.425   3.888  16.203  0.00  0.00    +0.000 C 
BRANCH  24  25
ATOM     25  O   UNL     1       4.697   2.777  17.049  0.00  0.00    +0.000 OA
BRANCH  25  30
ATOM     26  C   UNL     1       1.409   2.668  21.657  0.00  0.00    +0.000 C 
ATOM     27  C   UNL     1       2.297   2.622  20.445  0.00  0.00    +0.000 A 
ATOM     28  C   UNL     1       3.693   2.577  20.604  0.00  0.00    +0.000 A 
ATOM     29  C   UNL     1       4.548   2.596  19.496  0.00  0.00    +0.000 A 
ATOM     30  C   UNL     1       4.008   2.671  18.218  0.00  0.00    +0.000 A 
ATOM     31  C   UNL     1       2.623   2.637  18.050  0.00  0.00    +0.000 A 
ATOM     32  C   UNL     1       1.755   2.638  19.148  0.00  0.00    +0.000 A 
ATOM     33  C   UNL     1       0.273   2.705  18.902  0.00  0.00    +0.000 C 
ENDBRANCH  25  30
ENDBRANCH  24  25
ENDBRANCH  20  24
ENDBRANCH   1  22
TORSDOF 6
ENDMDL
MODEL 4
REMARK VINA RESULT:      -7.9      1.950      3.858
REMARK  Name = 
REMARK  8 active torsions:
REMARK  status: ('A' for Active; 'I' for Inactive)
REMARK    1  A    between atoms: C_1  and  C_2
REMARK    2  A    between atoms: C_5  and  O_6
REMARK    3  A    between atoms: O_6  and  C_7
REMARK    4  A    between atoms: C_7  and  C_8
REMARK    5  A    between atoms: N_10  and  C_11
REMARK    6  A    between atoms: C_14  and  N_15
REMARK    7  A    between atoms: C_19  and  C_21
REMARK    8  A    between atoms: C_31  and  C_32
REMARK                            x       y       z     vdW  Elec       q    Type
REMARK                         _______ _______ _______ _____ _____    ______ ____
ROOT
ATOM      1  C   UNL     1       4.886   6.572  17.591  0.00  0.00    +0.000 A 
ATOM      2  C   UNL     1       4.035   7.501  17.024  0.00  0.00    +0.000 A 
ATOM      3  C   UNL     1       2.998   8.087  17.733  0.00  0.00    +0.000 A 
ATOM      4  C   UNL     1       2.701   7.691  19.029  0.00  0.00    +0.000 A 
ATOM      5  C   UNL     1       3.487   6.661  19.568  0.00  0.00    +0.000 A 
ATOM      6  C   UNL     1       4.572   6.104  18.864  0.00  0.00    +0.000 A 
ENDROOT
BRANCH   4   7
ATOM      7  N   UNL     1       1.683   8.303  19.709  0.00  0.00    +0.000 N 
ATOM      8  C   UNL     1       1.157   7.798  20.980  0.00  0.00    +0.000 C 
ATOM      9  C   UNL     1       1.122   8.931  22.027  0.00  0.00    +0.000 C 
ATOM     10  N   UNL     1       0.500  10.146  21.488  0.00  0.00    +0.000 N 
ATOM     11  C   UNL     1      -0.477  10.818  22.226  0.00  0.00    +0.000 C 
ATOM     12  O   UNL     1      -0.736  10.467  23.375  0.00  0.00    +0.000 OA
ATOM     13  C   UNL     1       1.094  10.607  20.229  0.00  0.00    +0.000 C 
ATOM     14  C   UNL     1       1.015   9.503  19.169  0.00  0.00    +0.000 C 
BRANCH  11  15
ATOM     15  C   UNL     1      -1.151  11.948  21.617  0.00  0.00    +0.000 A 
ATOM     16  C   UNL     1      -2.150  11.982  20.658  0.00  0.00    +0.000 A 
ATOM     17  C   UNL     1      -2.465  13.346  20.445  0.00  0.00    +0.000 A 
ATOM     18  C   UNL     1      -1.612  14.066  21.242  0.00  0.00    +0.000 A 
ATOM     19  O   UNL     1      -0.783  13.231  21.920  0.00  0.00    +0.000 OA
ENDBRANCH  11  15
ENDBRANCH   4   7
BRANCH   1  22
ATOM     20  C   UNL     1       6.197   5.000  16.117  0.00  0.00    +0.000 C 
ATOM     21  O   UNL     1       7.343   4.739  15.716  0.00  0.00    +0.000 OA
ATOM     22  N   UNL     1       6.038   6.086  16.943  0.00  0.00    +0.000 N 
ATOM     23  H   UNL     1       6.891   6.625  17.042  0.00  0.00    +0.000 HD
BRANCH  20  24
ATOM     24  C   UNL     1       5.005   4.159  15.657  0.00  0.00    +0.000 C 
BRANCH  24  25
ATOM     25  O   UNL     1       4.817   3.176  16.669  0.00  0.00    +0.000 OA
BRANCH  25  30
ATOM     26  C   UNL     1       0.564   3.212  20.405  0.00  0.00    +0.000 C 
ATOM     27  C   UNL     1       1.698   3.280  19.420  0.00  0.00    +0.000 A 
ATOM     28  C   UNL     1       1.461   3.749  18.116  0.00  0.00    +0.000 A 
ATOM     29  C   UNL     1       2.482   3.765  17.157  0.00  0.00    +0.000 A 
ATOM     30  C   UNL     1       3.745   3.300  17.499  0.00  0.00    +0.000 A 
ATOM     31  C   UNL     1       4.007   2.907  18.812  0.00  0.00    +0.000 A 
ATOM     32  C   UNL     1       2.993   2.866  19.776  0.00  0.00    +0.000 A 
ATOM     33  C   UNL     1       3.314   2.335  21.146  0.00  0.00    +0.000 C 
ENDBRANCH  25  30
ENDBRANCH  24  25
ENDBRANCH  20  24
ENDBRANCH   1  22
TORSDOF 6
ENDMDL
MODEL 5
REMARK VINA RESULT:      -7.8      0.990      1.087
REMARK  Name = 
REMARK  8 active torsions:
REMARK  status: ('A' for Active; 'I' for Inactive)
REMARK    1  A    between atoms: C_1  and  C_2
REMARK    2  A    between atoms: C_5  and  O_6
REMARK    3  A    between atoms: O_6  and  C_7
REMARK    4  A    between atoms: C_7  and  C_8
REMARK    5  A    between atoms: N_10  and  C_11
REMARK    6  A    between atoms: C_14  and  N_15
REMARK    7  A    between atoms: C_19  and  C_21
REMARK    8  A    between atoms: C_31  and  C_32
REMARK                            x       y       z     vdW  Elec       q    Type
REMARK                         _______ _______ _______ _____ _____    ______ ____
ROOT
ATOM      1  C   UNL     1       2.031   4.621  19.308  0.00  0.00    +0.000 A 
ATOM      2  C   UNL     1       1.820   5.212  20.538  0.00  0.00    +0.000 A 
ATOM      3  C   UNL     1       1.597   6.573  20.679  0.00  0.00    +0.000 A 
ATOM      4  C   UNL     1       1.674   7.429  19.590  0.00  0.00    +0.000 A 
ATOM      5  C   UNL     1       2.008   6.849  18.356  0.00  0.00    +0.000 A 
ATOM      6  C   UNL     1       2.183   5.460  18.208  0.00  0.00    +0.000 A 
ENDROOT
BRANCH   4   7
ATOM      7  N   UNL     1       1.430   8.765  19.759  0.00  0.00    +0.000 N 
ATOM      8  C   UNL     1       1.789   9.773  18.757  0.00  0.00    +0.000 C 
ATOM      9  C   UNL     1       0.571  10.668  18.446  0.00  0.00    +0.000 C 
ATOM     10  N   UNL     1      -0.073  11.151  19.673  0.00  0.00    +0.000 N 
ATOM     11  C   UNL     1      -0.402  12.503  19.804  0.00  0.00    +0.000 C 
ATOM     12  O   UNL     1      -0.264  13.269  18.854  0.00  0.00    +0.000 OA
ATOM     13  C   UNL     1      -0.426  10.086  20.616  0.00  0.00    +0.000 C 
ATOM     14  C   UNL     1       0.820   9.281  20.999  0.00  0.00    +0.000 C 
BRANCH  11  15
ATOM     15  C   UNL     1      -0.931  12.966  21.072  0.00  0.00    +0.000 A 
ATOM     16  C   UNL     1      -2.241  13.079  21.507  0.00  0.00    +0.000 A 
ATOM     17  C   UNL     1      -2.189  13.557  22.839  0.00  0.00    +0.000 A 
ATOM     18  C   UNL     1      -0.863  13.757  23.123  0.00  0.00    +0.000 A 
ATOM     19  O   UNL     1      -0.097  13.446  22.046  0.00  0.00    +0.000 OA
ENDBRANCH  11  15
ENDBRANCH   4   7
BRANCH   1  22
ATOM     20  C   UNL     1       3.180   2.420  18.857  0.00  0.00    +0.000 C 
ATOM     21  O   UNL     1       2.970   1.210  18.674  0.00  0.00    +0.000 OA
ATOM     22  N   UNL     1       2.100   3.226  19.125  0.00  0.00    +0.000 N 
ATOM     23  H   UNL     1       1.244   2.696  19.250  0.00  0.00    +0.000 HD
BRANCH  20  24
ATOM     24  C   UNL     1       4.606   2.971  18.833  0.00  0.00    +0.000 C 
BRANCH  24  25
ATOM     25  O   UNL     1       4.784   3.513  17.529  0.00  0.00    +0.000 OA
BRANCH  25  30
ATOM     26  C   UNL     1       7.853   8.271  17.578  0.00  0.00    +0.000 C 
ATOM     27  C   UNL     1       7.079   6.983  17.504  0.00  0.00    +0.000 A 
ATOM     28  C   UNL     1       6.113   6.808  16.498  0.00  0.00    +0.000 A 
ATOM     29  C   UNL     1       5.332   5.647  16.440  0.00  0.00    +0.000 A 
ATOM     30  C   UNL     1       5.509   4.657  17.399  0.00  0.00    +0.000 A 
ATOM     31  C   UNL     1       6.520   4.790  18.352  0.00  0.00    +0.000 A 
ATOM     32  C   UNL     1       7.295   5.954  18.436  0.00  0.00    +0.000 A 
ATOM     33  C   UNL     1       8.298   6.079  19.549  0.00  0.00    +0.000 C 
ENDBRANCH  25  30
ENDBRANCH  24  25
ENDBRANCH  20  24
ENDBRANCH   1  22
TORSDOF 6
ENDMDL
MODEL 6
REMARK VINA RESULT:      -7.7      2.696      4.323
REMARK  Name = 
REMARK  8 active torsions:
REMARK  status: ('A' for Active; 'I' for Inactive)
REMARK    1  A    between atoms: C_1  and  C_2
REMARK    2  A    between atoms: C_5  and  O_6
REMARK    3  A    between atoms: O_6  and  C_7
REMARK    4  A    between atoms: C_7  and  C_8
REMARK    5  A    between atoms: N_10  and  C_11
REMARK    6  A    between atoms: C_14  and  N_15
REMARK    7  A    between atoms: C_19  and  C_21
REMARK    8  A    between atoms: C_31  and  C_32
REMARK                            x       y       z     vdW  Elec       q    Type
REMARK                         _______ _______ _______ _____ _____    ______ ____
ROOT
ATOM      1  C   UNL     1       4.448   6.405  17.473  0.00  0.00    +0.000 A 
ATOM      2  C   UNL     1       3.786   7.527  17.015  0.00  0.00    +0.000 A 
ATOM      3  C   UNL     1       2.831   8.185  17.773  0.00  0.00    +0.000 A 
ATOM      4  C   UNL     1       2.418   7.686  19.000  0.00  0.00    +0.000 A 
ATOM      5  C   UNL     1       3.001   6.478  19.416  0.00  0.00    +0.000 A 
ATOM      6  C   UNL     1       4.009   5.840  18.667  0.00  0.00    +0.000 A 
ENDROOT
BRANCH   4   7
ATOM      7  N   UNL     1       1.487   8.370  19.733  0.00  0.00    +0.000 N 
ATOM      8  C   UNL     1       1.051   7.943  21.066  0.00  0.00    +0.000 C 
ATOM      9  C   UNL     1       1.150   9.120  22.059  0.00  0.00    +0.000 C 
ATOM     10  N   UNL     1       0.533  10.337  21.517  0.00  0.00    +0.000 N 
ATOM     11  C   UNL     1      -0.350  11.082  22.302  0.00  0.00    +0.000 C 
ATOM     12  O   UNL     1      -0.524  10.792  23.483  0.00  0.00    +0.000 OA
ATOM     13  C   UNL     1       1.035  10.717  20.193  0.00  0.00    +0.000 C 
ATOM     14  C   UNL     1       0.823   9.573  19.196  0.00  0.00    +0.000 C 
BRANCH  11  15
ATOM     15  C   UNL     1      -1.028  12.212  21.699  0.00  0.00    +0.000 A 
ATOM     16  C   UNL     1      -2.087  12.248  20.806  0.00  0.00    +0.000 A 
ATOM     17  C   UNL     1      -2.374  13.613  20.567  0.00  0.00    +0.000 A 
ATOM     18  C   UNL     1      -1.450  14.330  21.282  0.00  0.00    +0.000 A 
ATOM     19  O   UNL     1      -0.604  13.492  21.934  0.00  0.00    +0.000 OA
ENDBRANCH  11  15
ENDBRANCH   4   7
BRANCH   1  22
ATOM     20  C   UNL     1       6.879   6.058  16.895  0.00  0.00    +0.000 C 
ATOM     21  O   UNL     1       7.640   5.446  16.128  0.00  0.00    +0.000 OA
ATOM     22  N   UNL     1       5.531   5.817  16.790  0.00  0.00    +0.000 N 
ATOM     23  H   UNL     1       5.322   5.061  16.147  0.00  0.00    +0.000 HD
BRANCH  20  24
ATOM     24  C   UNL     1       7.446   7.009  17.952  0.00  0.00    +0.000 C 
BRANCH  24  25
ATOM     25  O   UNL     1       7.607   8.260  17.293  0.00  0.00    +0.000 OA
BRANCH  25  30
ATOM     26  C   UNL     1      10.124  12.772  19.607  0.00  0.00    +0.000 C 
ATOM     27  C   UNL     1       9.407  11.572  19.054  0.00  0.00    +0.000 A 
ATOM     28  C   UNL     1       9.638  10.303  19.614  0.00  0.00    +0.000 A 
ATOM     29  C   UNL     1       9.034   9.157  19.081  0.00  0.00    +0.000 A 
ATOM     30  C   UNL     1       8.203   9.276  17.974  0.00  0.00    +0.000 A 
ATOM     31  C   UNL     1       7.908  10.540  17.463  0.00  0.00    +0.000 A 
ATOM     32  C   UNL     1       8.519  11.693  17.971  0.00  0.00    +0.000 A 
ATOM     33  C   UNL     1       8.239  13.015  17.311  0.00  0.00    +0.000 C 
ENDBRANCH  25  30
ENDBRANCH  24  25
ENDBRANCH  20  24
ENDBRANCH   1  22
TORSDOF 6
ENDMDL
MODEL 7
REMARK VINA RESULT:      -7.7      0.979      1.590
REMARK  Name = 
REMARK  8 active torsions:
REMARK  status: ('A' for Active; 'I' for Inactive)
REMARK    1  A    between atoms: C_1  and  C_2
REMARK    2  A    between atoms: C_5  and  O_6
REMARK    3  A    between atoms: O_6  and  C_7
REMARK    4  A    between atoms: C_7  and  C_8
REMARK    5  A    between atoms: N_10  and  C_11
REMARK    6  A    between atoms: C_14  and  N_15
REMARK    7  A    between atoms: C_19  and  C_21
REMARK    8  A    between atoms: C_31  and  C_32
REMARK                            x       y       z     vdW  Elec       q    Type
REMARK                         _______ _______ _______ _____ _____    ______ ____
ROOT
ATOM      1  C   UNL     1       2.139   4.789  19.251  0.00  0.00    +0.000 A 
ATOM      2  C   UNL     1       1.775   5.338  20.465  0.00  0.00    +0.000 A 
ATOM      3  C   UNL     1       1.498   6.687  20.615  0.00  0.00    +0.000 A 
ATOM      4  C   UNL     1       1.669   7.577  19.565  0.00  0.00    +0.000 A 
ATOM      5  C   UNL     1       2.155   7.043  18.361  0.00  0.00    +0.000 A 
ATOM      6  C   UNL     1       2.388   5.663  18.197  0.00  0.00    +0.000 A 
ENDROOT
BRANCH   4   7
ATOM      7  N   UNL     1       1.368   8.901  19.740  0.00  0.00    +0.000 N 
ATOM      8  C   UNL     1       1.524   9.900  18.679  0.00  0.00    +0.000 C 
ATOM      9  C   UNL     1       0.221  10.713  18.522  0.00  0.00    +0.000 C 
ATOM     10  N   UNL     1      -0.278  11.191  19.817  0.00  0.00    +0.000 N 
ATOM     11  C   UNL     1      -0.669  12.524  19.966  0.00  0.00    +0.000 C 
ATOM     12  O   UNL     1      -0.710  13.270  18.991  0.00  0.00    +0.000 OA
ATOM     13  C   UNL     1      -0.432  10.133  20.819  0.00  0.00    +0.000 C 
ATOM     14  C   UNL     1       0.902   9.414  21.043  0.00  0.00    +0.000 C 
BRANCH  11  15
ATOM     15  C   UNL     1      -1.048  12.990  21.285  0.00  0.00    +0.000 A 
ATOM     16  C   UNL     1      -0.281  13.559  22.288  0.00  0.00    +0.000 A 
ATOM     17  C   UNL     1      -1.160  13.856  23.357  0.00  0.00    +0.000 A 
ATOM     18  C   UNL     1      -2.398  13.410  22.971  0.00  0.00    +0.000 A 
ATOM     19  O   UNL     1      -2.332  12.844  21.738  0.00  0.00    +0.000 OA
ENDBRANCH  11  15
ENDBRANCH   4   7
BRANCH   1  22
ATOM     20  C   UNL     1       3.352   2.577  19.225  0.00  0.00    +0.000 C 
ATOM     21  O   UNL     1       3.233   1.384  18.903  0.00  0.00    +0.000 OA
ATOM     22  N   UNL     1       2.269   3.402  19.041  0.00  0.00    +0.000 N 
ATOM     23  H   UNL     1       1.440   2.894  18.753  0.00  0.00    +0.000 HD
BRANCH  20  24
ATOM     24  C   UNL     1       4.652   3.085  19.851  0.00  0.00    +0.000 C 
BRANCH  24  25
ATOM     25  O   UNL     1       5.561   3.245  18.768  0.00  0.00    +0.000 OA
BRANCH  25  30
ATOM     26  C   UNL     1       7.724   8.276  17.331  0.00  0.00    +0.000 C 
ATOM     27  C   UNL     1       7.116   6.974  17.774  0.00  0.00    +0.000 A 
ATOM     28  C   UNL     1       7.660   6.290  18.875  0.00  0.00    +0.000 A 
ATOM     29  C   UNL     1       7.156   5.045  19.273  0.00  0.00    +0.000 A 
ATOM     30  C   UNL     1       6.109   4.473  18.561  0.00  0.00    +0.000 A 
ATOM     31  C   UNL     1       5.514   5.182  17.517  0.00  0.00    +0.000 A 
ATOM     32  C   UNL     1       6.018   6.418  17.094  0.00  0.00    +0.000 A 
ATOM     33  C   UNL     1       5.398   7.084  15.897  0.00  0.00    +0.000 C 
ENDBRANCH  25  30
ENDBRANCH  24  25
ENDBRANCH  20  24
ENDBRANCH   1  22
TORSDOF 6
ENDMDL
MODEL 8
REMARK VINA RESULT:      -7.6      1.589      2.319
REMARK  Name = 
REMARK  8 active torsions:
REMARK  status: ('A' for Active; 'I' for Inactive)
REMARK    1  A    between atoms: C_1  and  C_2
REMARK    2  A    between atoms: C_5  and  O_6
REMARK    3  A    between atoms: O_6  and  C_7
REMARK    4  A    between atoms: C_7  and  C_8
REMARK    5  A    between atoms: N_10  and  C_11
REMARK    6  A    between atoms: C_14  and  N_15
REMARK    7  A    between atoms: C_19  and  C_21
REMARK    8  A    between atoms: C_31  and  C_32
REMARK                            x       y       z     vdW  Elec       q    Type
REMARK                         _______ _______ _______ _____ _____    ______ ____
ROOT
ATOM      1  C   UNL     1       2.587   4.745  19.571  0.00  0.00    +0.000 A 
ATOM      2  C   UNL     1       2.013   5.275  20.710  0.00  0.00    +0.000 A 
ATOM      3  C   UNL     1       1.600   6.596  20.786  0.00  0.00    +0.000 A 
ATOM      4  C   UNL     1       1.835   7.483  19.746  0.00  0.00    +0.000 A 
ATOM      5  C   UNL     1       2.526   6.979  18.633  0.00  0.00    +0.000 A 
ATOM      6  C   UNL     1       2.900   5.624  18.538  0.00  0.00    +0.000 A 
ENDROOT
BRANCH   4   7
ATOM      7  N   UNL     1       1.396   8.776  19.843  0.00  0.00    +0.000 N 
ATOM      8  C   UNL     1       1.387   9.702  18.707  0.00  0.00    +0.000 C 
ATOM      9  C   UNL     1      -0.005  10.356  18.568  0.00  0.00    +0.000 C 
ATOM     10  N   UNL     1      -0.489  10.875  19.852  0.00  0.00    +0.000 N 
ATOM     11  C   UNL     1      -1.019  12.165  19.929  0.00  0.00    +0.000 C 
ATOM     12  O   UNL     1      -1.191  12.826  18.907  0.00  0.00    +0.000 OA
ATOM     13  C   UNL     1      -0.474   9.887  20.934  0.00  0.00    +0.000 C 
ATOM     14  C   UNL     1       0.941   9.335  21.131  0.00  0.00    +0.000 C 
BRANCH  11  15
ATOM     15  C   UNL     1      -1.381  12.689  21.231  0.00  0.00    +0.000 A 
ATOM     16  C   UNL     1      -2.616  12.764  21.854  0.00  0.00    +0.000 A 
ATOM     17  C   UNL     1      -2.397  13.336  23.130  0.00  0.00    +0.000 A 
ATOM     18  C   UNL     1      -1.058  13.623  23.197  0.00  0.00    +0.000 A 
ATOM     19  O   UNL     1      -0.443  13.277  22.037  0.00  0.00    +0.000 OA
ENDBRANCH  11  15
ENDBRANCH   4   7
BRANCH   1  22
ATOM     20  C   UNL     1       3.335   2.683  18.325  0.00  0.00    +0.000 C 
ATOM     21  O   UNL     1       3.441   1.449  18.421  0.00  0.00    +0.000 OA
ATOM     22  N   UNL     1       2.867   3.374  19.417  0.00  0.00    +0.000 N 
ATOM     23  H   UNL     1       2.762   2.781  20.233  0.00  0.00    +0.000 HD
BRANCH  20  24
ATOM     24  C   UNL     1       3.764   3.400  17.044  0.00  0.00    +0.000 C 
BRANCH  24  25
ATOM     25  O   UNL     1       5.169   3.587  17.163  0.00  0.00    +0.000 OA
BRANCH  25  30
ATOM     26  C   UNL     1       7.888   5.231  12.477  0.00  0.00    +0.000 C 
ATOM     27  C   UNL     1       7.132   4.864  13.724  0.00  0.00    +0.000 A 
ATOM     28  C   UNL     1       7.537   5.388  14.964  0.00  0.00    +0.000 A 
ATOM     29  C   UNL     1       6.893   5.016  16.151  0.00  0.00    +0.000 A 
ATOM     30  C   UNL     1       5.844   4.108  16.102  0.00  0.00    +0.000 A 
ATOM     31  C   UNL     1       5.386   3.645  14.868  0.00  0.00    +0.000 A 
ATOM     32  C   UNL     1       6.032   3.991  13.674  0.00  0.00    +0.000 A 
ATOM     33  C   UNL     1       5.555   3.378  12.387  0.00  0.00    +0.000 C 
ENDBRANCH  25  30
ENDBRANCH  24  25
ENDBRANCH  20  24
ENDBRANCH   1  22
TORSDOF 6
ENDMDL
MODEL 9
REMARK VINA RESULT:      -7.6      2.447      3.229
REMARK  Name = 
REMARK  8 active torsions:
REMARK  status: ('A' for Active; 'I' for Inactive)
REMARK    1  A    between atoms: C_1  and  C_2
REMARK    2  A    between atoms: C_5  and  O_6
REMARK    3  A    between atoms: O_6  and  C_7
REMARK    4  A    between atoms: C_7  and  C_8
REMARK    5  A    between atoms: N_10  and  C_11
REMARK    6  A    between atoms: C_14  and  N_15
REMARK    7  A    between atoms: C_19  and  C_21
REMARK    8  A    between atoms: C_31  and  C_32
REMARK                            x       y       z     vdW  Elec       q    Type
REMARK                         _______ _______ _______ _____ _____    ______ ____
ROOT
ATOM      1  C   UNL     1       1.967   6.867  20.308  0.00  0.00    +0.000 A 
ATOM      2  C   UNL     1       2.260   7.562  19.151  0.00  0.00    +0.000 A 
ATOM      3  C   UNL     1       1.817   8.856  18.931  0.00  0.00    +0.000 A 
ATOM      4  C   UNL     1       0.967   9.486  19.828  0.00  0.00    +0.000 A 
ATOM      5  C   UNL     1       0.568   8.740  20.947  0.00  0.00    +0.000 A 
ATOM      6  C   UNL     1       1.061   7.443  21.193  0.00  0.00    +0.000 A 
ENDROOT
BRANCH   4   7
ATOM      7  N   UNL     1       0.563  10.773  19.591  0.00  0.00    +0.000 N 
ATOM      8  C   UNL     1      -0.848  11.163  19.514  0.00  0.00    +0.000 C 
ATOM      9  C   UNL     1      -1.115  12.370  20.439  0.00  0.00    +0.000 C 
ATOM     10  N   UNL     1      -0.120  13.431  20.243  0.00  0.00    +0.000 N 
ATOM     11  C   UNL     1      -0.534  14.757  20.092  0.00  0.00    +0.000 C 
ATOM     12  O   UNL     1      -1.717  15.058  20.238  0.00  0.00    +0.000 OA
ATOM     13  C   UNL     1       1.266  12.972  20.359  0.00  0.00    +0.000 C 
ATOM     14  C   UNL     1       1.541  11.851  19.352  0.00  0.00    +0.000 C 
BRANCH  11  15
ATOM     15  C   UNL     1       0.464  15.763  19.786  0.00  0.00    +0.000 A 
ATOM     16  C   UNL     1       0.923  16.226  18.564  0.00  0.00    +0.000 A 
ATOM     17  C   UNL     1       1.878  17.233  18.841  0.00  0.00    +0.000 A 
ATOM     18  C   UNL     1       1.986  17.295  20.207  0.00  0.00    +0.000 A 
ATOM     19  O   UNL     1       1.168  16.378  20.786  0.00  0.00    +0.000 OA
ENDBRANCH  11  15
ENDBRANCH   4   7
BRANCH   1  22
ATOM     20  C   UNL     1       2.742   4.514  19.828  0.00  0.00    +0.000 C 
ATOM     21  O   UNL     1       3.211   3.496  20.361  0.00  0.00    +0.000 OA
ATOM     22  N   UNL     1       2.536   5.617  20.621  0.00  0.00    +0.000 N 
ATOM     23  H   UNL     1       2.905   5.495  21.558  0.00  0.00    +0.000 HD
BRANCH  20  24
ATOM     24  C   UNL     1       2.455   4.541  18.326  0.00  0.00    +0.000 C 
BRANCH  24  25
ATOM     25  O   UNL     1       3.671   4.149  17.698  0.00  0.00    +0.000 OA
BRANCH  25  30
ATOM     26  C   UNL     1       7.830   7.988  17.585  0.00  0.00    +0.000 C 
ATOM     27  C   UNL     1       6.753   6.940  17.547  0.00  0.00    +0.000 A 
ATOM     28  C   UNL     1       5.667   7.088  16.667  0.00  0.00    +0.000 A 
ATOM     29  C   UNL     1       4.616   6.162  16.653  0.00  0.00    +0.000 A 
ATOM     30  C   UNL     1       4.643   5.086  17.532  0.00  0.00    +0.000 A 
ATOM     31  C   UNL     1       5.754   4.891  18.353  0.00  0.00    +0.000 A 
ATOM     32  C   UNL     1       6.803   5.818  18.393  0.00  0.00    +0.000 A 
ATOM     33  C   UNL     1       7.923   5.605  19.374  0.00  0.00    +0.000 C 
ENDBRANCH  25  30
ENDBRANCH  24  25
ENDBRANCH  20  24
ENDBRANCH   1  22
TORSDOF 6
ENDMDL
