MODEL 1
REMARK VINA RESULT:      -8.2      0.000      0.000
REMARK  Name = 
REMARK  9 active torsions:
REMARK  status: ('A' for Active; 'I' for Inactive)
REMARK    1  A    between atoms: C_1  and  C_2
REMARK    2  A    between atoms: C_2  and  O_3
REMARK    3  A    between atoms: O_3  and  C_4
REMARK    4  A    between atoms: C_7  and  C_8
REMARK    5  A    between atoms: C_11  and  C_12
REMARK    6  A    between atoms: C_16  and  C_17
REMARK    7  A    between atoms: C_20  and  O_21
REMARK    8  A    between atoms: O_21  and  C_22
REMARK    9  A    between atoms: C_25  and  O_26
REMARK                            x       y       z     vdW  Elec       q    Type
REMARK                         _______ _______ _______ _____ _____    ______ ____
ROOT
ATOM      1  C   UNL     1       2.536   6.025  19.861  0.00  0.00    +0.000 A 
ATOM      2  O   UNL     1       1.775   5.466  20.844  0.00  0.00    +0.000 OA
ATOM      3  N   UNL     1       2.155   4.172  21.071  0.00  0.00    +0.000 NA
ATOM      4  C   UNL     1       3.145   3.918  20.202  0.00  0.00    +0.000 A 
ATOM      5  C   UNL     1       3.458   5.081  19.423  0.00  0.00    +0.000 A 
ENDROOT
BRANCH   1   9
ATOM      6  C   UNL     1       1.159   9.934  18.760  0.00  0.00    +0.000 A 
ATOM      7  C   UNL     1       1.743   9.096  17.815  0.00  0.00    +0.000 A 
ATOM      8  C   UNL     1       2.204   7.830  18.185  0.00  0.00    +0.000 A 
ATOM      9  C   UNL     1       2.130   7.390  19.516  0.00  0.00    +0.000 A 
ATOM     10  C   UNL     1       1.611   8.288  20.468  0.00  0.00    +0.000 A 
ATOM     11  C   UNL     1       1.148   9.553  20.097  0.00  0.00    +0.000 A 
BRANCH  10  12
ATOM     12  O   UNL     1       1.493   8.000  21.803  0.00  0.00    +0.000 OA
ATOM     13  H   UNL     1       2.365   8.086  22.227  0.00  0.00    +0.000 HD
ENDBRANCH  10  12
BRANCH   6  14
ATOM     14  O   UNL     1       0.604  11.077  18.262  0.00  0.00    +0.000 OA
BRANCH  14  16
ATOM     15  C   UNL     1      -1.695  10.306  17.735  0.00  0.00    +0.000 C 
ATOM     16  C   UNL     1      -0.795  11.278  18.497  0.00  0.00    +0.000 C 
ENDBRANCH  14  16
ENDBRANCH   6  14
ENDBRANCH   1   9
BRANCH   5  17
ATOM     17  C   UNL     1       4.448   5.290  18.372  0.00  0.00    +0.000 A 
ATOM     18  C   UNL     1       5.686   5.874  18.665  0.00  0.00    +0.000 A 
ATOM     19  C   UNL     1       6.658   6.051  17.670  0.00  0.00    +0.000 A 
ATOM     20  C   UNL     1       6.420   5.613  16.370  0.00  0.00    +0.000 A 
ATOM     21  C   UNL     1       5.192   5.025  16.069  0.00  0.00    +0.000 A 
ATOM     22  C   UNL     1       4.203   4.893  17.052  0.00  0.00    +0.000 A 
BRANCH  20  23
ATOM     23  O   UNL     1       7.297   5.690  15.324  0.00  0.00    +0.000 OA
ATOM     24  C   UNL     1       7.050   4.826  14.220  0.00  0.00    +0.000 C 
ENDBRANCH  20  23
ENDBRANCH   5  17
BRANCH   4  25
ATOM     25  C   UNL     1       3.760   2.552  20.144  0.00  0.00    +0.000 C 
ATOM     26  F   UNL     1       3.090   1.699  19.321  0.00  0.00    +0.000 F 
ATOM     27  F   UNL     1       5.037   2.593  19.674  0.00  0.00    +0.000 F 
ATOM     28  F   UNL     1       3.806   1.956  21.363  0.00  0.00    +0.000 F 
ENDBRANCH   4  25
TORSDOF 7
ENDMDL
MODEL 2
REMARK VINA RESULT:      -8.1      0.795      1.286
REMARK  Name = 
REMARK  9 active torsions:
REMARK  status: ('A' for Active; 'I' for Inactive)
REMARK    1  A    between atoms: C_1  and  C_2
REMARK    2  A    between atoms: C_2  and  O_3
REMARK    3  A    between atoms: O_3  and  C_4
REMARK    4  A    between atoms: C_7  and  C_8
REMARK    5  A    between atoms: C_11  and  C_12
REMARK    6  A    between atoms: C_16  and  C_17
REMARK    7  A    between atoms: C_20  and  O_21
REMARK    8  A    between atoms: O_21  and  C_22
REMARK    9  A    between atoms: C_25  and  O_26
REMARK                            x       y       z     vdW  Elec       q    Type
REMARK                         _______ _______ _______ _____ _____    ______ ____
ROOT
ATOM      1  C   UNL     1       2.471   6.103  19.870  0.00  0.00    +0.000 A 
ATOM      2  O   UNL     1       1.663   5.554  20.821  0.00  0.00    +0.000 OA
ATOM      3  N   UNL     1       2.004   4.249  21.046  0.00  0.00    +0.000 NA
ATOM      4  C   UNL     1       3.017   3.979  20.209  0.00  0.00    +0.000 A 
ATOM      5  C   UNL     1       3.385   5.142  19.453  0.00  0.00    +0.000 A 
ENDROOT
BRANCH   1   9
ATOM      6  C   UNL     1       1.226  10.057  18.768  0.00  0.00    +0.000 A 
ATOM      7  C   UNL     1       1.800   9.206  17.828  0.00  0.00    +0.000 A 
ATOM      8  C   UNL     1       2.218   7.926  18.199  0.00  0.00    +0.000 A 
ATOM      9  C   UNL     1       2.111   7.482  19.526  0.00  0.00    +0.000 A 
ATOM     10  C   UNL     1       1.605   8.390  20.475  0.00  0.00    +0.000 A 
ATOM     11  C   UNL     1       1.184   9.670  20.104  0.00  0.00    +0.000 A 
BRANCH  10  12
ATOM     12  O   UNL     1       1.458   8.099  21.806  0.00  0.00    +0.000 OA
ATOM     13  H   UNL     1       2.080   8.642  22.323  0.00  0.00    +0.000 HD
ENDBRANCH  10  12
BRANCH   6  14
ATOM     14  O   UNL     1       0.712  11.218  18.268  0.00  0.00    +0.000 OA
BRANCH  14  16
ATOM     15  C   UNL     1       2.527  12.907  18.197  0.00  0.00    +0.000 C 
ATOM     16  C   UNL     1       1.212  12.442  18.819  0.00  0.00    +0.000 C 
ENDBRANCH  14  16
ENDBRANCH   6  14
ENDBRANCH   1   9
BRANCH   5  17
ATOM     17  C   UNL     1       4.415   5.337  18.440  0.00  0.00    +0.000 A 
ATOM     18  C   UNL     1       5.684   5.811  18.794  0.00  0.00    +0.000 A 
ATOM     19  C   UNL     1       6.692   5.972  17.834  0.00  0.00    +0.000 A 
ATOM     20  C   UNL     1       6.459   5.628  16.506  0.00  0.00    +0.000 A 
ATOM     21  C   UNL     1       5.201   5.149  16.143  0.00  0.00    +0.000 A 
ATOM     22  C   UNL     1       4.179   5.034  17.093  0.00  0.00    +0.000 A 
BRANCH  20  23
ATOM     23  O   UNL     1       7.367   5.699  15.487  0.00  0.00    +0.000 OA
ATOM     24  C   UNL     1       7.076   4.941  14.318  0.00  0.00    +0.000 C 
ENDBRANCH  20  23
ENDBRANCH   5  17
BRANCH   4  25
ATOM     25  C   UNL     1       3.601   2.600  20.157  0.00  0.00    +0.000 C 
ATOM     26  F   UNL     1       4.866   2.574  19.655  0.00  0.00    +0.000 F 
ATOM     27  F   UNL     1       3.683   2.039  21.394  0.00  0.00    +0.000 F 
ATOM     28  F   UNL     1       2.864   1.757  19.388  0.00  0.00    +0.000 F 
ENDBRANCH   4  25
TORSDOF 7
ENDMDL
MODEL 3
REMARK VINA RESULT:      -8.1      2.357      5.854
REMARK  Name = 
REMARK  9 active torsions:
REMARK  status: ('A' for Active; 'I' for Inactive)
REMARK    1  A    between atoms: C_1  and  C_2
REMARK    2  A    between atoms: C_2  and  O_3
REMARK    3  A    between atoms: O_3  and  C_4
REMARK    4  A    between atoms: C_7  and  C_8
REMARK    5  A    between atoms: C_11  and  C_12
REMARK    6  A    between atoms: C_16  and  C_17
REMARK    7  A    between atoms: C_20  and  O_21
REMARK    8  A    between atoms: O_21  and  C_22
REMARK    9  A    between atoms: C_25  and  O_26
REMARK                            x       y       z     vdW  Elec       q    Type
REMARK                         _______ _______ _______ _____ _____    ______ ____
ROOT
ATOM      1  C   UNL     1       4.492   4.881  18.930  0.00  0.00    +0.000 A 
ATOM      2  O   UNL     1       4.804   3.555  18.978  0.00  0.00    +0.000 OA
ATOM      3  N   UNL     1       3.765   2.834  19.497  0.00  0.00    +0.000 NA
ATOM      4  C   UNL     1       2.808   3.726  19.798  0.00  0.00    +0.000 A 
ATOM      5  C   UNL     1       3.204   5.053  19.423  0.00  0.00    +0.000 A 
ENDROOT
BRANCH   1   9
ATOM      6  C   UNL     1       7.608   7.521  17.620  0.00  0.00    +0.000 A 
ATOM      7  C   UNL     1       6.414   7.426  16.911  0.00  0.00    +0.000 A 
ATOM      8  C   UNL     1       5.411   6.552  17.335  0.00  0.00    +0.000 A 
ATOM      9  C   UNL     1       5.594   5.721  18.452  0.00  0.00    +0.000 A 
ATOM     10  C   UNL     1       6.841   5.775  19.102  0.00  0.00    +0.000 A 
ATOM     11  C   UNL     1       7.844   6.652  18.679  0.00  0.00    +0.000 A 
BRANCH  10  12
ATOM     12  O   UNL     1       7.165   5.013  20.194  0.00  0.00    +0.000 OA
ATOM     13  H   UNL     1       7.863   5.462  20.702  0.00  0.00    +0.000 HD
ENDBRANCH  10  12
BRANCH   6  14
ATOM     14  O   UNL     1       8.451   8.514  17.213  0.00  0.00    +0.000 OA
BRANCH  14  16
ATOM     15  C   UNL     1       9.231  10.024  19.020  0.00  0.00    +0.000 C 
ATOM     16  C   UNL     1       8.295   9.796  17.834  0.00  0.00    +0.000 C 
ENDBRANCH  14  16
ENDBRANCH   6  14
ENDBRANCH   1   9
BRANCH   5  17
ATOM     17  C   UNL     1       2.507   6.328  19.544  0.00  0.00    +0.000 A 
ATOM     18  C   UNL     1       1.968   6.733  20.770  0.00  0.00    +0.000 A 
ATOM     19  C   UNL     1       1.324   7.971  20.907  0.00  0.00    +0.000 A 
ATOM     20  C   UNL     1       1.240   8.841  19.825  0.00  0.00    +0.000 A 
ATOM     21  C   UNL     1       1.778   8.451  18.599  0.00  0.00    +0.000 A 
ATOM     22  C   UNL     1       2.378   7.194  18.451  0.00  0.00    +0.000 A 
BRANCH  20  23
ATOM     23  O   UNL     1       0.677  10.087  19.838  0.00  0.00    +0.000 OA
ATOM     24  C   UNL     1       1.144  11.010  18.860  0.00  0.00    +0.000 C 
ENDBRANCH  20  23
ENDBRANCH   5  17
BRANCH   4  25
ATOM     25  C   UNL     1       1.535   3.271  20.445  0.00  0.00    +0.000 C 
ATOM     26  F   UNL     1       1.488   3.544  21.778  0.00  0.00    +0.000 F 
ATOM     27  F   UNL     1       0.447   3.880  19.903  0.00  0.00    +0.000 F 
ATOM     28  F   UNL     1       1.344   1.932  20.319  0.00  0.00    +0.000 F 
ENDBRANCH   4  25
TORSDOF 7
ENDMDL
MODEL 4
REMARK VINA RESULT:      -8.1      2.019      6.297
REMARK  Name = 
REMARK  9 active torsions:
REMARK  status: ('A' for Active; 'I' for Inactive)
REMARK    1  A    between atoms: C_1  and  C_2
REMARK    2  A    between atoms: C_2  and  O_3
REMARK    3  A    between atoms: O_3  and  C_4
REMARK    4  A    between atoms: C_7  and  C_8
REMARK    5  A    between atoms: C_11  and  C_12
REMARK    6  A    between atoms: C_16  and  C_17
REMARK    7  A    between atoms: C_20  and  O_21
REMARK    8  A    between atoms: O_21  and  C_22
REMARK    9  A    between atoms: C_25  and  O_26
REMARK                            x       y       z     vdW  Elec       q    Type
REMARK                         _______ _______ _______ _____ _____    ______ ____
ROOT
ATOM      1  C   UNL     1       4.143   3.750  18.369  0.00  0.00    +0.000 A 
ATOM      2  O   UNL     1       4.195   2.436  18.729  0.00  0.00    +0.000 OA
ATOM      3  N   UNL     1       3.266   2.165  19.695  0.00  0.00    +0.000 NA
ATOM      4  C   UNL     1       2.648   3.327  19.953  0.00  0.00    +0.000 A 
ATOM      5  C   UNL     1       3.144   4.374  19.107  0.00  0.00    +0.000 A 
ENDROOT
BRANCH   1   9
ATOM      6  C   UNL     1       7.016   5.039  15.457  0.00  0.00    +0.000 A 
ATOM      7  C   UNL     1       5.827   4.431  15.061  0.00  0.00    +0.000 A 
ATOM      8  C   UNL     1       4.905   3.999  16.016  0.00  0.00    +0.000 A 
ATOM      9  C   UNL     1       5.166   4.126  17.389  0.00  0.00    +0.000 A 
ATOM     10  C   UNL     1       6.410   4.667  17.765  0.00  0.00    +0.000 A 
ATOM     11  C   UNL     1       7.332   5.101  16.809  0.00  0.00    +0.000 A 
BRANCH  10  12
ATOM     12  O   UNL     1       6.806   4.836  19.066  0.00  0.00    +0.000 OA
ATOM     13  H   UNL     1       7.778   4.878  19.102  0.00  0.00    +0.000 HD
ENDBRANCH  10  12
BRANCH   6  14
ATOM     14  O   UNL     1       7.769   5.561  14.446  0.00  0.00    +0.000 OA
BRANCH  14  16
ATOM     15  C   UNL     1       8.057   5.939  12.011  0.00  0.00    +0.000 C 
ATOM     16  C   UNL     1       7.552   5.033  13.132  0.00  0.00    +0.000 C 
ENDBRANCH  14  16
ENDBRANCH   6  14
ENDBRANCH   1   9
BRANCH   5  17
ATOM     17  C   UNL     1       2.781   5.783  19.018  0.00  0.00    +0.000 A 
ATOM     18  C   UNL     1       2.855   6.463  17.797  0.00  0.00    +0.000 A 
ATOM     19  C   UNL     1       2.478   7.810  17.692  0.00  0.00    +0.000 A 
ATOM     20  C   UNL     1       1.987   8.490  18.802  0.00  0.00    +0.000 A 
ATOM     21  C   UNL     1       1.904   7.821  20.022  0.00  0.00    +0.000 A 
ATOM     22  C   UNL     1       2.326   6.491  20.138  0.00  0.00    +0.000 A 
BRANCH  20  23
ATOM     23  O   UNL     1       1.551   9.785  18.822  0.00  0.00    +0.000 OA
ATOM     24  C   UNL     1       0.525  10.099  19.757  0.00  0.00    +0.000 C 
ENDBRANCH  20  23
ENDBRANCH   5  17
BRANCH   4  25
ATOM     25  C   UNL     1       1.595   3.396  21.018  0.00  0.00    +0.000 C 
ATOM     26  F   UNL     1       1.220   2.171  21.478  0.00  0.00    +0.000 F 
ATOM     27  F   UNL     1       2.024   4.086  22.109  0.00  0.00    +0.000 F 
ATOM     28  F   UNL     1       0.463   4.008  20.583  0.00  0.00    +0.000 F 
ENDBRANCH   4  25
TORSDOF 7
ENDMDL
MODEL 5
REMARK VINA RESULT:      -8.1      2.003      6.220
REMARK  Name = 
REMARK  9 active torsions:
REMARK  status: ('A' for Active; 'I' for Inactive)
REMARK    1  A    between atoms: C_1  and  C_2
REMARK    2  A    between atoms: C_2  and  O_3
REMARK    3  A    between atoms: O_3  and  C_4
REMARK    4  A    between atoms: C_7  and  C_8
REMARK    5  A    between atoms: C_11  and  C_12
REMARK    6  A    between atoms: C_16  and  C_17
REMARK    7  A    between atoms: C_20  and  O_21
REMARK    8  A    between atoms: O_21  and  C_22
REMARK    9  A    between atoms: C_25  and  O_26
REMARK                            x       y       z     vdW  Elec       q    Type
REMARK                         _______ _______ _______ _____ _____    ______ ____
ROOT
ATOM      1  C   UNL     1       4.227   3.701  18.544  0.00  0.00    +0.000 A 
ATOM      2  O   UNL     1       4.366   2.409  18.957  0.00  0.00    +0.000 OA
ATOM      3  N   UNL     1       3.464   2.119  19.943  0.00  0.00    +0.000 NA
ATOM      4  C   UNL     1       2.775   3.249  20.161  0.00  0.00    +0.000 A 
ATOM      5  C   UNL     1       3.196   4.290  19.268  0.00  0.00    +0.000 A 
ENDROOT
BRANCH   1   9
ATOM      6  C   UNL     1       6.990   5.054  15.556  0.00  0.00    +0.000 A 
ATOM      7  C   UNL     1       5.817   4.398  15.193  0.00  0.00    +0.000 A 
ATOM      8  C   UNL     1       4.930   3.946  16.173  0.00  0.00    +0.000 A 
ATOM      9  C   UNL     1       5.215   4.100  17.539  0.00  0.00    +0.000 A 
ATOM     10  C   UNL     1       6.446   4.691  17.882  0.00  0.00    +0.000 A 
ATOM     11  C   UNL     1       7.332   5.145  16.901  0.00  0.00    +0.000 A 
BRANCH  10  12
ATOM     12  O   UNL     1       6.862   4.892  19.172  0.00  0.00    +0.000 OA
ATOM     13  H   UNL     1       6.132   4.679  19.780  0.00  0.00    +0.000 HD
ENDBRANCH  10  12
BRANCH   6  14
ATOM     14  O   UNL     1       7.703   5.590  14.523  0.00  0.00    +0.000 OA
BRANCH  14  16
ATOM     15  C   UNL     1       8.018   5.841  12.076  0.00  0.00    +0.000 C 
ATOM     16  C   UNL     1       7.559   4.967  13.241  0.00  0.00    +0.000 C 
ENDBRANCH  14  16
ENDBRANCH   6  14
ENDBRANCH   1   9
BRANCH   5  17
ATOM     17  C   UNL     1       2.744   5.669  19.126  0.00  0.00    +0.000 A 
ATOM     18  C   UNL     1       2.320   6.399  20.243  0.00  0.00    +0.000 A 
ATOM     19  C   UNL     1       1.913   7.735  20.124  0.00  0.00    +0.000 A 
ATOM     20  C   UNL     1       1.957   8.376  18.889  0.00  0.00    +0.000 A 
ATOM     21  C   UNL     1       2.383   7.660  17.772  0.00  0.00    +0.000 A 
ATOM     22  C   UNL     1       2.743   6.311  17.882  0.00  0.00    +0.000 A 
BRANCH  20  23
ATOM     23  O   UNL     1       1.627   9.680  18.649  0.00  0.00    +0.000 OA
ATOM     24  C   UNL     1       0.588  10.234  19.450  0.00  0.00    +0.000 C 
ENDBRANCH  20  23
ENDBRANCH   5  17
BRANCH   4  25
ATOM     25  C   UNL     1       1.729   3.295  21.234  0.00  0.00    +0.000 C 
ATOM     26  F   UNL     1       0.568   3.875  20.822  0.00  0.00    +0.000 F 
ATOM     27  F   UNL     1       1.390   2.049  21.662  0.00  0.00    +0.000 F 
ATOM     28  F   UNL     1       2.141   3.991  22.325  0.00  0.00    +0.000 F 
ENDBRANCH   4  25
TORSDOF 7
ENDMDL
MODEL 6
REMARK VINA RESULT:      -8.0      0.177      1.198
REMARK  Name = 
REMARK  9 active torsions:
REMARK  status: ('A' for Active; 'I' for Inactive)
REMARK    1  A    between atoms: C_1  and  C_2
REMARK    2  A    between atoms: C_2  and  O_3
REMARK    3  A    between atoms: O_3  and  C_4
REMARK    4  A    between atoms: C_7  and  C_8
REMARK    5  A    between atoms: C_11  and  C_12
REMARK    6  A    between atoms: C_16  and  C_17
REMARK    7  A    between atoms: C_20  and  O_21
REMARK    8  A    between atoms: O_21  and  C_22
REMARK    9  A    between atoms: C_25  and  O_26
REMARK                            x       y       z     vdW  Elec       q    Type
REMARK                         _______ _______ _______ _____ _____    ______ ____
ROOT
ATOM      1  C   UNL     1       2.493   5.999  19.920  0.00  0.00    +0.000 A 
ATOM      2  O   UNL     1       1.712   5.496  20.918  0.00  0.00    +0.000 OA
ATOM      3  N   UNL     1       2.046   4.196  21.182  0.00  0.00    +0.000 NA
ATOM      4  C   UNL     1       3.026   3.882  20.322  0.00  0.00    +0.000 A 
ATOM      5  C   UNL     1       3.382   5.011  19.511  0.00  0.00    +0.000 A 
ENDROOT
BRANCH   1   9
ATOM      6  C   UNL     1       1.257   9.921  18.704  0.00  0.00    +0.000 A 
ATOM      7  C   UNL     1       1.815   9.036  17.785  0.00  0.00    +0.000 A 
ATOM      8  C   UNL     1       2.230   7.767  18.193  0.00  0.00    +0.000 A 
ATOM      9  C   UNL     1       2.137   7.367  19.535  0.00  0.00    +0.000 A 
ATOM     10  C   UNL     1       1.647   8.309  20.460  0.00  0.00    +0.000 A 
ATOM     11  C   UNL     1       1.230   9.579  20.051  0.00  0.00    +0.000 A 
BRANCH  10  12
ATOM     12  O   UNL     1       1.515   8.063  21.802  0.00  0.00    +0.000 OA
ATOM     13  H   UNL     1       2.221   7.457  22.087  0.00  0.00    +0.000 HD
ENDBRANCH  10  12
BRANCH   6  14
ATOM     14  O   UNL     1       0.744  11.068  18.171  0.00  0.00    +0.000 OA
BRANCH  14  16
ATOM     15  C   UNL     1      -1.611  10.382  17.804  0.00  0.00    +0.000 C 
ATOM     16  C   UNL     1      -0.631  11.358  18.451  0.00  0.00    +0.000 C 
ENDBRANCH  14  16
ENDBRANCH   6  14
ENDBRANCH   1   9
BRANCH   5  17
ATOM     17  C   UNL     1       4.379   5.154  18.457  0.00  0.00    +0.000 A 
ATOM     18  C   UNL     1       4.124   4.682  17.164  0.00  0.00    +0.000 A 
ATOM     19  C   UNL     1       5.062   4.843  16.135  0.00  0.00    +0.000 A 
ATOM     20  C   UNL     1       6.260   5.511  16.374  0.00  0.00    +0.000 A 
ATOM     21  C   UNL     1       6.522   5.990  17.657  0.00  0.00    +0.000 A 
ATOM     22  C   UNL     1       5.606   5.786  18.696  0.00  0.00    +0.000 A 
BRANCH  20  23
ATOM     23  O   UNL     1       7.235   5.767  15.451  0.00  0.00    +0.000 OA
ATOM     24  C   UNL     1       7.172   5.029  14.235  0.00  0.00    +0.000 C 
ENDBRANCH  20  23
ENDBRANCH   5  17
BRANCH   4  25
ATOM     25  C   UNL     1       3.593   2.495  20.305  0.00  0.00    +0.000 C 
ATOM     26  F   UNL     1       4.913   2.462  19.972  0.00  0.00    +0.000 F 
ATOM     27  F   UNL     1       3.504   1.897  21.524  0.00  0.00    +0.000 F 
ATOM     28  F   UNL     1       2.952   1.688  19.421  0.00  0.00    +0.000 F 
ENDBRANCH   4  25
TORSDOF 7
ENDMDL
MODEL 7
REMARK VINA RESULT:      -7.9      0.793      1.586
REMARK  Name = 
REMARK  9 active torsions:
REMARK  status: ('A' for Active; 'I' for Inactive)
REMARK    1  A    between atoms: C_1  and  C_2
REMARK    2  A    between atoms: C_2  and  O_3
REMARK    3  A    between atoms: O_3  and  C_4
REMARK    4  A    between atoms: C_7  and  C_8
REMARK    5  A    between atoms: C_11  and  C_12
REMARK    6  A    between atoms: C_16  and  C_17
REMARK    7  A    between atoms: C_20  and  O_21
REMARK    8  A    between atoms: O_21  and  C_22
REMARK    9  A    between atoms: C_25  and  O_26
REMARK                            x       y       z     vdW  Elec       q    Type
REMARK                         _______ _______ _______ _____ _____    ______ ____
ROOT
ATOM      1  C   UNL     1       2.480   6.043  19.914  0.00  0.00    +0.000 A 
ATOM      2  O   UNL     1       1.693   5.549  20.912  0.00  0.00    +0.000 OA
ATOM      3  N   UNL     1       2.013   4.247  21.178  0.00  0.00    +0.000 NA
ATOM      4  C   UNL     1       2.991   3.922  20.319  0.00  0.00    +0.000 A 
ATOM      5  C   UNL     1       3.358   5.045  19.506  0.00  0.00    +0.000 A 
ENDROOT
BRANCH   1   9
ATOM      6  C   UNL     1       1.288   9.976  18.687  0.00  0.00    +0.000 A 
ATOM      7  C   UNL     1       1.864   9.093  17.778  0.00  0.00    +0.000 A 
ATOM      8  C   UNL     1       2.265   7.820  18.189  0.00  0.00    +0.000 A 
ATOM      9  C   UNL     1       2.138   7.415  19.527  0.00  0.00    +0.000 A 
ATOM     10  C   UNL     1       1.630   8.354  20.444  0.00  0.00    +0.000 A 
ATOM     11  C   UNL     1       1.227   9.627  20.032  0.00  0.00    +0.000 A 
BRANCH  10  12
ATOM     12  O   UNL     1       1.465   8.102  21.781  0.00  0.00    +0.000 OA
ATOM     13  H   UNL     1       2.088   7.406  22.055  0.00  0.00    +0.000 HD
ENDBRANCH  10  12
BRANCH   6  14
ATOM     14  O   UNL     1       0.792  11.127  18.149  0.00  0.00    +0.000 OA
BRANCH  14  16
ATOM     15  C   UNL     1       2.560  12.865  18.247  0.00  0.00    +0.000 C 
ATOM     16  C   UNL     1       1.209  12.359  18.749  0.00  0.00    +0.000 C 
ENDBRANCH  14  16
ENDBRANCH   6  14
ENDBRANCH   1   9
BRANCH   5  17
ATOM     17  C   UNL     1       4.358   5.177  18.453  0.00  0.00    +0.000 A 
ATOM     18  C   UNL     1       4.089   4.730  17.154  0.00  0.00    +0.000 A 
ATOM     19  C   UNL     1       5.029   4.881  16.125  0.00  0.00    +0.000 A 
ATOM     20  C   UNL     1       6.244   5.513  16.372  0.00  0.00    +0.000 A 
ATOM     21  C   UNL     1       6.521   5.967  17.660  0.00  0.00    +0.000 A 
ATOM     22  C   UNL     1       5.601   5.773  18.699  0.00  0.00    +0.000 A 
BRANCH  20  23
ATOM     23  O   UNL     1       7.224   5.757  15.450  0.00  0.00    +0.000 OA
ATOM     24  C   UNL     1       7.167   5.004  14.243  0.00  0.00    +0.000 C 
ENDBRANCH  20  23
ENDBRANCH   5  17
BRANCH   4  25
ATOM     25  C   UNL     1       3.544   2.528  20.304  0.00  0.00    +0.000 C 
ATOM     26  F   UNL     1       3.492   1.921  21.521  0.00  0.00    +0.000 F 
ATOM     27  F   UNL     1       2.851   1.719  19.457  0.00  0.00    +0.000 F 
ATOM     28  F   UNL     1       4.843   2.494  19.910  0.00  0.00    +0.000 F 
ENDBRANCH   4  25
TORSDOF 7
ENDMDL
MODEL 8
REMARK VINA RESULT:      -7.8      2.409      5.974
REMARK  Name = 
REMARK  9 active torsions:
REMARK  status: ('A' for Active; 'I' for Inactive)
REMARK    1  A    between atoms: C_1  and  C_2
REMARK    2  A    between atoms: C_2  and  O_3
REMARK    3  A    between atoms: O_3  and  C_4
REMARK    4  A    between atoms: C_7  and  C_8
REMARK    5  A    between atoms: C_11  and  C_12
REMARK    6  A    between atoms: C_16  and  C_17
REMARK    7  A    between atoms: C_20  and  O_21
REMARK    8  A    between atoms: O_21  and  C_22
REMARK    9  A    between atoms: C_25  and  O_26
REMARK                            x       y       z     vdW  Elec       q    Type
REMARK                         _______ _______ _______ _____ _____    ______ ____
ROOT
ATOM      1  C   UNL     1       4.166   4.923  18.668  0.00  0.00    +0.000 A 
ATOM      2  O   UNL     1       4.350   3.576  18.566  0.00  0.00    +0.000 OA
ATOM      3  N   UNL     1       3.253   2.903  19.028  0.00  0.00    +0.000 NA
ATOM      4  C   UNL     1       2.389   3.842  19.442  0.00  0.00    +0.000 A 
ATOM      5  C   UNL     1       2.905   5.159  19.203  0.00  0.00    +0.000 A 
ENDROOT
BRANCH   1   9
ATOM      6  C   UNL     1       7.494   7.391  17.564  0.00  0.00    +0.000 A 
ATOM      7  C   UNL     1       6.323   7.403  16.812  0.00  0.00    +0.000 A 
ATOM      8  C   UNL     1       5.249   6.583  17.169  0.00  0.00    +0.000 A 
ATOM      9  C   UNL     1       5.337   5.703  18.259  0.00  0.00    +0.000 A 
ATOM     10  C   UNL     1       6.561   5.649  18.952  0.00  0.00    +0.000 A 
ATOM     11  C   UNL     1       7.634   6.470  18.596  0.00  0.00    +0.000 A 
BRANCH  10  12
ATOM     12  O   UNL     1       6.794   4.827  20.024  0.00  0.00    +0.000 OA
ATOM     13  H   UNL     1       6.521   3.921  19.798  0.00  0.00    +0.000 HD
ENDBRANCH  10  12
BRANCH   6  14
ATOM     14  O   UNL     1       8.415   8.339  17.223  0.00  0.00    +0.000 OA
BRANCH  14  16
ATOM     15  C   UNL     1       9.151   9.912  18.995  0.00  0.00    +0.000 C 
ATOM     16  C   UNL     1       8.248   9.643  17.792  0.00  0.00    +0.000 C 
ENDBRANCH  14  16
ENDBRANCH   6  14
ENDBRANCH   1   9
BRANCH   5  17
ATOM     17  C   UNL     1       2.334   6.473  19.475  0.00  0.00    +0.000 A 
ATOM     18  C   UNL     1       2.173   7.408  18.446  0.00  0.00    +0.000 A 
ATOM     19  C   UNL     1       1.596   8.663  18.689  0.00  0.00    +0.000 A 
ATOM     20  C   UNL     1       1.138   8.990  19.962  0.00  0.00    +0.000 A 
ATOM     21  C   UNL     1       1.288   8.064  20.993  0.00  0.00    +0.000 A 
ATOM     22  C   UNL     1       1.908   6.831  20.761  0.00  0.00    +0.000 A 
BRANCH  20  23
ATOM     23  O   UNL     1       0.524  10.158  20.318  0.00  0.00    +0.000 OA
ATOM     24  C   UNL     1       0.614  11.235  19.392  0.00  0.00    +0.000 C 
ENDBRANCH  20  23
ENDBRANCH   5  17
BRANCH   4  25
ATOM     25  C   UNL     1       1.085   3.440  20.065  0.00  0.00    +0.000 C 
ATOM     26  F   UNL     1       0.374   2.569  19.298  0.00  0.00    +0.000 F 
ATOM     27  F   UNL     1       1.267   2.818  21.261  0.00  0.00    +0.000 F 
ATOM     28  F   UNL     1       0.274   4.505  20.292  0.00  0.00    +0.000 F 
ENDBRANCH   4  25
TORSDOF 7
ENDMDL
MODEL 9
REMARK VINA RESULT:      -7.8      2.675      6.026
REMARK  Name = 
REMARK  9 active torsions:
REMARK  status: ('A' for Active; 'I' for Inactive)
REMARK    1  A    between atoms: C_1  and  C_2
REMARK    2  A    between atoms: C_2  and  O_3
REMARK    3  A    between atoms: O_3  and  C_4
REMARK    4  A    between atoms: C_7  and  C_8
REMARK    5  A    between atoms: C_11  and  C_12
REMARK    6  A    between atoms: C_16  and  C_17
REMARK    7  A    between atoms: C_20  and  O_21
REMARK    8  A    between atoms: O_21  and  C_22
REMARK    9  A    between atoms: C_25  and  O_26
REMARK                            x       y       z     vdW  Elec       q    Type
REMARK                         _______ _______ _______ _____ _____    ______ ____
ROOT
ATOM      1  C   UNL     1       4.675   5.132  18.019  0.00  0.00    +0.000 A 
ATOM      2  O   UNL     1       4.924   3.830  17.701  0.00  0.00    +0.000 OA
ATOM      3  N   UNL     1       3.773   3.093  17.753  0.00  0.00    +0.000 NA
ATOM      4  C   UNL     1       2.806   3.942  18.131  0.00  0.00    +0.000 A 
ATOM      5  C   UNL     1       3.318   5.274  18.282  0.00  0.00    +0.000 A 
ENDROOT
BRANCH   1   9
ATOM      6  C   UNL     1       8.082   7.729  18.226  0.00  0.00    +0.000 A 
ATOM      7  C   UNL     1       7.122   7.896  17.233  0.00  0.00    +0.000 A 
ATOM      8  C   UNL     1       6.024   7.036  17.162  0.00  0.00    +0.000 A 
ATOM      9  C   UNL     1       5.882   5.963  18.056  0.00  0.00    +0.000 A 
ATOM     10  C   UNL     1       6.908   5.764  18.999  0.00  0.00    +0.000 A 
ATOM     11  C   UNL     1       8.006   6.626  19.071  0.00  0.00    +0.000 A 
BRANCH  10  12
ATOM     12  O   UNL     1       6.910   4.751  19.921  0.00  0.00    +0.000 OA
ATOM     13  H   UNL     1       7.561   4.077  19.656  0.00  0.00    +0.000 HD
ENDBRANCH  10  12
BRANCH   6  14
ATOM     14  O   UNL     1       9.024   8.714  18.300  0.00  0.00    +0.000 OA
BRANCH  14  16
ATOM     15  C   UNL     1       9.674  11.107  18.267  0.00  0.00    +0.000 C 
ATOM     16  C   UNL     1       8.557  10.067  18.233  0.00  0.00    +0.000 C 
ENDBRANCH  14  16
ENDBRANCH   6  14
ENDBRANCH   1   9
BRANCH   5  17
ATOM     17  C   UNL     1       2.655   6.514  18.666  0.00  0.00    +0.000 A 
ATOM     18  C   UNL     1       2.257   6.730  19.990  0.00  0.00    +0.000 A 
ATOM     19  C   UNL     1       1.648   7.932  20.377  0.00  0.00    +0.000 A 
ATOM     20  C   UNL     1       1.459   8.954  19.452  0.00  0.00    +0.000 A 
ATOM     21  C   UNL     1       1.857   8.752  18.131  0.00  0.00    +0.000 A 
ATOM     22  C   UNL     1       2.420   7.533  17.734  0.00  0.00    +0.000 A 
BRANCH  20  23
ATOM     23  O   UNL     1       0.917  10.182  19.711  0.00  0.00    +0.000 OA
ATOM     24  C   UNL     1       1.275  11.238  18.826  0.00  0.00    +0.000 C 
ENDBRANCH  20  23
ENDBRANCH   5  17
BRANCH   4  25
ATOM     25  C   UNL     1       1.408   3.441  18.340  0.00  0.00    +0.000 C 
ATOM     26  F   UNL     1       1.294   2.094  18.178  0.00  0.00    +0.000 F 
ATOM     27  F   UNL     1       0.962   3.701  19.599  0.00  0.00    +0.000 F 
ATOM     28  F   UNL     1       0.523   4.010  17.481  0.00  0.00    +0.000 F 
ENDBRANCH   4  25
TORSDOF 7
ENDMDL
