MODEL 1
REMARK VINA RESULT:      -6.9      0.000      0.000
REMARK  Name = 
REMARK  13 active torsions:
REMARK  status: ('A' for Active; 'I' for Inactive)
REMARK    1  A    between atoms: C_1  and  O_2
REMARK    2  A    between atoms: O_2  and  C_3
REMARK    3  A    between atoms: C_3  and  C_5
REMARK    4  A    between atoms: C_6  and  C_7
REMARK    5  A    between atoms: C_9  and  O_10
REMARK    6  A    between atoms: O_10  and  C_11
REMARK    7  A    between atoms: C_15  and  C_16
REMARK    8  A    between atoms: C_16  and  O_18
REMARK    9  A    between atoms: O_18  and  C_19
REMARK   10  A    between atoms: C_20  and  C_21
REMARK   11  A    between atoms: C_24  and  O_25
REMARK   12  A    between atoms: C_26  and  O_27
REMARK   13  A    between atoms: O_27  and  C_28
REMARK                            x       y       z     vdW  Elec       q    Type
REMARK                         _______ _______ _______ _____ _____    ______ ____
ROOT
ATOM      1  C   UNL     1      -3.148  10.551  16.393  0.00  0.00    +0.000 A 
ATOM      2  C   UNL     1      -1.843  10.900  16.799  0.00  0.00    +0.000 A 
ATOM      3  C   UNL     1      -1.618  11.598  17.994  0.00  0.00    +0.000 A 
ATOM      4  C   UNL     1      -2.729  11.949  18.756  0.00  0.00    +0.000 A 
ATOM      5  C   UNL     1      -4.010  11.575  18.400  0.00  0.00    +0.000 A 
ATOM      6  C   UNL     1      -4.228  10.859  17.232  0.00  0.00    +0.000 A 
ATOM      7  C   UNL     1      -4.992  12.018  19.439  0.00  0.00    +0.000 C 
ATOM      8  C   UNL     1      -4.083  12.962  20.258  0.00  0.00    +0.000 C 
ATOM      9  O   UNL     1      -2.687  12.678  19.917  0.00  0.00    +0.000 OA
ENDROOT
BRANCH   8  10
ATOM     10  C   UNL     1      -4.239  12.813  21.769  0.00  0.00    +0.000 A 
ATOM     11  C   UNL     1      -3.151  12.431  22.565  0.00  0.00    +0.000 A 
ATOM     12  C   UNL     1      -3.284  12.297  23.947  0.00  0.00    +0.000 A 
ATOM     13  C   UNL     1      -4.512  12.540  24.566  0.00  0.00    +0.000 A 
ATOM     14  C   UNL     1      -5.618  12.932  23.805  0.00  0.00    +0.000 A 
ATOM     15  C   UNL     1      -5.468  13.061  22.409  0.00  0.00    +0.000 A 
BRANCH  13  16
ATOM     16  O   UNL     1      -4.588  12.385  25.917  0.00  0.00    +0.000 OA
ATOM     17  H   UNL     1      -4.432  11.452  26.139  0.00  0.00    +0.000 HD
ENDBRANCH  13  16
BRANCH  14  18
ATOM     18  O   UNL     1      -6.881  13.230  24.250  0.00  0.00    +0.000 OA
ATOM     19  C   UNL     1      -7.509  14.401  23.744  0.00  0.00    +0.000 C 
ENDBRANCH  14  18
ENDBRANCH   8  10
BRANCH   1  21
ATOM     20  C   UNL     1      -3.765  10.436  13.998  0.00  0.00    +0.000 C 
ATOM     21  C   UNL     1      -3.351   9.833  15.123  0.00  0.00    +0.000 C 
BRANCH  20  22
ATOM     22  C   UNL     1      -3.963   9.656  12.760  0.00  0.00    +0.000 C 
ATOM     23  O   UNL     1      -3.086   9.376  11.958  0.00  0.00    +0.000 OA
BRANCH  22  25
ATOM     24  C   UNL     1      -5.852   9.499  11.401  0.00  0.00    +0.000 C 
ATOM     25  O   UNL     1      -5.271   9.301  12.692  0.00  0.00    +0.000 OA
ENDBRANCH  22  25
ENDBRANCH  20  22
ENDBRANCH   1  21
BRANCH   3  26
ATOM     26  O   UNL     1      -0.395  11.972  18.478  0.00  0.00    +0.000 OA
ATOM     27  C   UNL     1       0.514  10.928  18.804  0.00  0.00    +0.000 C 
ENDBRANCH   3  26
BRANCH   7  28
ATOM     28  C   UNL     1      -6.234  12.669  18.851  0.00  0.00    +0.000 C 
ATOM     29  O   UNL     1      -6.237  13.364  17.841  0.00  0.00    +0.000 OA
BRANCH  28  30
ATOM     30  O   UNL     1      -7.374  12.297  19.494  0.00  0.00    +0.000 OA
ATOM     31  C   UNL     1      -7.383  10.918  19.882  0.00  0.00    +0.000 C 
ENDBRANCH  28  30
ENDBRANCH   7  28
TORSDOF 9
ENDMDL
MODEL 2
REMARK VINA RESULT:      -6.8      0.714      1.095
REMARK  Name = 
REMARK  13 active torsions:
REMARK  status: ('A' for Active; 'I' for Inactive)
REMARK    1  A    between atoms: C_1  and  O_2
REMARK    2  A    between atoms: O_2  and  C_3
REMARK    3  A    between atoms: C_3  and  C_5
REMARK    4  A    between atoms: C_6  and  C_7
REMARK    5  A    between atoms: C_9  and  O_10
REMARK    6  A    between atoms: O_10  and  C_11
REMARK    7  A    between atoms: C_15  and  C_16
REMARK    8  A    between atoms: C_16  and  O_18
REMARK    9  A    between atoms: O_18  and  C_19
REMARK   10  A    between atoms: C_20  and  C_21
REMARK   11  A    between atoms: C_24  and  O_25
REMARK   12  A    between atoms: C_26  and  O_27
REMARK   13  A    between atoms: O_27  and  C_28
REMARK                            x       y       z     vdW  Elec       q    Type
REMARK                         _______ _______ _______ _____ _____    ______ ____
ROOT
ATOM      1  C   UNL     1      -3.744  10.737  16.346  0.00  0.00    +0.000 A 
ATOM      2  C   UNL     1      -2.395  10.896  16.726  0.00  0.00    +0.000 A 
ATOM      3  C   UNL     1      -2.053  11.497  17.947  0.00  0.00    +0.000 A 
ATOM      4  C   UNL     1      -3.090  11.945  18.759  0.00  0.00    +0.000 A 
ATOM      5  C   UNL     1      -4.417  11.756  18.427  0.00  0.00    +0.000 A 
ATOM      6  C   UNL     1      -4.754  11.135  17.232  0.00  0.00    +0.000 A 
ATOM      7  C   UNL     1      -5.308  12.265  19.517  0.00  0.00    +0.000 C 
ATOM      8  C   UNL     1      -4.265  13.042  20.351  0.00  0.00    +0.000 C 
ATOM      9  O   UNL     1      -2.926  12.602  19.952  0.00  0.00    +0.000 OA
ENDROOT
BRANCH   8  10
ATOM     10  C   UNL     1      -4.400  12.835  21.857  0.00  0.00    +0.000 A 
ATOM     11  C   UNL     1      -3.267  12.637  22.656  0.00  0.00    +0.000 A 
ATOM     12  C   UNL     1      -3.382  12.451  24.033  0.00  0.00    +0.000 A 
ATOM     13  C   UNL     1      -4.638  12.458  24.645  0.00  0.00    +0.000 A 
ATOM     14  C   UNL     1      -5.791  12.662  23.882  0.00  0.00    +0.000 A 
ATOM     15  C   UNL     1      -5.658  12.845  22.490  0.00  0.00    +0.000 A 
BRANCH  13  16
ATOM     16  O   UNL     1      -4.692  12.263  25.992  0.00  0.00    +0.000 OA
ATOM     17  H   UNL     1      -3.788  12.174  26.337  0.00  0.00    +0.000 HD
ENDBRANCH  13  16
BRANCH  14  18
ATOM     18  O   UNL     1      -7.090  12.719  24.320  0.00  0.00    +0.000 OA
ATOM     19  C   UNL     1      -7.782  13.955  24.198  0.00  0.00    +0.000 C 
ENDBRANCH  14  18
ENDBRANCH   8  10
BRANCH   1  21
ATOM     20  C   UNL     1      -3.353  10.330  13.935  0.00  0.00    +0.000 C 
ATOM     21  C   UNL     1      -4.069  10.118  15.049  0.00  0.00    +0.000 C 
BRANCH  20  22
ATOM     22  C   UNL     1      -3.741   9.689  12.662  0.00  0.00    +0.000 C 
ATOM     23  O   UNL     1      -2.976   9.411  11.753  0.00  0.00    +0.000 OA
BRANCH  22  25
ATOM     24  C   UNL     1      -5.681   9.370  11.407  0.00  0.00    +0.000 C 
ATOM     25  O   UNL     1      -5.078   9.457  12.700  0.00  0.00    +0.000 OA
ENDBRANCH  22  25
ENDBRANCH  20  22
ENDBRANCH   1  21
BRANCH   3  26
ATOM     26  O   UNL     1      -0.781  11.688  18.409  0.00  0.00    +0.000 OA
ATOM     27  C   UNL     1       0.043  10.533  18.518  0.00  0.00    +0.000 C 
ENDBRANCH   3  26
BRANCH   7  28
ATOM     28  C   UNL     1      -6.471  13.098  19.000  0.00  0.00    +0.000 C 
ATOM     29  O   UNL     1      -7.603  12.665  18.819  0.00  0.00    +0.000 OA
BRANCH  28  30
ATOM     30  O   UNL     1      -6.155  14.416  18.874  0.00  0.00    +0.000 OA
ATOM     31  C   UNL     1      -7.075  15.144  18.053  0.00  0.00    +0.000 C 
ENDBRANCH  28  30
ENDBRANCH   7  28
TORSDOF 9
ENDMDL
MODEL 3
REMARK VINA RESULT:      -6.5      3.405      8.447
REMARK  Name = 
REMARK  13 active torsions:
REMARK  status: ('A' for Active; 'I' for Inactive)
REMARK    1  A    between atoms: C_1  and  O_2
REMARK    2  A    between atoms: O_2  and  C_3
REMARK    3  A    between atoms: C_3  and  C_5
REMARK    4  A    between atoms: C_6  and  C_7
REMARK    5  A    between atoms: C_9  and  O_10
REMARK    6  A    between atoms: O_10  and  C_11
REMARK    7  A    between atoms: C_15  and  C_16
REMARK    8  A    between atoms: C_16  and  O_18
REMARK    9  A    between atoms: O_18  and  C_19
REMARK   10  A    between atoms: C_20  and  C_21
REMARK   11  A    between atoms: C_24  and  O_25
REMARK   12  A    between atoms: C_26  and  O_27
REMARK   13  A    between atoms: O_27  and  C_28
REMARK                            x       y       z     vdW  Elec       q    Type
REMARK                         _______ _______ _______ _____ _____    ______ ____
ROOT
ATOM      1  C   UNL     1      -3.375  11.834  18.894  0.00  0.00    +0.000 A 
ATOM      2  C   UNL     1      -3.391  11.311  17.584  0.00  0.00    +0.000 A 
ATOM      3  C   UNL     1      -2.306  10.576  17.084  0.00  0.00    +0.000 A 
ATOM      4  C   UNL     1      -1.207  10.398  17.919  0.00  0.00    +0.000 A 
ATOM      5  C   UNL     1      -1.191  10.862  19.220  0.00  0.00    +0.000 A 
ATOM      6  C   UNL     1      -2.278  11.563  19.723  0.00  0.00    +0.000 A 
ATOM      7  C   UNL     1       0.079  10.460  19.903  0.00  0.00    +0.000 C 
ATOM      8  C   UNL     1       0.883   9.976  18.675  0.00  0.00    +0.000 C 
ATOM      9  O   UNL     1      -0.047   9.757  17.565  0.00  0.00    +0.000 OA
ENDROOT
BRANCH   8  10
ATOM     10  C   UNL     1       1.650   8.678  18.912  0.00  0.00    +0.000 A 
ATOM     11  C   UNL     1       1.507   7.972  20.113  0.00  0.00    +0.000 A 
ATOM     12  C   UNL     1       2.201   6.783  20.335  0.00  0.00    +0.000 A 
ATOM     13  C   UNL     1       3.058   6.272  19.358  0.00  0.00    +0.000 A 
ATOM     14  C   UNL     1       3.219   6.944  18.142  0.00  0.00    +0.000 A 
ATOM     15  C   UNL     1       2.512   8.146  17.934  0.00  0.00    +0.000 A 
BRANCH  13  16
ATOM     16  O   UNL     1       3.718   5.112  19.631  0.00  0.00    +0.000 OA
ATOM     17  H   UNL     1       4.415   4.979  18.968  0.00  0.00    +0.000 HD
ENDBRANCH  13  16
BRANCH  14  18
ATOM     18  O   UNL     1       3.996   6.574  17.074  0.00  0.00    +0.000 OA
ATOM     19  C   UNL     1       5.383   6.887  17.117  0.00  0.00    +0.000 C 
ENDBRANCH  14  18
ENDBRANCH   8  10
BRANCH   1  21
ATOM     20  C   UNL     1      -4.873  12.675  20.676  0.00  0.00    +0.000 C 
ATOM     21  C   UNL     1      -4.524  12.616  19.383  0.00  0.00    +0.000 C 
BRANCH  20  22
ATOM     22  C   UNL     1      -6.045  13.468  21.099  0.00  0.00    +0.000 C 
ATOM     23  O   UNL     1      -6.252  14.633  20.798  0.00  0.00    +0.000 OA
BRANCH  22  25
ATOM     24  C   UNL     1      -7.488  11.636  21.111  0.00  0.00    +0.000 C 
ATOM     25  O   UNL     1      -6.842  12.670  21.855  0.00  0.00    +0.000 OA
ENDBRANCH  22  25
ENDBRANCH  20  22
ENDBRANCH   1  21
BRANCH   3  26
ATOM     26  O   UNL     1      -2.230  10.022  15.837  0.00  0.00    +0.000 OA
ATOM     27  C   UNL     1      -3.246  10.384  14.909  0.00  0.00    +0.000 C 
ENDBRANCH   3  26
BRANCH   7  28
ATOM     28  C   UNL     1       0.721  11.594  20.689  0.00  0.00    +0.000 C 
ATOM     29  O   UNL     1       0.509  11.818  21.875  0.00  0.00    +0.000 OA
BRANCH  28  30
ATOM     30  O   UNL     1       1.659  12.265  19.966  0.00  0.00    +0.000 OA
ATOM     31  C   UNL     1       1.787  13.641  20.342  0.00  0.00    +0.000 C 
ENDBRANCH  28  30
ENDBRANCH   7  28
TORSDOF 9
ENDMDL
MODEL 4
REMARK VINA RESULT:      -6.5      3.302      5.725
REMARK  Name = 
REMARK  13 active torsions:
REMARK  status: ('A' for Active; 'I' for Inactive)
REMARK    1  A    between atoms: C_1  and  O_2
REMARK    2  A    between atoms: O_2  and  C_3
REMARK    3  A    between atoms: C_3  and  C_5
REMARK    4  A    between atoms: C_6  and  C_7
REMARK    5  A    between atoms: C_9  and  O_10
REMARK    6  A    between atoms: O_10  and  C_11
REMARK    7  A    between atoms: C_15  and  C_16
REMARK    8  A    between atoms: C_16  and  O_18
REMARK    9  A    between atoms: O_18  and  C_19
REMARK   10  A    between atoms: C_20  and  C_21
REMARK   11  A    between atoms: C_24  and  O_25
REMARK   12  A    between atoms: C_26  and  O_27
REMARK   13  A    between atoms: O_27  and  C_28
REMARK                            x       y       z     vdW  Elec       q    Type
REMARK                         _______ _______ _______ _____ _____    ______ ____
ROOT
ATOM      1  C   UNL     1       1.729   9.665  17.996  0.00  0.00    +0.000 A 
ATOM      2  C   UNL     1       2.325  10.881  18.389  0.00  0.00    +0.000 A 
ATOM      3  C   UNL     1       1.545  11.960  18.831  0.00  0.00    +0.000 A 
ATOM      4  C   UNL     1       0.164  11.794  18.850  0.00  0.00    +0.000 A 
ATOM      5  C   UNL     1      -0.436  10.595  18.514  0.00  0.00    +0.000 A 
ATOM      6  C   UNL     1       0.339   9.519  18.106  0.00  0.00    +0.000 A 
ATOM      7  C   UNL     1      -1.918  10.681  18.701  0.00  0.00    +0.000 C 
ATOM      8  C   UNL     1      -2.060  12.208  18.892  0.00  0.00    +0.000 C 
ATOM      9  O   UNL     1      -0.740  12.765  19.199  0.00  0.00    +0.000 OA
ENDROOT
BRANCH   8  10
ATOM     10  C   UNL     1      -3.012  12.604  20.016  0.00  0.00    +0.000 A 
ATOM     11  C   UNL     1      -4.400  12.536  19.835  0.00  0.00    +0.000 A 
ATOM     12  C   UNL     1      -5.277  12.893  20.859  0.00  0.00    +0.000 A 
ATOM     13  C   UNL     1      -4.785  13.329  22.091  0.00  0.00    +0.000 A 
ATOM     14  C   UNL     1      -3.406  13.401  22.313  0.00  0.00    +0.000 A 
ATOM     15  C   UNL     1      -2.533  13.040  21.267  0.00  0.00    +0.000 A 
BRANCH  13  16
ATOM     16  O   UNL     1      -5.687  13.673  23.052  0.00  0.00    +0.000 OA
ATOM     17  H   UNL     1      -5.970  12.873  23.524  0.00  0.00    +0.000 HD
ENDBRANCH  13  16
BRANCH  14  18
ATOM     18  O   UNL     1      -2.758  13.784  23.459  0.00  0.00    +0.000 OA
ATOM     19  C   UNL     1      -1.336  13.798  23.450  0.00  0.00    +0.000 C 
ENDBRANCH  14  18
ENDBRANCH   8  10
BRANCH   1  21
ATOM     20  C   UNL     1       2.749   7.419  18.207  0.00  0.00    +0.000 C 
ATOM     21  C   UNL     1       2.575   8.557  17.520  0.00  0.00    +0.000 C 
BRANCH  20  22
ATOM     22  C   UNL     1       3.622   6.351  17.680  0.00  0.00    +0.000 C 
ATOM     23  O   UNL     1       3.524   5.164  17.950  0.00  0.00    +0.000 OA
BRANCH  22  25
ATOM     24  C   UNL     1       5.695   6.130  16.633  0.00  0.00    +0.000 C 
ATOM     25  O   UNL     1       4.524   6.922  16.841  0.00  0.00    +0.000 OA
ENDBRANCH  22  25
ENDBRANCH  20  22
ENDBRANCH   1  21
BRANCH   3  26
ATOM     26  O   UNL     1       2.026  13.172  19.241  0.00  0.00    +0.000 OA
ATOM     27  C   UNL     1       2.655  13.982  18.255  0.00  0.00    +0.000 C 
ENDBRANCH   3  26
BRANCH   7  28
ATOM     28  C   UNL     1      -2.704  10.101  17.535  0.00  0.00    +0.000 C 
ATOM     29  O   UNL     1      -3.554   9.224  17.643  0.00  0.00    +0.000 OA
BRANCH  28  30
ATOM     30  O   UNL     1      -2.454  10.746  16.364  0.00  0.00    +0.000 OA
ATOM     31  C   UNL     1      -2.988  10.072  15.218  0.00  0.00    +0.000 C 
ENDBRANCH  28  30
ENDBRANCH   7  28
TORSDOF 9
ENDMDL
MODEL 5
REMARK VINA RESULT:      -6.4      3.067      5.374
REMARK  Name = 
REMARK  13 active torsions:
REMARK  status: ('A' for Active; 'I' for Inactive)
REMARK    1  A    between atoms: C_1  and  O_2
REMARK    2  A    between atoms: O_2  and  C_3
REMARK    3  A    between atoms: C_3  and  C_5
REMARK    4  A    between atoms: C_6  and  C_7
REMARK    5  A    between atoms: C_9  and  O_10
REMARK    6  A    between atoms: O_10  and  C_11
REMARK    7  A    between atoms: C_15  and  C_16
REMARK    8  A    between atoms: C_16  and  O_18
REMARK    9  A    between atoms: O_18  and  C_19
REMARK   10  A    between atoms: C_20  and  C_21
REMARK   11  A    between atoms: C_24  and  O_25
REMARK   12  A    between atoms: C_26  and  O_27
REMARK   13  A    between atoms: O_27  and  C_28
REMARK                            x       y       z     vdW  Elec       q    Type
REMARK                         _______ _______ _______ _____ _____    ______ ____
ROOT
ATOM      1  C   UNL     1       1.496   9.838  18.074  0.00  0.00    +0.000 A 
ATOM      2  C   UNL     1       2.086  11.052  18.480  0.00  0.00    +0.000 A 
ATOM      3  C   UNL     1       1.302  12.120  18.943  0.00  0.00    +0.000 A 
ATOM      4  C   UNL     1      -0.078  11.944  18.970  0.00  0.00    +0.000 A 
ATOM      5  C   UNL     1      -0.672  10.746  18.621  0.00  0.00    +0.000 A 
ATOM      6  C   UNL     1       0.108   9.682  18.192  0.00  0.00    +0.000 A 
ATOM      7  C   UNL     1      -2.153  10.819  18.820  0.00  0.00    +0.000 C 
ATOM      8  C   UNL     1      -2.304  12.342  19.034  0.00  0.00    +0.000 C 
ATOM      9  O   UNL     1      -0.985  12.904  19.339  0.00  0.00    +0.000 OA
ENDROOT
BRANCH   8  10
ATOM     10  C   UNL     1      -3.250  12.717  20.170  0.00  0.00    +0.000 A 
ATOM     11  C   UNL     1      -2.752  13.207  21.384  0.00  0.00    +0.000 A 
ATOM     12  C   UNL     1      -3.610  13.556  22.426  0.00  0.00    +0.000 A 
ATOM     13  C   UNL     1      -4.992  13.418  22.278  0.00  0.00    +0.000 A 
ATOM     14  C   UNL     1      -5.528  12.941  21.078  0.00  0.00    +0.000 A 
ATOM     15  C   UNL     1      -4.647  12.590  20.036  0.00  0.00    +0.000 A 
BRANCH  13  16
ATOM     16  O   UNL     1      -5.784  13.765  23.332  0.00  0.00    +0.000 OA
ATOM     17  H   UNL     1      -6.619  13.273  23.277  0.00  0.00    +0.000 HD
ENDBRANCH  13  16
BRANCH  14  18
ATOM     18  O   UNL     1      -6.851  12.766  20.759  0.00  0.00    +0.000 OA
ATOM     19  C   UNL     1      -7.397  11.457  20.867  0.00  0.00    +0.000 C 
ENDBRANCH  14  18
ENDBRANCH   8  10
BRANCH   1  21
ATOM     20  C   UNL     1       2.682   7.679  18.320  0.00  0.00    +0.000 C 
ATOM     21  C   UNL     1       2.346   8.742  17.576  0.00  0.00    +0.000 C 
BRANCH  20  22
ATOM     22  C   UNL     1       3.550   6.621  17.764  0.00  0.00    +0.000 C 
ATOM     23  O   UNL     1       4.697   6.782  17.379  0.00  0.00    +0.000 OA
BRANCH  22  25
ATOM     24  C   UNL     1       2.591   4.960  19.093  0.00  0.00    +0.000 C 
ATOM     25  O   UNL     1       2.853   5.456  17.778  0.00  0.00    +0.000 OA
ENDBRANCH  22  25
ENDBRANCH  20  22
ENDBRANCH   1  21
BRANCH   3  26
ATOM     26  O   UNL     1       1.779  13.329  19.367  0.00  0.00    +0.000 OA
ATOM     27  C   UNL     1       2.327  13.380  20.679  0.00  0.00    +0.000 C 
ENDBRANCH   3  26
BRANCH   7  28
ATOM     28  C   UNL     1      -2.943  10.251  17.651  0.00  0.00    +0.000 C 
ATOM     29  O   UNL     1      -3.543   9.182  17.678  0.00  0.00    +0.000 OA
BRANCH  28  30
ATOM     30  O   UNL     1      -3.022  11.115  16.603  0.00  0.00    +0.000 OA
ATOM     31  C   UNL     1      -2.842  10.482  15.331  0.00  0.00    +0.000 C 
ENDBRANCH  28  30
ENDBRANCH   7  28
TORSDOF 9
ENDMDL
MODEL 6
REMARK VINA RESULT:      -6.4      3.477      8.581
REMARK  Name = 
REMARK  13 active torsions:
REMARK  status: ('A' for Active; 'I' for Inactive)
REMARK    1  A    between atoms: C_1  and  O_2
REMARK    2  A    between atoms: O_2  and  C_3
REMARK    3  A    between atoms: C_3  and  C_5
REMARK    4  A    between atoms: C_6  and  C_7
REMARK    5  A    between atoms: C_9  and  O_10
REMARK    6  A    between atoms: O_10  and  C_11
REMARK    7  A    between atoms: C_15  and  C_16
REMARK    8  A    between atoms: C_16  and  O_18
REMARK    9  A    between atoms: O_18  and  C_19
REMARK   10  A    between atoms: C_20  and  C_21
REMARK   11  A    between atoms: C_24  and  O_25
REMARK   12  A    between atoms: C_26  and  O_27
REMARK   13  A    between atoms: O_27  and  C_28
REMARK                            x       y       z     vdW  Elec       q    Type
REMARK                         _______ _______ _______ _____ _____    ______ ____
ROOT
ATOM      1  C   UNL     1      -3.079  11.861  19.365  0.00  0.00    +0.000 A 
ATOM      2  C   UNL     1      -3.418  11.192  18.171  0.00  0.00    +0.000 A 
ATOM      3  C   UNL     1      -2.484  10.388  17.501  0.00  0.00    +0.000 A 
ATOM      4  C   UNL     1      -1.208  10.290  18.046  0.00  0.00    +0.000 A 
ATOM      5  C   UNL     1      -0.870  10.899  19.239  0.00  0.00    +0.000 A 
ATOM      6  C   UNL     1      -1.805  11.670  19.916  0.00  0.00    +0.000 A 
ATOM      7  C   UNL     1       0.537  10.559  19.621  0.00  0.00    +0.000 C 
ATOM      8  C   UNL     1       1.011   9.925  18.294  0.00  0.00    +0.000 C 
ATOM      9  O   UNL     1      -0.166   9.595  17.487  0.00  0.00    +0.000 OA
ENDROOT
BRANCH   8  10
ATOM     10  C   UNL     1       1.831   8.651  18.476  0.00  0.00    +0.000 A 
ATOM     11  C   UNL     1       2.864   8.332  17.585  0.00  0.00    +0.000 A 
ATOM     12  C   UNL     1       3.620   7.172  17.746  0.00  0.00    +0.000 A 
ATOM     13  C   UNL     1       3.359   6.301  18.807  0.00  0.00    +0.000 A 
ATOM     14  C   UNL     1       2.343   6.590  19.723  0.00  0.00    +0.000 A 
ATOM     15  C   UNL     1       1.585   7.765  19.543  0.00  0.00    +0.000 A 
BRANCH  13  16
ATOM     16  O   UNL     1       4.123   5.178  18.912  0.00  0.00    +0.000 OA
ATOM     17  H   UNL     1       4.037   4.657  18.097  0.00  0.00    +0.000 HD
ENDBRANCH  13  16
BRANCH  14  18
ATOM     18  O   UNL     1       1.971   5.862  20.823  0.00  0.00    +0.000 OA
ATOM     19  C   UNL     1       1.312   4.619  20.611  0.00  0.00    +0.000 C 
ENDBRANCH  14  18
ENDBRANCH   8  10
BRANCH   1  21
ATOM     20  C   UNL     1      -3.752  13.780  20.778  0.00  0.00    +0.000 C 
ATOM     21  C   UNL     1      -4.078  12.712  20.035  0.00  0.00    +0.000 C 
BRANCH  20  22
ATOM     22  C   UNL     1      -4.802  14.584  21.435  0.00  0.00    +0.000 C 
ATOM     23  O   UNL     1      -5.234  15.649  21.021  0.00  0.00    +0.000 OA
BRANCH  22  25
ATOM     24  C   UNL     1      -4.945  14.639  23.762  0.00  0.00    +0.000 C 
ATOM     25  O   UNL     1      -5.200  13.923  22.552  0.00  0.00    +0.000 OA
ENDBRANCH  22  25
ENDBRANCH  20  22
ENDBRANCH   1  21
BRANCH   3  26
ATOM     26  O   UNL     1      -2.718   9.693  16.347  0.00  0.00    +0.000 OA
ATOM     27  C   UNL     1      -2.883  10.457  15.158  0.00  0.00    +0.000 C 
ENDBRANCH   3  26
BRANCH   7  28
ATOM     28  C   UNL     1       1.340  11.765  20.083  0.00  0.00    +0.000 C 
ATOM     29  O   UNL     1       1.480  12.093  21.256  0.00  0.00    +0.000 OA
BRANCH  28  30
ATOM     30  O   UNL     1       1.997  12.379  19.062  0.00  0.00    +0.000 OA
ATOM     31  C   UNL     1       1.710  13.779  18.962  0.00  0.00    +0.000 C 
ENDBRANCH  28  30
ENDBRANCH   7  28
TORSDOF 9
ENDMDL
MODEL 7
REMARK VINA RESULT:      -6.4      3.215      5.576
REMARK  Name = 
REMARK  13 active torsions:
REMARK  status: ('A' for Active; 'I' for Inactive)
REMARK    1  A    between atoms: C_1  and  O_2
REMARK    2  A    between atoms: O_2  and  C_3
REMARK    3  A    between atoms: C_3  and  C_5
REMARK    4  A    between atoms: C_6  and  C_7
REMARK    5  A    between atoms: C_9  and  O_10
REMARK    6  A    between atoms: O_10  and  C_11
REMARK    7  A    between atoms: C_15  and  C_16
REMARK    8  A    between atoms: C_16  and  O_18
REMARK    9  A    between atoms: O_18  and  C_19
REMARK   10  A    between atoms: C_20  and  C_21
REMARK   11  A    between atoms: C_24  and  O_25
REMARK   12  A    between atoms: C_26  and  O_27
REMARK   13  A    between atoms: O_27  and  C_28
REMARK                            x       y       z     vdW  Elec       q    Type
REMARK                         _______ _______ _______ _____ _____    ______ ____
ROOT
ATOM      1  C   UNL     1       1.652   9.642  17.994  0.00  0.00    +0.000 A 
ATOM      2  C   UNL     1       2.273  10.841  18.399  0.00  0.00    +0.000 A 
ATOM      3  C   UNL     1       1.517  11.930  18.857  0.00  0.00    +0.000 A 
ATOM      4  C   UNL     1       0.132  11.791  18.880  0.00  0.00    +0.000 A 
ATOM      5  C   UNL     1      -0.492  10.608  18.532  0.00  0.00    +0.000 A 
ATOM      6  C   UNL     1       0.260   9.522  18.107  0.00  0.00    +0.000 A 
ATOM      7  C   UNL     1      -1.972  10.721  18.726  0.00  0.00    +0.000 C 
ATOM      8  C   UNL     1      -2.083  12.248  18.936  0.00  0.00    +0.000 C 
ATOM      9  O   UNL     1      -0.750  12.775  19.245  0.00  0.00    +0.000 OA
ENDROOT
BRANCH   8  10
ATOM     10  C   UNL     1      -3.022  12.649  20.069  0.00  0.00    +0.000 A 
ATOM     11  C   UNL     1      -2.515  13.144  21.278  0.00  0.00    +0.000 A 
ATOM     12  C   UNL     1      -3.367  13.517  22.317  0.00  0.00    +0.000 A 
ATOM     13  C   UNL     1      -4.751  13.402  22.171  0.00  0.00    +0.000 A 
ATOM     14  C   UNL     1      -5.296  12.921  20.976  0.00  0.00    +0.000 A 
ATOM     15  C   UNL     1      -4.421  12.545  19.936  0.00  0.00    +0.000 A 
BRANCH  13  16
ATOM     16  O   UNL     1      -5.536  13.772  23.221  0.00  0.00    +0.000 OA
ATOM     17  H   UNL     1      -6.274  13.146  23.302  0.00  0.00    +0.000 HD
ENDBRANCH  13  16
BRANCH  14  18
ATOM     18  O   UNL     1      -6.621  12.765  20.659  0.00  0.00    +0.000 OA
ATOM     19  C   UNL     1      -7.309  13.876  20.097  0.00  0.00    +0.000 C 
ENDBRANCH  14  18
ENDBRANCH   8  10
BRANCH   1  21
ATOM     20  C   UNL     1       2.766   7.445  18.242  0.00  0.00    +0.000 C 
ATOM     21  C   UNL     1       2.474   8.523  17.500  0.00  0.00    +0.000 C 
BRANCH  20  22
ATOM     22  C   UNL     1       3.608   6.363  17.692  0.00  0.00    +0.000 C 
ATOM     23  O   UNL     1       3.485   5.176  17.949  0.00  0.00    +0.000 OA
BRANCH  22  25
ATOM     24  C   UNL     1       5.869   6.611  17.178  0.00  0.00    +0.000 C 
ATOM     25  O   UNL     1       4.514   6.923  16.850  0.00  0.00    +0.000 OA
ENDBRANCH  22  25
ENDBRANCH  20  22
ENDBRANCH   1  21
BRANCH   3  26
ATOM     26  O   UNL     1       2.023  13.127  19.280  0.00  0.00    +0.000 OA
ATOM     27  C   UNL     1       2.521  14.005  18.277  0.00  0.00    +0.000 C 
ENDBRANCH   3  26
BRANCH   7  28
ATOM     28  C   UNL     1      -2.773  10.170  17.557  0.00  0.00    +0.000 C 
ATOM     29  O   UNL     1      -3.566   9.239  17.640  0.00  0.00    +0.000 OA
BRANCH  28  30
ATOM     30  O   UNL     1      -2.613  10.904  16.422  0.00  0.00    +0.000 OA
ATOM     31  C   UNL     1      -2.890  10.167  15.225  0.00  0.00    +0.000 C 
ENDBRANCH  28  30
ENDBRANCH   7  28
TORSDOF 9
ENDMDL
MODEL 8
REMARK VINA RESULT:      -6.4      3.257      7.988
REMARK  Name = 
REMARK  13 active torsions:
REMARK  status: ('A' for Active; 'I' for Inactive)
REMARK    1  A    between atoms: C_1  and  O_2
REMARK    2  A    between atoms: O_2  and  C_3
REMARK    3  A    between atoms: C_3  and  C_5
REMARK    4  A    between atoms: C_6  and  C_7
REMARK    5  A    between atoms: C_9  and  O_10
REMARK    6  A    between atoms: O_10  and  C_11
REMARK    7  A    between atoms: C_15  and  C_16
REMARK    8  A    between atoms: C_16  and  O_18
REMARK    9  A    between atoms: O_18  and  C_19
REMARK   10  A    between atoms: C_20  and  C_21
REMARK   11  A    between atoms: C_24  and  O_25
REMARK   12  A    between atoms: C_26  and  O_27
REMARK   13  A    between atoms: O_27  and  C_28
REMARK                            x       y       z     vdW  Elec       q    Type
REMARK                         _______ _______ _______ _____ _____    ______ ____
ROOT
ATOM      1  C   UNL     1      -3.701  11.752  18.588  0.00  0.00    +0.000 A 
ATOM      2  C   UNL     1      -3.660  11.152  17.312  0.00  0.00    +0.000 A 
ATOM      3  C   UNL     1      -2.534  10.432  16.885  0.00  0.00    +0.000 A 
ATOM      4  C   UNL     1      -1.453  10.347  17.758  0.00  0.00    +0.000 A 
ATOM      5  C   UNL     1      -1.492  10.887  19.029  0.00  0.00    +0.000 A 
ATOM      6  C   UNL     1      -2.618  11.573  19.460  0.00  0.00    +0.000 A 
ATOM      7  C   UNL     1      -0.228  10.577  19.768  0.00  0.00    +0.000 C 
ATOM      8  C   UNL     1       0.628  10.053  18.593  0.00  0.00    +0.000 C 
ATOM      9  O   UNL     1      -0.261   9.732  17.474  0.00  0.00    +0.000 OA
ENDROOT
BRANCH   8  10
ATOM     10  C   UNL     1       1.436   8.803  18.927  0.00  0.00    +0.000 A 
ATOM     11  C   UNL     1       1.371   8.229  20.203  0.00  0.00    +0.000 A 
ATOM     12  C   UNL     1       2.103   7.083  20.515  0.00  0.00    +0.000 A 
ATOM     13  C   UNL     1       2.922   6.485  19.555  0.00  0.00    +0.000 A 
ATOM     14  C   UNL     1       3.006   7.024  18.267  0.00  0.00    +0.000 A 
ATOM     15  C   UNL     1       2.262   8.183  17.969  0.00  0.00    +0.000 A 
BRANCH  13  16
ATOM     16  O   UNL     1       3.621   5.374  19.917  0.00  0.00    +0.000 OA
ATOM     17  H   UNL     1       3.206   4.592  19.517  0.00  0.00    +0.000 HD
ENDBRANCH  13  16
BRANCH  14  18
ATOM     18  O   UNL     1       3.738   6.555  17.206  0.00  0.00    +0.000 OA
ATOM     19  C   UNL     1       5.122   6.876  17.155  0.00  0.00    +0.000 C 
ENDBRANCH  14  18
ENDBRANCH   8  10
BRANCH   1  21
ATOM     20  C   UNL     1      -6.009  12.586  18.260  0.00  0.00    +0.000 C 
ATOM     21  C   UNL     1      -4.891  12.516  18.998  0.00  0.00    +0.000 C 
BRANCH  20  22
ATOM     22  C   UNL     1      -7.164  13.382  18.723  0.00  0.00    +0.000 C 
ATOM     23  O   UNL     1      -7.608  13.380  19.861  0.00  0.00    +0.000 OA
BRANCH  22  25
ATOM     24  C   UNL     1      -7.040  15.418  17.593  0.00  0.00    +0.000 C 
ATOM     25  O   UNL     1      -7.617  14.113  17.674  0.00  0.00    +0.000 OA
ENDBRANCH  22  25
ENDBRANCH  20  22
ENDBRANCH   1  21
BRANCH   3  26
ATOM     26  O   UNL     1      -2.402   9.808  15.676  0.00  0.00    +0.000 OA
ATOM     27  C   UNL     1      -3.340  10.159  14.666  0.00  0.00    +0.000 C 
ENDBRANCH   3  26
BRANCH   7  28
ATOM     28  C   UNL     1       0.348  11.779  20.501  0.00  0.00    +0.000 C 
ATOM     29  O   UNL     1       0.552  11.819  21.708  0.00  0.00    +0.000 OA
BRANCH  28  30
ATOM     30  O   UNL     1       0.734  12.772  19.653  0.00  0.00    +0.000 OA
ATOM     31  C   UNL     1       1.639  13.708  20.250  0.00  0.00    +0.000 C 
ENDBRANCH  28  30
ENDBRANCH   7  28
TORSDOF 9
ENDMDL
MODEL 9
REMARK VINA RESULT:      -6.3      3.418      8.049
REMARK  Name = 
REMARK  13 active torsions:
REMARK  status: ('A' for Active; 'I' for Inactive)
REMARK    1  A    between atoms: C_1  and  O_2
REMARK    2  A    between atoms: O_2  and  C_3
REMARK    3  A    between atoms: C_3  and  C_5
REMARK    4  A    between atoms: C_6  and  C_7
REMARK    5  A    between atoms: C_9  and  O_10
REMARK    6  A    between atoms: O_10  and  C_11
REMARK    7  A    between atoms: C_15  and  C_16
REMARK    8  A    between atoms: C_16  and  O_18
REMARK    9  A    between atoms: O_18  and  C_19
REMARK   10  A    between atoms: C_20  and  C_21
REMARK   11  A    between atoms: C_24  and  O_25
REMARK   12  A    between atoms: C_26  and  O_27
REMARK   13  A    between atoms: O_27  and  C_28
REMARK                            x       y       z     vdW  Elec       q    Type
REMARK                         _______ _______ _______ _____ _____    ______ ____
ROOT
ATOM      1  C   UNL     1      -3.268  11.889  19.432  0.00  0.00    +0.000 A 
ATOM      2  C   UNL     1      -3.271  11.670  18.039  0.00  0.00    +0.000 A 
ATOM      3  C   UNL     1      -2.183  11.056  17.400  0.00  0.00    +0.000 A 
ATOM      4  C   UNL     1      -1.097  10.687  18.187  0.00  0.00    +0.000 A 
ATOM      5  C   UNL     1      -1.095  10.849  19.559  0.00  0.00    +0.000 A 
ATOM      6  C   UNL     1      -2.184  11.430  20.192  0.00  0.00    +0.000 A 
ATOM      7  C   UNL     1       0.163  10.294  20.150  0.00  0.00    +0.000 C 
ATOM      8  C   UNL     1       0.980  10.088  18.855  0.00  0.00    +0.000 C 
ATOM      9  O   UNL     1       0.063  10.129  17.712  0.00  0.00    +0.000 OA
ENDROOT
BRANCH   8  10
ATOM     10  C   UNL     1       1.735   8.763  18.805  0.00  0.00    +0.000 A 
ATOM     11  C   UNL     1       2.619   8.483  17.754  0.00  0.00    +0.000 A 
ATOM     12  C   UNL     1       3.316   7.276  17.703  0.00  0.00    +0.000 A 
ATOM     13  C   UNL     1       3.144   6.318  18.705  0.00  0.00    +0.000 A 
ATOM     14  C   UNL     1       2.278   6.565  19.775  0.00  0.00    +0.000 A 
ATOM     15  C   UNL     1       1.578   7.789  19.810  0.00  0.00    +0.000 A 
BRANCH  13  16
ATOM     16  O   UNL     1       3.843   5.154  18.601  0.00  0.00    +0.000 OA
ATOM     17  H   UNL     1       4.794   5.349  18.634  0.00  0.00    +0.000 HD
ENDBRANCH  13  16
BRANCH  14  18
ATOM     18  O   UNL     1       2.010   5.751  20.845  0.00  0.00    +0.000 OA
ATOM     19  C   UNL     1       1.257   4.567  20.612  0.00  0.00    +0.000 C 
ENDBRANCH  14  18
ENDBRANCH   8  10
BRANCH   1  21
ATOM     20  C   UNL     1      -5.693  12.263  19.769  0.00  0.00    +0.000 C 
ATOM     21  C   UNL     1      -4.418  12.554  20.070  0.00  0.00    +0.000 C 
BRANCH  20  22
ATOM     22  C   UNL     1      -6.801  12.976  20.436  0.00  0.00    +0.000 C 
ATOM     23  O   UNL     1      -6.777  14.148  20.779  0.00  0.00    +0.000 OA
BRANCH  22  25
ATOM     24  C   UNL     1      -7.443  10.736  20.511  0.00  0.00    +0.000 C 
ATOM     25  O   UNL     1      -7.835  12.108  20.576  0.00  0.00    +0.000 OA
ENDBRANCH  22  25
ENDBRANCH  20  22
ENDBRANCH   1  21
BRANCH   3  26
ATOM     26  O   UNL     1      -2.094  10.792  16.062  0.00  0.00    +0.000 OA
ATOM     27  C   UNL     1      -3.085   9.933  15.509  0.00  0.00    +0.000 C 
ENDBRANCH   3  26
BRANCH   7  28
ATOM     28  C   UNL     1       0.801  11.218  21.175  0.00  0.00    +0.000 C 
ATOM     29  O   UNL     1       1.581  12.123  20.899  0.00  0.00    +0.000 OA
BRANCH  28  30
ATOM     30  O   UNL     1       0.319  11.017  22.432  0.00  0.00    +0.000 OA
ATOM     31  C   UNL     1       0.293   9.637  22.816  0.00  0.00    +0.000 C 
ENDBRANCH  28  30
ENDBRANCH   7  28
TORSDOF 9
ENDMDL
