MODEL 1
REMARK VINA RESULT:      -8.1      0.000      0.000
REMARK  Name = 
REMARK  5 active torsions:
REMARK  status: ('A' for Active; 'I' for Inactive)
REMARK    1  A    between atoms: C_2  and  C_3
REMARK    2  A    between atoms: C_3  and  C_4
REMARK    3  A    between atoms: N_13  and  C_14
REMARK    4  A    between atoms: C_14  and  C_15
REMARK    5  A    between atoms: C_15  and  N_16
REMARK                            x       y       z     vdW  Elec       q    Type
REMARK                         _______ _______ _______ _____ _____    ______ ____
ROOT
ATOM      1  O   UNL     1       5.216   7.147  15.810  0.00  0.00    +0.000 OA
ATOM      2  C   UNL     1       4.946   6.960  16.988  0.00  0.00    +0.000 C 
ATOM      3  N   UNL     1       5.855   6.431  17.888  0.00  0.00    +0.000 N 
ATOM      4  H   UNL     1       5.516   6.139  18.797  0.00  0.00    +0.000 HD
ENDROOT
BRANCH   2   5
ATOM      5  C   UNL     1       3.604   7.357  17.612  0.00  0.00    +0.000 C 
BRANCH   5   6
ATOM      6  C   UNL     1       2.908   6.257  18.386  0.00  0.00    +0.000 A 
ATOM      7  C   UNL     1       2.496   6.470  19.719  0.00  0.00    +0.000 A 
ATOM      8  C   UNL     1       1.870   5.460  20.458  0.00  0.00    +0.000 A 
ATOM      9  C   UNL     1       1.652   4.237  19.850  0.00  0.00    +0.000 A 
ATOM     10  C   UNL     1       2.073   4.004  18.537  0.00  0.00    +0.000 A 
ATOM     11  C   UNL     1       2.710   4.994  17.802  0.00  0.00    +0.000 A 
ATOM     12  C   UNL     1       1.767   2.596  18.129  0.00  0.00    +0.000 C 
ATOM     13  C   UNL     1       0.700   2.213  19.165  0.00  0.00    +0.000 C 
ATOM     14  C   UNL     1       1.021   3.013  20.435  0.00  0.00    +0.000 C 
ENDBRANCH   5   6
ENDBRANCH   2   5
BRANCH   3  15
ATOM     15  C   UNL     1       7.170   5.953  17.468  0.00  0.00    +0.000 C 
BRANCH  15  16
ATOM     16  C   UNL     1       7.066   4.854  16.404  0.00  0.00    +0.000 C 
BRANCH  16  17
ATOM     17  N   UNL     1       7.477   5.339  15.093  0.00  0.00    +0.000 N 
ATOM     18  C   UNL     1       6.847   4.670  14.047  0.00  0.00    +0.000 A 
ATOM     19  N   UNL     1       5.608   4.190  14.225  0.00  0.00    +0.000 NA
ATOM     20  C   UNL     1       5.056   3.512  13.205  0.00  0.00    +0.000 A 
ATOM     21  C   UNL     1       5.693   3.298  12.011  0.00  0.00    +0.000 A 
ATOM     22  C   UNL     1       6.951   3.839  11.916  0.00  0.00    +0.000 A 
ATOM     23  N   UNL     1       7.548   4.519  12.915  0.00  0.00    +0.000 NA
ATOM     24  H   UNL     1       8.471   5.293  14.890  0.00  0.00    +0.000 HD
ENDBRANCH  16  17
ENDBRANCH  15  16
ENDBRANCH   3  15
TORSDOF 5
ENDMDL
MODEL 2
REMARK VINA RESULT:      -7.9      4.204      6.186
REMARK  Name = 
REMARK  5 active torsions:
REMARK  status: ('A' for Active; 'I' for Inactive)
REMARK    1  A    between atoms: C_2  and  C_3
REMARK    2  A    between atoms: C_3  and  C_4
REMARK    3  A    between atoms: N_13  and  C_14
REMARK    4  A    between atoms: C_14  and  C_15
REMARK    5  A    between atoms: C_15  and  N_16
REMARK                            x       y       z     vdW  Elec       q    Type
REMARK                         _______ _______ _______ _____ _____    ______ ____
ROOT
ATOM      1  O   UNL     1       6.670   5.633  18.320  0.00  0.00    +0.000 OA
ATOM      2  C   UNL     1       6.218   6.414  17.493  0.00  0.00    +0.000 C 
ATOM      3  N   UNL     1       6.858   7.593  17.153  0.00  0.00    +0.000 N 
ATOM      4  H   UNL     1       6.350   8.273  16.601  0.00  0.00    +0.000 HD
ENDROOT
BRANCH   2   5
ATOM      5  C   UNL     1       4.940   6.141  16.695  0.00  0.00    +0.000 C 
BRANCH   5   6
ATOM      6  C   UNL     1       3.943   5.227  17.375  0.00  0.00    +0.000 A 
ATOM      7  C   UNL     1       3.651   3.955  16.835  0.00  0.00    +0.000 A 
ATOM      8  C   UNL     1       2.718   3.105  17.437  0.00  0.00    +0.000 A 
ATOM      9  C   UNL     1       2.083   3.533  18.589  0.00  0.00    +0.000 A 
ATOM     10  C   UNL     1       2.345   4.798  19.124  0.00  0.00    +0.000 A 
ATOM     11  C   UNL     1       3.255   5.655  18.524  0.00  0.00    +0.000 A 
ATOM     12  C   UNL     1       1.499   5.041  20.336  0.00  0.00    +0.000 C 
ATOM     13  C   UNL     1       1.097   3.606  20.709  0.00  0.00    +0.000 C 
ATOM     14  C   UNL     1       1.048   2.813  19.395  0.00  0.00    +0.000 C 
ENDBRANCH   5   6
ENDBRANCH   2   5
BRANCH   3  15
ATOM     15  C   UNL     1       8.067   8.043  17.840  0.00  0.00    +0.000 C 
BRANCH  15  16
ATOM     16  C   UNL     1       8.132   9.571  17.942  0.00  0.00    +0.000 C 
BRANCH  16  17
ATOM     17  N   UNL     1       9.025   9.999  19.010  0.00  0.00    +0.000 N 
ATOM     18  C   UNL     1       9.795  11.105  18.660  0.00  0.00    +0.000 A 
ATOM     19  N   UNL     1       9.300  12.006  17.801  0.00  0.00    +0.000 NA
ATOM     20  C   UNL     1      10.095  13.033  17.457  0.00  0.00    +0.000 A 
ATOM     21  C   UNL     1      11.366  13.196  17.942  0.00  0.00    +0.000 A 
ATOM     22  C   UNL     1      11.782  12.232  18.827  0.00  0.00    +0.000 A 
ATOM     23  N   UNL     1      11.022  11.181  19.195  0.00  0.00    +0.000 NA
ATOM     24  H   UNL     1       9.681   9.302  19.351  0.00  0.00    +0.000 HD
ENDBRANCH  16  17
ENDBRANCH  15  16
ENDBRANCH   3  15
TORSDOF 5
ENDMDL
MODEL 3
REMARK VINA RESULT:      -7.8      4.299      6.115
REMARK  Name = 
REMARK  5 active torsions:
REMARK  status: ('A' for Active; 'I' for Inactive)
REMARK    1  A    between atoms: C_2  and  C_3
REMARK    2  A    between atoms: C_3  and  C_4
REMARK    3  A    between atoms: N_13  and  C_14
REMARK    4  A    between atoms: C_14  and  C_15
REMARK    5  A    between atoms: C_15  and  N_16
REMARK                            x       y       z     vdW  Elec       q    Type
REMARK                         _______ _______ _______ _____ _____    ______ ____
ROOT
ATOM      1  O   UNL     1       6.900   5.842  18.296  0.00  0.00    +0.000 OA
ATOM      2  C   UNL     1       6.405   6.620  17.492  0.00  0.00    +0.000 C 
ATOM      3  N   UNL     1       6.993   7.829  17.163  0.00  0.00    +0.000 N 
ATOM      4  H   UNL     1       6.449   8.499  16.632  0.00  0.00    +0.000 HD
ENDROOT
BRANCH   2   5
ATOM      5  C   UNL     1       5.124   6.311  16.709  0.00  0.00    +0.000 C 
BRANCH   5   6
ATOM      6  C   UNL     1       4.025   5.650  17.513  0.00  0.00    +0.000 A 
ATOM      7  C   UNL     1       3.334   6.372  18.510  0.00  0.00    +0.000 A 
ATOM      8  C   UNL     1       2.330   5.774  19.278  0.00  0.00    +0.000 A 
ATOM      9  C   UNL     1       2.017   4.448  19.037  0.00  0.00    +0.000 A 
ATOM     10  C   UNL     1       2.707   3.714  18.068  0.00  0.00    +0.000 A 
ATOM     11  C   UNL     1       3.716   4.293  17.313  0.00  0.00    +0.000 A 
ATOM     12  C   UNL     1       2.218   2.298  18.034  0.00  0.00    +0.000 C 
ATOM     13  C   UNL     1       0.859   2.439  18.735  0.00  0.00    +0.000 C 
ATOM     14  C   UNL     1       1.001   3.597  19.732  0.00  0.00    +0.000 C 
ENDBRANCH   5   6
ENDBRANCH   2   5
BRANCH   3  15
ATOM     15  C   UNL     1       8.194   8.314  17.840  0.00  0.00    +0.000 C 
BRANCH  15  16
ATOM     16  C   UNL     1       8.175   9.836  18.018  0.00  0.00    +0.000 C 
BRANCH  16  17
ATOM     17  N   UNL     1       9.050  10.258  19.104  0.00  0.00    +0.000 N 
ATOM     18  C   UNL     1       9.975  11.221  18.709  0.00  0.00    +0.000 A 
ATOM     19  N   UNL     1       9.651  12.084  17.736  0.00  0.00    +0.000 NA
ATOM     20  C   UNL     1      10.590  12.968  17.356  0.00  0.00    +0.000 A 
ATOM     21  C   UNL     1      11.840  13.023  17.914  0.00  0.00    +0.000 A 
ATOM     22  C   UNL     1      12.075  12.110  18.912  0.00  0.00    +0.000 A 
ATOM     23  N   UNL     1      11.167  11.201  19.320  0.00  0.00    +0.000 NA
ATOM     24  H   UNL     1       9.591   9.525  19.554  0.00  0.00    +0.000 HD
ENDBRANCH  16  17
ENDBRANCH  15  16
ENDBRANCH   3  15
TORSDOF 5
ENDMDL
MODEL 4
REMARK VINA RESULT:      -7.7      2.230      3.645
REMARK  Name = 
REMARK  5 active torsions:
REMARK  status: ('A' for Active; 'I' for Inactive)
REMARK    1  A    between atoms: C_2  and  C_3
REMARK    2  A    between atoms: C_3  and  C_4
REMARK    3  A    between atoms: N_13  and  C_14
REMARK    4  A    between atoms: C_14  and  C_15
REMARK    5  A    between atoms: C_15  and  N_16
REMARK                            x       y       z     vdW  Elec       q    Type
REMARK                         _______ _______ _______ _____ _____    ______ ____
ROOT
ATOM      1  O   UNL     1       5.244   7.202  17.328  0.00  0.00    +0.000 OA
ATOM      2  C   UNL     1       4.652   6.327  17.944  0.00  0.00    +0.000 C 
ATOM      3  N   UNL     1       5.301   5.426  18.771  0.00  0.00    +0.000 N 
ATOM      4  H   UNL     1       4.782   4.625  19.108  0.00  0.00    +0.000 HD
ENDROOT
BRANCH   2   5
ATOM      5  C   UNL     1       3.127   6.178  17.929  0.00  0.00    +0.000 C 
BRANCH   5   6
ATOM      6  C   UNL     1       2.364   7.334  18.541  0.00  0.00    +0.000 A 
ATOM      7  C   UNL     1       1.935   8.414  17.739  0.00  0.00    +0.000 A 
ATOM      8  C   UNL     1       1.248   9.501  18.289  0.00  0.00    +0.000 A 
ATOM      9  C   UNL     1       0.985   9.496  19.647  0.00  0.00    +0.000 A 
ATOM     10  C   UNL     1       1.422   8.444  20.458  0.00  0.00    +0.000 A 
ATOM     11  C   UNL     1       2.120   7.370  19.925  0.00  0.00    +0.000 A 
ATOM     12  C   UNL     1       1.058   8.698  21.889  0.00  0.00    +0.000 C 
ATOM     13  C   UNL     1      -0.047   9.752  21.730  0.00  0.00    +0.000 C 
ATOM     14  C   UNL     1       0.285  10.542  20.457  0.00  0.00    +0.000 C 
ENDBRANCH   5   6
ENDBRANCH   2   5
BRANCH   3  15
ATOM     15  C   UNL     1       6.758   5.386  18.878  0.00  0.00    +0.000 C 
BRANCH  15  16
ATOM     16  C   UNL     1       7.398   4.649  17.696  0.00  0.00    +0.000 C 
BRANCH  16  17
ATOM     17  N   UNL     1       7.607   5.539  16.562  0.00  0.00    +0.000 N 
ATOM     18  C   UNL     1       7.138   5.007  15.364  0.00  0.00    +0.000 A 
ATOM     19  N   UNL     1       6.084   4.179  15.380  0.00  0.00    +0.000 NA
ATOM     20  C   UNL     1       5.693   3.654  14.206  0.00  0.00    +0.000 A 
ATOM     21  C   UNL     1       6.314   3.927  13.016  0.00  0.00    +0.000 A 
ATOM     22  C   UNL     1       7.374   4.796  13.096  0.00  0.00    +0.000 A 
ATOM     23  N   UNL     1       7.806   5.341  14.251  0.00  0.00    +0.000 NA
ATOM     24  H   UNL     1       8.567   5.818  16.382  0.00  0.00    +0.000 HD
ENDBRANCH  16  17
ENDBRANCH  15  16
ENDBRANCH   3  15
TORSDOF 5
ENDMDL
MODEL 5
REMARK VINA RESULT:      -7.6      2.143      3.576
REMARK  Name = 
REMARK  5 active torsions:
REMARK  status: ('A' for Active; 'I' for Inactive)
REMARK    1  A    between atoms: C_2  and  C_3
REMARK    2  A    between atoms: C_3  and  C_4
REMARK    3  A    between atoms: N_13  and  C_14
REMARK    4  A    between atoms: C_14  and  C_15
REMARK    5  A    between atoms: C_15  and  N_16
REMARK                            x       y       z     vdW  Elec       q    Type
REMARK                         _______ _______ _______ _____ _____    ______ ____
ROOT
ATOM      1  O   UNL     1       4.926   6.913  16.758  0.00  0.00    +0.000 OA
ATOM      2  C   UNL     1       4.523   6.138  17.614  0.00  0.00    +0.000 C 
ATOM      3  N   UNL     1       5.378   5.430  18.442  0.00  0.00    +0.000 N 
ATOM      4  H   UNL     1       4.992   4.680  19.002  0.00  0.00    +0.000 HD
ENDROOT
BRANCH   2   5
ATOM      5  C   UNL     1       3.036   5.919  17.913  0.00  0.00    +0.000 C 
BRANCH   5   6
ATOM      6  C   UNL     1       2.386   7.000  18.751  0.00  0.00    +0.000 A 
ATOM      7  C   UNL     1       2.076   6.765  20.108  0.00  0.00    +0.000 A 
ATOM      8  C   UNL     1       1.456   7.743  20.893  0.00  0.00    +0.000 A 
ATOM      9  C   UNL     1       1.155   8.961  20.312  0.00  0.00    +0.000 A 
ATOM     10  C   UNL     1       1.437   9.202  18.964  0.00  0.00    +0.000 A 
ATOM     11  C   UNL     1       2.036   8.232  18.172  0.00  0.00    +0.000 A 
ATOM     12  C   UNL     1       0.973  10.570  18.566  0.00  0.00    +0.000 C 
ATOM     13  C   UNL     1       0.848  11.250  19.937  0.00  0.00    +0.000 C 
ATOM     14  C   UNL     1       0.488  10.144  20.940  0.00  0.00    +0.000 C 
ENDBRANCH   5   6
ENDBRANCH   2   5
BRANCH   3  15
ATOM     15  C   UNL     1       6.829   5.476  18.276  0.00  0.00    +0.000 C 
BRANCH  15  16
ATOM     16  C   UNL     1       7.286   4.716  17.026  0.00  0.00    +0.000 C 
BRANCH  16  17
ATOM     17  N   UNL     1       7.513   5.617  15.905  0.00  0.00    +0.000 N 
ATOM     18  C   UNL     1       7.171   5.052  14.679  0.00  0.00    +0.000 A 
ATOM     19  N   UNL     1       6.182   4.150  14.624  0.00  0.00    +0.000 NA
ATOM     20  C   UNL     1       5.916   3.597  13.428  0.00  0.00    +0.000 A 
ATOM     21  C   UNL     1       6.601   3.914  12.284  0.00  0.00    +0.000 A 
ATOM     22  C   UNL     1       7.586   4.857  12.436  0.00  0.00    +0.000 A 
ATOM     23  N   UNL     1       7.893   5.432  13.616  0.00  0.00    +0.000 NA
ATOM     24  H   UNL     1       8.461   5.965  15.794  0.00  0.00    +0.000 HD
ENDBRANCH  16  17
ENDBRANCH  15  16
ENDBRANCH   3  15
TORSDOF 5
ENDMDL
MODEL 6
REMARK VINA RESULT:      -7.5      4.329      6.453
REMARK  Name = 
REMARK  5 active torsions:
REMARK  status: ('A' for Active; 'I' for Inactive)
REMARK    1  A    between atoms: C_2  and  C_3
REMARK    2  A    between atoms: C_3  and  C_4
REMARK    3  A    between atoms: N_13  and  C_14
REMARK    4  A    between atoms: C_14  and  C_15
REMARK    5  A    between atoms: C_15  and  N_16
REMARK                            x       y       z     vdW  Elec       q    Type
REMARK                         _______ _______ _______ _____ _____    ______ ____
ROOT
ATOM      1  O   UNL     1       7.588   5.562  17.484  0.00  0.00    +0.000 OA
ATOM      2  C   UNL     1       6.846   6.412  17.012  0.00  0.00    +0.000 C 
ATOM      3  N   UNL     1       7.106   7.769  17.112  0.00  0.00    +0.000 N 
ATOM      4  H   UNL     1       6.371   8.418  16.860  0.00  0.00    +0.000 HD
ENDROOT
BRANCH   2   5
ATOM      5  C   UNL     1       5.592   6.072  16.201  0.00  0.00    +0.000 C 
BRANCH   5   6
ATOM      6  C   UNL     1       4.435   5.523  17.009  0.00  0.00    +0.000 A 
ATOM      7  C   UNL     1       3.629   6.386  17.783  0.00  0.00    +0.000 A 
ATOM      8  C   UNL     1       2.569   5.896  18.553  0.00  0.00    +0.000 A 
ATOM      9  C   UNL     1       2.317   4.536  18.539  0.00  0.00    +0.000 A 
ATOM     10  C   UNL     1       3.119   3.666  17.794  0.00  0.00    +0.000 A 
ATOM     11  C   UNL     1       4.184   4.141  17.041  0.00  0.00    +0.000 A 
ATOM     12  C   UNL     1       2.673   2.249  17.982  0.00  0.00    +0.000 C 
ATOM     13  C   UNL     1       1.248   2.456  18.514  0.00  0.00    +0.000 C 
ATOM     14  C   UNL     1       1.259   3.784  19.283  0.00  0.00    +0.000 C 
ENDBRANCH   5   6
ENDBRANCH   2   5
BRANCH   3  15
ATOM     15  C   UNL     1       8.232   8.285  17.887  0.00  0.00    +0.000 C 
BRANCH  15  16
ATOM     16  C   UNL     1       8.140   9.801  18.089  0.00  0.00    +0.000 C 
BRANCH  16  17
ATOM     17  N   UNL     1       9.439  10.442  17.930  0.00  0.00    +0.000 N 
ATOM     18  C   UNL     1       9.748  11.306  18.977  0.00  0.00    +0.000 A 
ATOM     19  N   UNL     1       9.275  11.048  20.204  0.00  0.00    +0.000 NA
ATOM     20  C   UNL     1       9.560  11.933  21.175  0.00  0.00    +0.000 A 
ATOM     21  C   UNL     1      10.303  13.064  20.966  0.00  0.00    +0.000 A 
ATOM     22  C   UNL     1      10.756  13.237  19.682  0.00  0.00    +0.000 A 
ATOM     23  N   UNL     1      10.489  12.381  18.675  0.00  0.00    +0.000 NA
ATOM     24  H   UNL     1       9.571  10.981  17.079  0.00  0.00    +0.000 HD
ENDBRANCH  16  17
ENDBRANCH  15  16
ENDBRANCH   3  15
TORSDOF 5
ENDMDL
MODEL 7
REMARK VINA RESULT:      -7.5      3.661      6.932
REMARK  Name = 
REMARK  5 active torsions:
REMARK  status: ('A' for Active; 'I' for Inactive)
REMARK    1  A    between atoms: C_2  and  C_3
REMARK    2  A    between atoms: C_3  and  C_4
REMARK    3  A    between atoms: N_13  and  C_14
REMARK    4  A    between atoms: C_14  and  C_15
REMARK    5  A    between atoms: C_15  and  N_16
REMARK                            x       y       z     vdW  Elec       q    Type
REMARK                         _______ _______ _______ _____ _____    ______ ____
ROOT
ATOM      1  O   UNL     1       1.315   3.979  17.598  0.00  0.00    +0.000 OA
ATOM      2  C   UNL     1       2.391   3.813  18.156  0.00  0.00    +0.000 C 
ATOM      3  N   UNL     1       2.535   3.871  19.532  0.00  0.00    +0.000 N 
ATOM      4  H   UNL     1       3.472   3.902  19.915  0.00  0.00    +0.000 HD
ENDROOT
BRANCH   2   5
ATOM      5  C   UNL     1       3.677   3.454  17.405  0.00  0.00    +0.000 C 
BRANCH   5   6
ATOM      6  C   UNL     1       4.717   4.553  17.354  0.00  0.00    +0.000 A 
ATOM      7  C   UNL     1       4.657   5.551  16.357  0.00  0.00    +0.000 A 
ATOM      8  C   UNL     1       5.620   6.563  16.281  0.00  0.00    +0.000 A 
ATOM      9  C   UNL     1       6.641   6.573  17.214  0.00  0.00    +0.000 A 
ATOM     10  C   UNL     1       6.726   5.580  18.194  0.00  0.00    +0.000 A 
ATOM     11  C   UNL     1       5.786   4.562  18.267  0.00  0.00    +0.000 A 
ATOM     12  C   UNL     1       7.941   5.785  19.046  0.00  0.00    +0.000 C 
ATOM     13  C   UNL     1       8.258   7.260  18.758  0.00  0.00    +0.000 C 
ATOM     14  C   UNL     1       7.781   7.535  17.325  0.00  0.00    +0.000 C 
ENDBRANCH   5   6
ENDBRANCH   2   5
BRANCH   3  15
ATOM     15  C   UNL     1       1.429   4.244  20.411  0.00  0.00    +0.000 C 
BRANCH  15  16
ATOM     16  C   UNL     1       1.478   5.728  20.792  0.00  0.00    +0.000 C 
BRANCH  16  17
ATOM     17  N   UNL     1       2.516   6.436  20.054  0.00  0.00    +0.000 N 
ATOM     18  C   UNL     1       2.083   7.661  19.555  0.00  0.00    +0.000 A 
ATOM     19  N   UNL     1       1.149   8.351  20.223  0.00  0.00    +0.000 NA
ATOM     20  C   UNL     1       0.729   9.507  19.681  0.00  0.00    +0.000 A 
ATOM     21  C   UNL     1       1.210  10.001  18.498  0.00  0.00    +0.000 A 
ATOM     22  C   UNL     1       2.175   9.234  17.893  0.00  0.00    +0.000 A 
ATOM     23  N   UNL     1       2.621   8.066  18.395  0.00  0.00    +0.000 NA
ATOM     24  H   UNL     1       2.919   5.942  19.263  0.00  0.00    +0.000 HD
ENDBRANCH  16  17
ENDBRANCH  15  16
ENDBRANCH   3  15
TORSDOF 5
ENDMDL
MODEL 8
REMARK VINA RESULT:      -7.4      1.204      2.239
REMARK  Name = 
REMARK  5 active torsions:
REMARK  status: ('A' for Active; 'I' for Inactive)
REMARK    1  A    between atoms: C_2  and  C_3
REMARK    2  A    between atoms: C_3  and  C_4
REMARK    3  A    between atoms: N_13  and  C_14
REMARK    4  A    between atoms: C_14  and  C_15
REMARK    5  A    between atoms: C_15  and  N_16
REMARK                            x       y       z     vdW  Elec       q    Type
REMARK                         _______ _______ _______ _____ _____    ______ ____
ROOT
ATOM      1  O   UNL     1       4.773   6.959  15.948  0.00  0.00    +0.000 OA
ATOM      2  C   UNL     1       4.624   7.006  17.162  0.00  0.00    +0.000 C 
ATOM      3  N   UNL     1       5.688   6.983  18.047  0.00  0.00    +0.000 N 
ATOM      4  H   UNL     1       5.492   6.846  19.030  0.00  0.00    +0.000 HD
ENDROOT
BRANCH   2   5
ATOM      5  C   UNL     1       3.255   7.168  17.831  0.00  0.00    +0.000 C 
BRANCH   5   6
ATOM      6  C   UNL     1       2.680   5.901  18.427  0.00  0.00    +0.000 A 
ATOM      7  C   UNL     1       1.968   4.987  17.619  0.00  0.00    +0.000 A 
ATOM      8  C   UNL     1       1.411   3.821  18.155  0.00  0.00    +0.000 A 
ATOM      9  C   UNL     1       1.577   3.572  19.505  0.00  0.00    +0.000 A 
ATOM     10  C   UNL     1       2.261   4.477  20.322  0.00  0.00    +0.000 A 
ATOM     11  C   UNL     1       2.802   5.645  19.804  0.00  0.00    +0.000 A 
ATOM     12  C   UNL     1       2.261   4.004  21.744  0.00  0.00    +0.000 C 
ATOM     13  C   UNL     1       1.937   2.515  21.560  0.00  0.00    +0.000 C 
ATOM     14  C   UNL     1       1.067   2.411  20.300  0.00  0.00    +0.000 C 
ENDBRANCH   5   6
ENDBRANCH   2   5
BRANCH   3  15
ATOM     15  C   UNL     1       7.065   6.788  17.596  0.00  0.00    +0.000 C 
BRANCH  15  16
ATOM     16  C   UNL     1       7.701   5.543  18.222  0.00  0.00    +0.000 C 
BRANCH  16  17
ATOM     17  N   UNL     1       7.014   4.326  17.809  0.00  0.00    +0.000 N 
ATOM     18  C   UNL     1       6.778   4.278  16.437  0.00  0.00    +0.000 A 
ATOM     19  N   UNL     1       7.634   4.881  15.601  0.00  0.00    +0.000 NA
ATOM     20  C   UNL     1       7.343   4.848  14.290  0.00  0.00    +0.000 A 
ATOM     21  C   UNL     1       6.230   4.233  13.782  0.00  0.00    +0.000 A 
ATOM     22  C   UNL     1       5.419   3.631  14.712  0.00  0.00    +0.000 A 
ATOM     23  N   UNL     1       5.667   3.645  16.037  0.00  0.00    +0.000 NA
ATOM     24  H   UNL     1       6.117   4.146  18.249  0.00  0.00    +0.000 HD
ENDBRANCH  16  17
ENDBRANCH  15  16
ENDBRANCH   3  15
TORSDOF 5
ENDMDL
MODEL 9
REMARK VINA RESULT:      -7.4      4.223      6.510
REMARK  Name = 
REMARK  5 active torsions:
REMARK  status: ('A' for Active; 'I' for Inactive)
REMARK    1  A    between atoms: C_2  and  C_3
REMARK    2  A    between atoms: C_3  and  C_4
REMARK    3  A    between atoms: N_13  and  C_14
REMARK    4  A    between atoms: C_14  and  C_15
REMARK    5  A    between atoms: C_15  and  N_16
REMARK                            x       y       z     vdW  Elec       q    Type
REMARK                         _______ _______ _______ _____ _____    ______ ____
ROOT
ATOM      1  O   UNL     1       7.655   5.425  17.090  0.00  0.00    +0.000 OA
ATOM      2  C   UNL     1       6.795   6.262  16.849  0.00  0.00    +0.000 C 
ATOM      3  N   UNL     1       6.961   7.607  17.132  0.00  0.00    +0.000 N 
ATOM      4  H   UNL     1       6.152   8.213  17.073  0.00  0.00    +0.000 HD
ENDROOT
BRANCH   2   5
ATOM      5  C   UNL     1       5.475   5.927  16.146  0.00  0.00    +0.000 C 
BRANCH   5   6
ATOM      6  C   UNL     1       4.430   5.271  17.023  0.00  0.00    +0.000 A 
ATOM      7  C   UNL     1       3.977   3.964  16.742  0.00  0.00    +0.000 A 
ATOM      8  C   UNL     1       2.997   3.348  17.528  0.00  0.00    +0.000 A 
ATOM      9  C   UNL     1       2.479   4.047  18.603  0.00  0.00    +0.000 A 
ATOM     10  C   UNL     1       2.903   5.349  18.882  0.00  0.00    +0.000 A 
ATOM     11  C   UNL     1       3.861   5.975  18.098  0.00  0.00    +0.000 A 
ATOM     12  C   UNL     1       2.160   5.902  20.060  0.00  0.00    +0.000 C 
ATOM     13  C   UNL     1       1.634   4.614  20.709  0.00  0.00    +0.000 C 
ATOM     14  C   UNL     1       1.425   3.607  19.569  0.00  0.00    +0.000 C 
ENDBRANCH   5   6
ENDBRANCH   2   5
BRANCH   3  15
ATOM     15  C   UNL     1       8.136   8.108  17.842  0.00  0.00    +0.000 C 
BRANCH  15  16
ATOM     16  C   UNL     1       8.037   9.612  18.121  0.00  0.00    +0.000 C 
BRANCH  16  17
ATOM     17  N   UNL     1       9.317  10.278  17.921  0.00  0.00    +0.000 N 
ATOM     18  C   UNL     1       9.655  11.126  18.972  0.00  0.00    +0.000 A 
ATOM     19  N   UNL     1       9.239  10.834  20.212  0.00  0.00    +0.000 NA
ATOM     20  C   UNL     1       9.551  11.704  21.188  0.00  0.00    +0.000 A 
ATOM     21  C   UNL     1      10.265  12.852  20.973  0.00  0.00    +0.000 A 
ATOM     22  C   UNL     1      10.661  13.059  19.674  0.00  0.00    +0.000 A 
ATOM     23  N   UNL     1      10.365  12.219  18.662  0.00  0.00    +0.000 NA
ATOM     24  H   UNL     1       9.404  10.836  17.077  0.00  0.00    +0.000 HD
ENDBRANCH  16  17
ENDBRANCH  15  16
ENDBRANCH   3  15
TORSDOF 5
ENDMDL
