MODEL 1
REMARK VINA RESULT:      -5.9      0.000      0.000
REMARK  Name = 
REMARK  7 active torsions:
REMARK  status: ('A' for Active; 'I' for Inactive)
REMARK    1  A    between atoms: C_1  and  C_2
REMARK    2  A    between atoms: C_2  and  C_3
REMARK    3  A    between atoms: C_6  and  C_7
REMARK    4  A    between atoms: C_6  and  C_9
REMARK    5  A    between atoms: C_7  and  N_8
REMARK    6  A    between atoms: C_9  and  C_10
REMARK    7  A    between atoms: C_10  and  O_12
REMARK                            x       y       z     vdW  Elec       q    Type
REMARK                         _______ _______ _______ _____ _____    ______ ____
ROOT
ATOM      1  C   UNL     1       6.098   4.633  14.893  0.00  0.00    +0.000 C 
ATOM      2  C   UNL     1       5.342   5.901  15.267  0.00  0.00    +0.000 C 
ATOM      3  C   UNL     1       5.854   6.213  16.666  0.00  0.00    +0.000 C 
ATOM      4  C   UNL     1       6.140   4.844  17.344  0.00  0.00    +0.000 C 
ATOM      5  C   UNL     1       5.999   3.811  16.184  0.00  0.00    +0.000 C 
ENDROOT
BRANCH   1   7
ATOM      6  C   UNL     1       6.572   3.718  12.569  0.00  0.00    +0.000 C 
ATOM      7  C   UNL     1       5.533   3.912  13.667  0.00  0.00    +0.000 C 
ENDBRANCH   1   7
BRANCH   4   8
ATOM      8  C   UNL     1       5.104   4.585  18.467  0.00  0.00    +0.000 C 
BRANCH   8   9
ATOM      9  N   UNL     1       5.409   3.392  19.263  0.00  0.00    +0.000 NA
ATOM     10  H   UNL     1       4.544   3.060  19.694  0.00  0.00    +0.000 HD
ATOM     11  H   UNL     1       5.987   3.678  20.061  0.00  0.00    +0.000 HD
ENDBRANCH   8   9
ENDBRANCH   4   8
BRANCH   4  12
ATOM     12  C   UNL     1       7.586   4.808  17.897  0.00  0.00    +0.000 C 
BRANCH  12  13
ATOM     13  C   UNL     1       7.877   5.870  18.939  0.00  0.00    +0.000 C 
ATOM     14  O   UNL     1       8.198   7.017  18.678  0.00  0.00    +0.000 OA
BRANCH  13  15
ATOM     15  O   UNL     1       7.730   5.421  20.206  0.00  0.00    +0.000 OA
ATOM     16  H   UNL     1       8.347   5.852  20.834  0.00  0.00    +0.000 HD
ENDBRANCH  13  15
ENDBRANCH  12  13
ENDBRANCH   4  12
TORSDOF 6
ENDMDL
MODEL 2
REMARK VINA RESULT:      -5.8      2.474      3.986
REMARK  Name = 
REMARK  7 active torsions:
REMARK  status: ('A' for Active; 'I' for Inactive)
REMARK    1  A    between atoms: C_1  and  C_2
REMARK    2  A    between atoms: C_2  and  C_3
REMARK    3  A    between atoms: C_6  and  C_7
REMARK    4  A    between atoms: C_6  and  C_9
REMARK    5  A    between atoms: C_7  and  N_8
REMARK    6  A    between atoms: C_9  and  C_10
REMARK    7  A    between atoms: C_10  and  O_12
REMARK                            x       y       z     vdW  Elec       q    Type
REMARK                         _______ _______ _______ _____ _____    ______ ____
ROOT
ATOM      1  C   UNL     1       3.755   6.162  18.065  0.00  0.00    +0.000 C 
ATOM      2  C   UNL     1       3.713   4.684  17.696  0.00  0.00    +0.000 C 
ATOM      3  C   UNL     1       5.149   4.383  17.293  0.00  0.00    +0.000 C 
ATOM      4  C   UNL     1       5.701   5.681  16.639  0.00  0.00    +0.000 C 
ATOM      5  C   UNL     1       4.603   6.749  16.929  0.00  0.00    +0.000 C 
ENDROOT
BRANCH   1   7
ATOM      6  C   UNL     1       2.395   8.300  17.867  0.00  0.00    +0.000 C 
ATOM      7  C   UNL     1       2.375   6.811  18.192  0.00  0.00    +0.000 C 
ENDBRANCH   1   7
BRANCH   4   8
ATOM      8  C   UNL     1       5.896   5.462  15.117  0.00  0.00    +0.000 C 
BRANCH   8   9
ATOM      9  N   UNL     1       7.287   5.170  14.754  0.00  0.00    +0.000 NA
ATOM     10  H   UNL     1       7.887   5.417  15.543  0.00  0.00    +0.000 HD
ATOM     11  H   UNL     1       7.570   5.824  14.016  0.00  0.00    +0.000 HD
ENDBRANCH   8   9
ENDBRANCH   4   8
BRANCH   4  12
ATOM     12  C   UNL     1       7.027   6.104  17.317  0.00  0.00    +0.000 C 
BRANCH  12  13
ATOM     13  C   UNL     1       7.590   5.072  18.275  0.00  0.00    +0.000 C 
ATOM     14  O   UNL     1       7.464   5.120  19.486  0.00  0.00    +0.000 OA
BRANCH  13  15
ATOM     15  O   UNL     1       8.243   4.070  17.646  0.00  0.00    +0.000 OA
ATOM     16  H   UNL     1       9.032   3.763  18.140  0.00  0.00    +0.000 HD
ENDBRANCH  13  15
ENDBRANCH  12  13
ENDBRANCH   4  12
TORSDOF 6
ENDMDL
MODEL 3
REMARK VINA RESULT:      -5.7      2.743      4.079
REMARK  Name = 
REMARK  7 active torsions:
REMARK  status: ('A' for Active; 'I' for Inactive)
REMARK    1  A    between atoms: C_1  and  C_2
REMARK    2  A    between atoms: C_2  and  C_3
REMARK    3  A    between atoms: C_6  and  C_7
REMARK    4  A    between atoms: C_6  and  C_9
REMARK    5  A    between atoms: C_7  and  N_8
REMARK    6  A    between atoms: C_9  and  C_10
REMARK    7  A    between atoms: C_10  and  O_12
REMARK                            x       y       z     vdW  Elec       q    Type
REMARK                         _______ _______ _______ _____ _____    ______ ____
ROOT
ATOM      1  C   UNL     1       2.985   4.762  17.465  0.00  0.00    +0.000 C 
ATOM      2  C   UNL     1       3.292   6.063  18.194  0.00  0.00    +0.000 C 
ATOM      3  C   UNL     1       4.422   6.667  17.371  0.00  0.00    +0.000 C 
ATOM      4  C   UNL     1       5.252   5.472  16.824  0.00  0.00    +0.000 C 
ATOM      5  C   UNL     1       4.391   4.220  17.174  0.00  0.00    +0.000 C 
ENDROOT
BRANCH   1   7
ATOM      6  C   UNL     1       2.335   2.337  17.867  0.00  0.00    +0.000 C 
ATOM      7  C   UNL     1       2.113   3.792  18.264  0.00  0.00    +0.000 C 
ENDBRANCH   1   7
BRANCH   4   8
ATOM      8  C   UNL     1       6.634   5.428  17.522  0.00  0.00    +0.000 C 
BRANCH   8   9
ATOM      9  N   UNL     1       6.843   4.203  18.301  0.00  0.00    +0.000 NA
ATOM     10  H   UNL     1       6.400   4.319  19.214  0.00  0.00    +0.000 HD
ATOM     11  H   UNL     1       7.842   4.128  18.521  0.00  0.00    +0.000 HD
ENDBRANCH   8   9
ENDBRANCH   4   8
BRANCH   4  12
ATOM     12  C   UNL     1       5.405   5.581  15.287  0.00  0.00    +0.000 C 
BRANCH  12  13
ATOM     13  C   UNL     1       6.603   4.839  14.730  0.00  0.00    +0.000 C 
ATOM     14  O   UNL     1       7.685   5.352  14.504  0.00  0.00    +0.000 OA
BRANCH  13  15
ATOM     15  O   UNL     1       6.357   3.526  14.516  0.00  0.00    +0.000 OA
ATOM     16  H   UNL     1       7.041   2.944  14.910  0.00  0.00    +0.000 HD
ENDBRANCH  13  15
ENDBRANCH  12  13
ENDBRANCH   4  12
TORSDOF 6
ENDMDL
MODEL 4
REMARK VINA RESULT:      -5.7      2.824      4.067
REMARK  Name = 
REMARK  7 active torsions:
REMARK  status: ('A' for Active; 'I' for Inactive)
REMARK    1  A    between atoms: C_1  and  C_2
REMARK    2  A    between atoms: C_2  and  C_3
REMARK    3  A    between atoms: C_6  and  C_7
REMARK    4  A    between atoms: C_6  and  C_9
REMARK    5  A    between atoms: C_7  and  N_8
REMARK    6  A    between atoms: C_9  and  C_10
REMARK    7  A    between atoms: C_10  and  O_12
REMARK                            x       y       z     vdW  Elec       q    Type
REMARK                         _______ _______ _______ _____ _____    ______ ____
ROOT
ATOM      1  C   UNL     1       3.064   3.762  17.192  0.00  0.00    +0.000 C 
ATOM      2  C   UNL     1       2.771   4.900  18.161  0.00  0.00    +0.000 C 
ATOM      3  C   UNL     1       3.723   5.999  17.709  0.00  0.00    +0.000 C 
ATOM      4  C   UNL     1       4.998   5.284  17.181  0.00  0.00    +0.000 C 
ATOM      5  C   UNL     1       4.598   3.777  17.138  0.00  0.00    +0.000 C 
ENDROOT
BRANCH   1   7
ATOM      6  C   UNL     1       3.471   1.581  18.431  0.00  0.00    +0.000 C 
ATOM      7  C   UNL     1       2.484   2.414  17.622  0.00  0.00    +0.000 C 
ENDBRANCH   1   7
BRANCH   4   8
ATOM      8  C   UNL     1       6.181   5.532  18.150  0.00  0.00    +0.000 C 
BRANCH   8   9
ATOM      9  N   UNL     1       7.007   4.339  18.363  0.00  0.00    +0.000 NA
ATOM     10  H   UNL     1       7.892   4.628  18.784  0.00  0.00    +0.000 HD
ATOM     11  H   UNL     1       7.281   3.971  17.446  0.00  0.00    +0.000 HD
ENDBRANCH   8   9
ENDBRANCH   4   8
BRANCH   4  12
ATOM     12  C   UNL     1       5.335   5.771  15.750  0.00  0.00    +0.000 C 
BRANCH  12  13
ATOM     13  C   UNL     1       6.157   4.788  14.939  0.00  0.00    +0.000 C 
ATOM     14  O   UNL     1       5.705   4.084  14.053  0.00  0.00    +0.000 OA
BRANCH  13  15
ATOM     15  O   UNL     1       7.463   4.778  15.289  0.00  0.00    +0.000 OA
ATOM     16  H   UNL     1       7.978   4.096  14.809  0.00  0.00    +0.000 HD
ENDBRANCH  13  15
ENDBRANCH  12  13
ENDBRANCH   4  12
TORSDOF 6
ENDMDL
MODEL 5
REMARK VINA RESULT:      -5.7      2.876      3.572
REMARK  Name = 
REMARK  7 active torsions:
REMARK  status: ('A' for Active; 'I' for Inactive)
REMARK    1  A    between atoms: C_1  and  C_2
REMARK    2  A    between atoms: C_2  and  C_3
REMARK    3  A    between atoms: C_6  and  C_7
REMARK    4  A    between atoms: C_6  and  C_9
REMARK    5  A    between atoms: C_7  and  N_8
REMARK    6  A    between atoms: C_9  and  C_10
REMARK    7  A    between atoms: C_10  and  O_12
REMARK                            x       y       z     vdW  Elec       q    Type
REMARK                         _______ _______ _______ _____ _____    ______ ____
ROOT
ATOM      1  C   UNL     1       5.312   4.600  16.332  0.00  0.00    +0.000 C 
ATOM      2  C   UNL     1       4.927   6.072  16.391  0.00  0.00    +0.000 C 
ATOM      3  C   UNL     1       4.287   6.211  17.765  0.00  0.00    +0.000 C 
ATOM      4  C   UNL     1       3.576   4.860  18.055  0.00  0.00    +0.000 C 
ATOM      5  C   UNL     1       4.064   3.921  16.910  0.00  0.00    +0.000 C 
ENDROOT
BRANCH   1   7
ATOM      6  C   UNL     1       6.934   4.775  14.383  0.00  0.00    +0.000 C 
ATOM      7  C   UNL     1       5.678   4.108  14.930  0.00  0.00    +0.000 C 
ENDBRANCH   1   7
BRANCH   4   8
ATOM      8  C   UNL     1       2.039   5.054  18.017  0.00  0.00    +0.000 C 
BRANCH   8   9
ATOM      9  N   UNL     1       1.332   3.917  17.419  0.00  0.00    +0.000 NA
ATOM     10  H   UNL     1       0.650   3.567  18.095  0.00  0.00    +0.000 HD
ATOM     11  H   UNL     1       1.997   3.143  17.318  0.00  0.00    +0.000 HD
ENDBRANCH   8   9
ENDBRANCH   4   8
BRANCH   4  12
ATOM     12  C   UNL     1       4.034   4.292  19.421  0.00  0.00    +0.000 C 
BRANCH  12  13
ATOM     13  C   UNL     1       3.938   2.783  19.528  0.00  0.00    +0.000 C 
ATOM     14  O   UNL     1       2.896   2.155  19.455  0.00  0.00    +0.000 OA
BRANCH  13  15
ATOM     15  O   UNL     1       5.141   2.189  19.702  0.00  0.00    +0.000 OA
ATOM     16  H   UNL     1       5.885   2.740  19.380  0.00  0.00    +0.000 HD
ENDBRANCH  13  15
ENDBRANCH  12  13
ENDBRANCH   4  12
TORSDOF 6
ENDMDL
MODEL 6
REMARK VINA RESULT:      -5.6      2.833      4.299
REMARK  Name = 
REMARK  7 active torsions:
REMARK  status: ('A' for Active; 'I' for Inactive)
REMARK    1  A    between atoms: C_1  and  C_2
REMARK    2  A    between atoms: C_2  and  C_3
REMARK    3  A    between atoms: C_6  and  C_7
REMARK    4  A    between atoms: C_6  and  C_9
REMARK    5  A    between atoms: C_7  and  N_8
REMARK    6  A    between atoms: C_9  and  C_10
REMARK    7  A    between atoms: C_10  and  O_12
REMARK                            x       y       z     vdW  Elec       q    Type
REMARK                         _______ _______ _______ _____ _____    ______ ____
ROOT
ATOM      1  C   UNL     1       2.315   4.495  17.553  0.00  0.00    +0.000 C 
ATOM      2  C   UNL     1       2.550   5.776  18.342  0.00  0.00    +0.000 C 
ATOM      3  C   UNL     1       3.809   6.351  17.708  0.00  0.00    +0.000 C 
ATOM      4  C   UNL     1       4.674   5.135  17.272  0.00  0.00    +0.000 C 
ATOM      5  C   UNL     1       3.731   3.909  17.469  0.00  0.00    +0.000 C 
ENDROOT
BRANCH   1   7
ATOM      6  C   UNL     1       1.643   3.216  19.645  0.00  0.00    +0.000 C 
ATOM      7  C   UNL     1       1.302   3.546  18.197  0.00  0.00    +0.000 C 
ENDBRANCH   1   7
BRANCH   4   8
ATOM      8  C   UNL     1       5.933   5.035  18.169  0.00  0.00    +0.000 C 
BRANCH   8   9
ATOM      9  N   UNL     1       5.889   3.898  19.094  0.00  0.00    +0.000 NA
ATOM     10  H   UNL     1       6.283   4.193  19.990  0.00  0.00    +0.000 HD
ATOM     11  H   UNL     1       6.547   3.186  18.760  0.00  0.00    +0.000 HD
ENDBRANCH   8   9
ENDBRANCH   4   8
BRANCH   4  12
ATOM     12  C   UNL     1       5.061   5.256  15.778  0.00  0.00    +0.000 C 
BRANCH  12  13
ATOM     13  C   UNL     1       6.395   4.626  15.430  0.00  0.00    +0.000 C 
ATOM     14  O   UNL     1       7.422   5.254  15.242  0.00  0.00    +0.000 OA
BRANCH  13  15
ATOM     15  O   UNL     1       6.338   3.277  15.361  0.00  0.00    +0.000 OA
ATOM     16  H   UNL     1       6.080   2.865  16.212  0.00  0.00    +0.000 HD
ENDBRANCH  13  15
ENDBRANCH  12  13
ENDBRANCH   4  12
TORSDOF 6
ENDMDL
MODEL 7
REMARK VINA RESULT:      -5.6      2.831      4.439
REMARK  Name = 
REMARK  7 active torsions:
REMARK  status: ('A' for Active; 'I' for Inactive)
REMARK    1  A    between atoms: C_1  and  C_2
REMARK    2  A    between atoms: C_2  and  C_3
REMARK    3  A    between atoms: C_6  and  C_7
REMARK    4  A    between atoms: C_6  and  C_9
REMARK    5  A    between atoms: C_7  and  N_8
REMARK    6  A    between atoms: C_9  and  C_10
REMARK    7  A    between atoms: C_10  and  O_12
REMARK                            x       y       z     vdW  Elec       q    Type
REMARK                         _______ _______ _______ _____ _____    ______ ____
ROOT
ATOM      1  C   UNL     1       2.107   4.035  17.615  0.00  0.00    +0.000 C 
ATOM      2  C   UNL     1       2.372   5.379  18.279  0.00  0.00    +0.000 C 
ATOM      3  C   UNL     1       3.691   5.821  17.660  0.00  0.00    +0.000 C 
ATOM      4  C   UNL     1       4.508   4.526  17.399  0.00  0.00    +0.000 C 
ATOM      5  C   UNL     1       3.491   3.375  17.668  0.00  0.00    +0.000 C 
ENDROOT
BRANCH   1   7
ATOM      6  C   UNL     1       1.043   3.334  19.814  0.00  0.00    +0.000 C 
ATOM      7  C   UNL     1       1.013   3.210  18.295  0.00  0.00    +0.000 C 
ENDBRANCH   1   7
BRANCH   4   8
ATOM      8  C   UNL     1       5.714   4.459  18.369  0.00  0.00    +0.000 C 
BRANCH   8   9
ATOM      9  N   UNL     1       5.540   3.464  19.432  0.00  0.00    +0.000 NA
ATOM     10  H   UNL     1       6.389   3.444  20.000  0.00  0.00    +0.000 HD
ATOM     11  H   UNL     1       5.512   2.534  19.000  0.00  0.00    +0.000 HD
ENDBRANCH   8   9
ENDBRANCH   4   8
BRANCH   4  12
ATOM     12  C   UNL     1       4.974   4.470  15.923  0.00  0.00    +0.000 C 
BRANCH  12  13
ATOM     13  C   UNL     1       5.775   5.680  15.481  0.00  0.00    +0.000 C 
ATOM     14  O   UNL     1       5.289   6.767  15.224  0.00  0.00    +0.000 OA
BRANCH  13  15
ATOM     15  O   UNL     1       7.103   5.435  15.411  0.00  0.00    +0.000 OA
ATOM     16  H   UNL     1       7.314   4.640  14.878  0.00  0.00    +0.000 HD
ENDBRANCH  13  15
ENDBRANCH  12  13
ENDBRANCH   4  12
TORSDOF 6
ENDMDL
MODEL 8
REMARK VINA RESULT:      -5.6      2.519      4.249
REMARK  Name = 
REMARK  7 active torsions:
REMARK  status: ('A' for Active; 'I' for Inactive)
REMARK    1  A    between atoms: C_1  and  C_2
REMARK    2  A    between atoms: C_2  and  C_3
REMARK    3  A    between atoms: C_6  and  C_7
REMARK    4  A    between atoms: C_6  and  C_9
REMARK    5  A    between atoms: C_7  and  N_8
REMARK    6  A    between atoms: C_9  and  C_10
REMARK    7  A    between atoms: C_10  and  O_12
REMARK                            x       y       z     vdW  Elec       q    Type
REMARK                         _______ _______ _______ _____ _____    ______ ____
ROOT
ATOM      1  C   UNL     1       2.991   3.858  18.420  0.00  0.00    +0.000 C 
ATOM      2  C   UNL     1       2.705   5.347  18.277  0.00  0.00    +0.000 C 
ATOM      3  C   UNL     1       3.845   5.839  17.396  0.00  0.00    +0.000 C 
ATOM      4  C   UNL     1       5.082   4.970  17.755  0.00  0.00    +0.000 C 
ATOM      5  C   UNL     1       4.505   3.847  18.670  0.00  0.00    +0.000 C 
ENDROOT
BRANCH   1   7
ATOM      6  C   UNL     1       1.131   4.088  20.137  0.00  0.00    +0.000 C 
ATOM      7  C   UNL     1       2.187   3.174  19.528  0.00  0.00    +0.000 C 
ENDBRANCH   1   7
BRANCH   4   8
ATOM      8  C   UNL     1       6.132   5.831  18.502  0.00  0.00    +0.000 C 
BRANCH   8   9
ATOM      9  N   UNL     1       6.665   5.173  19.699  0.00  0.00    +0.000 NA
ATOM     10  H   UNL     1       6.090   5.439  20.500  0.00  0.00    +0.000 HD
ATOM     11  H   UNL     1       7.582   5.582  19.909  0.00  0.00    +0.000 HD
ENDBRANCH   8   9
ENDBRANCH   4   8
BRANCH   4  12
ATOM     12  C   UNL     1       5.686   4.338  16.477  0.00  0.00    +0.000 C 
BRANCH  12  13
ATOM     13  C   UNL     1       7.130   4.721  16.219  0.00  0.00    +0.000 C 
ATOM     14  O   UNL     1       7.488   5.519  15.370  0.00  0.00    +0.000 OA
BRANCH  13  15
ATOM     15  O   UNL     1       7.997   4.093  17.045  0.00  0.00    +0.000 OA
ATOM     16  H   UNL     1       7.913   4.387  17.977  0.00  0.00    +0.000 HD
ENDBRANCH  13  15
ENDBRANCH  12  13
ENDBRANCH   4  12
TORSDOF 6
ENDMDL
MODEL 9
REMARK VINA RESULT:      -5.5      3.577      5.005
REMARK  Name = 
REMARK  7 active torsions:
REMARK  status: ('A' for Active; 'I' for Inactive)
REMARK    1  A    between atoms: C_1  and  C_2
REMARK    2  A    between atoms: C_2  and  C_3
REMARK    3  A    between atoms: C_6  and  C_7
REMARK    4  A    between atoms: C_6  and  C_9
REMARK    5  A    between atoms: C_7  and  N_8
REMARK    6  A    between atoms: C_9  and  C_10
REMARK    7  A    between atoms: C_10  and  O_12
REMARK                            x       y       z     vdW  Elec       q    Type
REMARK                         _______ _______ _______ _____ _____    ______ ____
ROOT
ATOM      1  C   UNL     1       5.360   4.905  18.399  0.00  0.00    +0.000 C 
ATOM      2  C   UNL     1       4.492   4.854  17.148  0.00  0.00    +0.000 C 
ATOM      3  C   UNL     1       3.108   4.535  17.696  0.00  0.00    +0.000 C 
ATOM      4  C   UNL     1       3.328   3.628  18.938  0.00  0.00    +0.000 C 
ATOM      5  C   UNL     1       4.868   3.679  19.178  0.00  0.00    +0.000 C 
ENDROOT
BRANCH   1   7
ATOM      6  C   UNL     1       7.554   6.184  18.501  0.00  0.00    +0.000 C 
ATOM      7  C   UNL     1       6.863   4.882  18.114  0.00  0.00    +0.000 C 
ENDBRANCH   1   7
BRANCH   4   8
ATOM      8  C   UNL     1       2.846   2.188  18.631  0.00  0.00    +0.000 C 
BRANCH   8   9
ATOM      9  N   UNL     1       3.950   1.242  18.439  0.00  0.00    +0.000 NA
ATOM     10  H   UNL     1       4.767   1.761  18.111  0.00  0.00    +0.000 HD
ATOM     11  H   UNL     1       3.715   0.630  17.651  0.00  0.00    +0.000 HD
ENDBRANCH   8   9
ENDBRANCH   4   8
BRANCH   4  12
ATOM     12  C   UNL     1       2.593   4.213  20.169  0.00  0.00    +0.000 C 
BRANCH  12  13
ATOM     13  C   UNL     1       2.098   3.168  21.150  0.00  0.00    +0.000 C 
ATOM     14  O   UNL     1       2.811   2.581  21.945  0.00  0.00    +0.000 OA
BRANCH  13  15
ATOM     15  O   UNL     1       0.765   2.956  21.066  0.00  0.00    +0.000 OA
ATOM     16  H   UNL     1       0.247   3.585  21.611  0.00  0.00    +0.000 HD
ENDBRANCH  13  15
ENDBRANCH  12  13
ENDBRANCH   4  12
TORSDOF 6
ENDMDL
