MODEL 1
REMARK VINA RESULT:      -7.4      0.000      0.000
REMARK  Name = 
REMARK  3 active torsions:
REMARK  status: ('A' for Active; 'I' for Inactive)
REMARK    1  A    between atoms: N_1  and  C_2
REMARK    2  A    between atoms: C_5  and  C_6
REMARK    3  A    between atoms: C_11  and  C_12
REMARK                            x       y       z     vdW  Elec       q    Type
REMARK                         _______ _______ _______ _____ _____    ______ ____
ROOT
ATOM      1  C   UNL     1       3.319   6.674  18.016  0.00  0.00    +0.000 A 
ATOM      2  N   UNL     1       2.827   7.867  17.743  0.00  0.00    +0.000 NA
ATOM      3  C   UNL     1       2.086   8.339  18.810  0.00  0.00    +0.000 A 
ATOM      4  C   UNL     1       1.381   9.559  18.855  0.00  0.00    +0.000 A 
ATOM      5  C   UNL     1       0.661   9.910  20.004  0.00  0.00    +0.000 A 
ATOM      6  C   UNL     1       0.635   9.066  21.121  0.00  0.00    +0.000 A 
ATOM      7  C   UNL     1       1.339   7.848  21.091  0.00  0.00    +0.000 A 
ATOM      8  C   UNL     1       2.049   7.506  19.927  0.00  0.00    +0.000 A 
ATOM      9  S   UNL     1       2.974   6.096  19.601  0.00  0.00    +0.000 S 
ENDROOT
BRANCH   1  13
ATOM     10  C   UNL     1       5.733   4.299  15.356  0.00  0.00    +0.000 A 
ATOM     11  C   UNL     1       4.884   3.703  16.290  0.00  0.00    +0.000 A 
ATOM     12  C   UNL     1       4.117   4.485  17.162  0.00  0.00    +0.000 A 
ATOM     13  C   UNL     1       4.139   5.885  17.082  0.00  0.00    +0.000 A 
ATOM     14  C   UNL     1       4.957   6.476  16.109  0.00  0.00    +0.000 A 
ATOM     15  C   UNL     1       5.726   5.689  15.243  0.00  0.00    +0.000 A 
BRANCH  10  16
ATOM     16  N   UNL     1       6.398   3.519  14.405  0.00  0.00    +0.000 N 
ATOM     17  H   UNL     1       6.970   4.058  13.761  0.00  0.00    +0.000 HD
ATOM     18  H   UNL     1       5.798   2.857  13.924  0.00  0.00    +0.000 HD
ENDBRANCH  10  16
ENDBRANCH   1  13
BRANCH   6  19
ATOM     19  C   UNL     1      -0.143   9.440  22.362  0.00  0.00    +0.000 C 
ATOM     20  F   UNL     1      -0.785  10.636  22.265  0.00  0.00    +0.000 F 
ATOM     21  F   UNL     1      -1.104   8.524  22.667  0.00  0.00    +0.000 F 
ATOM     22  F   UNL     1       0.652   9.530  23.464  0.00  0.00    +0.000 F 
ENDBRANCH   6  19
TORSDOF 3
ENDMDL
MODEL 2
REMARK VINA RESULT:      -7.3      0.086      1.077
REMARK  Name = 
REMARK  3 active torsions:
REMARK  status: ('A' for Active; 'I' for Inactive)
REMARK    1  A    between atoms: N_1  and  C_2
REMARK    2  A    between atoms: C_5  and  C_6
REMARK    3  A    between atoms: C_11  and  C_12
REMARK                            x       y       z     vdW  Elec       q    Type
REMARK                         _______ _______ _______ _____ _____    ______ ____
ROOT
ATOM      1  C   UNL     1       3.269   6.644  18.071  0.00  0.00    +0.000 A 
ATOM      2  N   UNL     1       2.802   7.846  17.797  0.00  0.00    +0.000 NA
ATOM      3  C   UNL     1       2.071   8.335  18.864  0.00  0.00    +0.000 A 
ATOM      4  C   UNL     1       1.392   9.569  18.907  0.00  0.00    +0.000 A 
ATOM      5  C   UNL     1       0.679   9.936  20.056  0.00  0.00    +0.000 A 
ATOM      6  C   UNL     1       0.635   9.094  21.174  0.00  0.00    +0.000 A 
ATOM      7  C   UNL     1       1.314   7.861  21.144  0.00  0.00    +0.000 A 
ATOM      8  C   UNL     1       2.016   7.504  19.981  0.00  0.00    +0.000 A 
ATOM      9  S   UNL     1       2.913   6.075  19.657  0.00  0.00    +0.000 S 
ENDROOT
BRANCH   1  13
ATOM     10  C   UNL     1       5.605   4.350  15.273  0.00  0.00    +0.000 A 
ATOM     11  C   UNL     1       5.636   5.746  15.269  0.00  0.00    +0.000 A 
ATOM     12  C   UNL     1       4.859   6.482  16.172  0.00  0.00    +0.000 A 
ATOM     13  C   UNL     1       4.073   5.837  17.138  0.00  0.00    +0.000 A 
ATOM     14  C   UNL     1       4.085   4.436  17.168  0.00  0.00    +0.000 A 
ATOM     15  C   UNL     1       4.860   3.705  16.259  0.00  0.00    +0.000 A 
BRANCH  10  16
ATOM     16  N   UNL     1       6.476   3.620  14.458  0.00  0.00    +0.000 N 
ATOM     17  H   UNL     1       6.376   2.613  14.550  0.00  0.00    +0.000 HD
ATOM     18  H   UNL     1       7.444   3.917  14.522  0.00  0.00    +0.000 HD
ENDBRANCH  10  16
ENDBRANCH   1  13
BRANCH   6  19
ATOM     19  C   UNL     1      -0.135   9.485  22.414  0.00  0.00    +0.000 C 
ATOM     20  F   UNL     1      -0.752  10.694  22.316  0.00  0.00    +0.000 F 
ATOM     21  F   UNL     1      -1.115   8.590  22.719  0.00  0.00    +0.000 F 
ATOM     22  F   UNL     1       0.661   9.559  23.517  0.00  0.00    +0.000 F 
ENDBRANCH   6  19
TORSDOF 3
ENDMDL
MODEL 3
REMARK VINA RESULT:      -6.9      4.810      8.015
REMARK  Name = 
REMARK  3 active torsions:
REMARK  status: ('A' for Active; 'I' for Inactive)
REMARK    1  A    between atoms: N_1  and  C_2
REMARK    2  A    between atoms: C_5  and  C_6
REMARK    3  A    between atoms: C_11  and  C_12
REMARK                            x       y       z     vdW  Elec       q    Type
REMARK                         _______ _______ _______ _____ _____    ______ ____
ROOT
ATOM      1  C   UNL     1       2.255   7.694  19.378  0.00  0.00    +0.000 A 
ATOM      2  N   UNL     1       2.651   6.505  19.789  0.00  0.00    +0.000 NA
ATOM      3  C   UNL     1       3.457   5.908  18.836  0.00  0.00    +0.000 A 
ATOM      4  C   UNL     1       4.023   4.620  18.919  0.00  0.00    +0.000 A 
ATOM      5  C   UNL     1       4.817   4.137  17.872  0.00  0.00    +0.000 A 
ATOM      6  C   UNL     1       5.066   4.919  16.737  0.00  0.00    +0.000 A 
ATOM      7  C   UNL     1       4.510   6.209  16.646  0.00  0.00    +0.000 A 
ATOM      8  C   UNL     1       3.709   6.676  17.701  0.00  0.00    +0.000 A 
ATOM      9  S   UNL     1       2.897   8.182  17.856  0.00  0.00    +0.000 S 
ENDROOT
BRANCH   1  13
ATOM     10  C   UNL     1      -0.359  10.218  21.688  0.00  0.00    +0.000 A 
ATOM     11  C   UNL     1       0.364   9.184  22.286  0.00  0.00    +0.000 A 
ATOM     12  C   UNL     1       1.197   8.358  21.522  0.00  0.00    +0.000 A 
ATOM     13  C   UNL     1       1.371   8.583  20.148  0.00  0.00    +0.000 A 
ATOM     14  C   UNL     1       0.680   9.653  19.564  0.00  0.00    +0.000 A 
ATOM     15  C   UNL     1      -0.157  10.473  20.332  0.00  0.00    +0.000 A 
BRANCH  10  16
ATOM     16  N   UNL     1      -1.089  11.118  22.471  0.00  0.00    +0.000 N 
ATOM     17  H   UNL     1      -0.844  12.091  22.314  0.00  0.00    +0.000 HD
ATOM     18  H   UNL     1      -1.108  10.882  23.458  0.00  0.00    +0.000 HD
ENDBRANCH  10  16
ENDBRANCH   1  13
BRANCH   6  19
ATOM     19  C   UNL     1       5.921   4.400  15.604  0.00  0.00    +0.000 C 
ATOM     20  F   UNL     1       7.223   4.791  15.678  0.00  0.00    +0.000 F 
ATOM     21  F   UNL     1       5.943   3.039  15.554  0.00  0.00    +0.000 F 
ATOM     22  F   UNL     1       5.474   4.812  14.386  0.00  0.00    +0.000 F 
ENDBRANCH   6  19
TORSDOF 3
ENDMDL
MODEL 4
REMARK VINA RESULT:      -6.9      1.434      2.058
REMARK  Name = 
REMARK  3 active torsions:
REMARK  status: ('A' for Active; 'I' for Inactive)
REMARK    1  A    between atoms: N_1  and  C_2
REMARK    2  A    between atoms: C_5  and  C_6
REMARK    3  A    between atoms: C_11  and  C_12
REMARK                            x       y       z     vdW  Elec       q    Type
REMARK                         _______ _______ _______ _____ _____    ______ ____
ROOT
ATOM      1  C   UNL     1       2.861   7.057  18.466  0.00  0.00    +0.000 A 
ATOM      2  N   UNL     1       2.456   6.841  19.703  0.00  0.00    +0.000 NA
ATOM      3  C   UNL     1       1.687   7.900  20.151  0.00  0.00    +0.000 A 
ATOM      4  C   UNL     1       1.123   8.028  21.436  0.00  0.00    +0.000 A 
ATOM      5  C   UNL     1       0.369   9.164  21.759  0.00  0.00    +0.000 A 
ATOM      6  C   UNL     1       0.157  10.178  20.816  0.00  0.00    +0.000 A 
ATOM      7  C   UNL     1       0.710  10.058  19.528  0.00  0.00    +0.000 A 
ATOM      8  C   UNL     1       1.472   8.918  19.223  0.00  0.00    +0.000 A 
ATOM      9  S   UNL     1       2.272   8.512  17.757  0.00  0.00    +0.000 S 
ENDROOT
BRANCH   1  13
ATOM     10  C   UNL     1       5.348   4.286  16.304  0.00  0.00    +0.000 A 
ATOM     11  C   UNL     1       4.266   3.844  17.066  0.00  0.00    +0.000 A 
ATOM     12  C   UNL     1       3.474   4.753  17.780  0.00  0.00    +0.000 A 
ATOM     13  C   UNL     1       3.714   6.133  17.702  0.00  0.00    +0.000 A 
ATOM     14  C   UNL     1       4.772   6.573  16.895  0.00  0.00    +0.000 A 
ATOM     15  C   UNL     1       5.563   5.659  16.188  0.00  0.00    +0.000 A 
BRANCH  10  16
ATOM     16  N   UNL     1       6.055   3.393  15.493  0.00  0.00    +0.000 N 
ATOM     17  H   UNL     1       5.486   2.946  14.780  0.00  0.00    +0.000 HD
ATOM     18  H   UNL     1       6.616   2.724  16.011  0.00  0.00    +0.000 HD
ENDBRANCH  10  16
ENDBRANCH   1  13
BRANCH   6  19
ATOM     19  C   UNL     1      -0.655  11.406  21.161  0.00  0.00    +0.000 C 
ATOM     20  F   UNL     1       0.100  12.518  21.379  0.00  0.00    +0.000 F 
ATOM     21  F   UNL     1      -1.533  11.738  20.176  0.00  0.00    +0.000 F 
ATOM     22  F   UNL     1      -1.401  11.234  22.287  0.00  0.00    +0.000 F 
ENDBRANCH   6  19
TORSDOF 3
ENDMDL
MODEL 5
REMARK VINA RESULT:      -6.9      1.597      2.581
REMARK  Name = 
REMARK  3 active torsions:
REMARK  status: ('A' for Active; 'I' for Inactive)
REMARK    1  A    between atoms: N_1  and  C_2
REMARK    2  A    between atoms: C_5  and  C_6
REMARK    3  A    between atoms: C_11  and  C_12
REMARK                            x       y       z     vdW  Elec       q    Type
REMARK                         _______ _______ _______ _____ _____    ______ ____
ROOT
ATOM      1  C   UNL     1       2.624   7.235  18.648  0.00  0.00    +0.000 A 
ATOM      2  N   UNL     1       2.265   7.084  19.907  0.00  0.00    +0.000 NA
ATOM      3  C   UNL     1       1.527   8.172  20.333  0.00  0.00    +0.000 A 
ATOM      4  C   UNL     1       1.015   8.369  21.632  0.00  0.00    +0.000 A 
ATOM      5  C   UNL     1       0.287   9.529  21.928  0.00  0.00    +0.000 A 
ATOM      6  C   UNL     1       0.051  10.500  20.948  0.00  0.00    +0.000 A 
ATOM      7  C   UNL     1       0.552  10.312  19.646  0.00  0.00    +0.000 A 
ATOM      8  C   UNL     1       1.288   9.148  19.367  0.00  0.00    +0.000 A 
ATOM      9  S   UNL     1       2.025   8.663  17.893  0.00  0.00    +0.000 S 
ENDROOT
BRANCH   1  13
ATOM     10  C   UNL     1       5.016   4.462  16.382  0.00  0.00    +0.000 A 
ATOM     11  C   UNL     1       5.350   5.815  16.454  0.00  0.00    +0.000 A 
ATOM     12  C   UNL     1       4.555   6.712  17.179  0.00  0.00    +0.000 A 
ATOM     13  C   UNL     1       3.436   6.264  17.897  0.00  0.00    +0.000 A 
ATOM     14  C   UNL     1       3.135   4.895  17.860  0.00  0.00    +0.000 A 
ATOM     15  C   UNL     1       3.930   4.005  17.129  0.00  0.00    +0.000 A 
BRANCH  10  16
ATOM     16  N   UNL     1       5.879   3.551  15.765  0.00  0.00    +0.000 N 
ATOM     17  H   UNL     1       5.492   2.616  15.674  0.00  0.00    +0.000 HD
ATOM     18  H   UNL     1       6.815   3.542  16.157  0.00  0.00    +0.000 HD
ENDBRANCH  10  16
ENDBRANCH   1  13
BRANCH   6  19
ATOM     19  C   UNL     1      -0.732  11.753  21.264  0.00  0.00    +0.000 C 
ATOM     20  F   UNL     1      -1.150  11.825  22.558  0.00  0.00    +0.000 F 
ATOM     21  F   UNL     1      -0.008  12.886  21.044  0.00  0.00    +0.000 F 
ATOM     22  F   UNL     1      -1.853  11.871  20.501  0.00  0.00    +0.000 F 
ENDBRANCH   6  19
TORSDOF 3
ENDMDL
MODEL 6
REMARK VINA RESULT:      -6.9      1.353      2.201
REMARK  Name = 
REMARK  3 active torsions:
REMARK  status: ('A' for Active; 'I' for Inactive)
REMARK    1  A    between atoms: N_1  and  C_2
REMARK    2  A    between atoms: C_5  and  C_6
REMARK    3  A    between atoms: C_11  and  C_12
REMARK                            x       y       z     vdW  Elec       q    Type
REMARK                         _______ _______ _______ _____ _____    ______ ____
ROOT
ATOM      1  C   UNL     1       2.867   7.020  18.408  0.00  0.00    +0.000 A 
ATOM      2  N   UNL     1       2.467   6.748  19.635  0.00  0.00    +0.000 NA
ATOM      3  C   UNL     1       1.733   7.802  20.148  0.00  0.00    +0.000 A 
ATOM      4  C   UNL     1       1.186   7.876  21.445  0.00  0.00    +0.000 A 
ATOM      5  C   UNL     1       0.468   9.013  21.837  0.00  0.00    +0.000 A 
ATOM      6  C   UNL     1       0.277  10.083  20.954  0.00  0.00    +0.000 A 
ATOM      7  C   UNL     1       0.814  10.018  19.656  0.00  0.00    +0.000 A 
ATOM      8  C   UNL     1       1.540   8.875  19.280  0.00  0.00    +0.000 A 
ATOM      9  S   UNL     1       2.314   8.528  17.786  0.00  0.00    +0.000 S 
ENDROOT
BRANCH   1  13
ATOM     10  C   UNL     1       5.263   4.439  15.930  0.00  0.00    +0.000 A 
ATOM     11  C   UNL     1       5.457   5.822  15.936  0.00  0.00    +0.000 A 
ATOM     12  C   UNL     1       4.660   6.653  16.733  0.00  0.00    +0.000 A 
ATOM     13  C   UNL     1       3.685   6.115  17.585  0.00  0.00    +0.000 A 
ATOM     14  C   UNL     1       3.529   4.722  17.610  0.00  0.00    +0.000 A 
ATOM     15  C   UNL     1       4.325   3.896  16.807  0.00  0.00    +0.000 A 
BRANCH  10  16
ATOM     16  N   UNL     1       6.141   3.604  15.233  0.00  0.00    +0.000 N 
ATOM     17  H   UNL     1       6.615   4.060  14.460  0.00  0.00    +0.000 HD
ATOM     18  H   UNL     1       5.735   2.714  14.963  0.00  0.00    +0.000 HD
ENDBRANCH  10  16
ENDBRANCH   1  13
BRANCH   6  19
ATOM     19  C   UNL     1      -0.496  11.312  21.375  0.00  0.00    +0.000 C 
ATOM     20  F   UNL     1      -1.428  11.710  20.465  0.00  0.00    +0.000 F 
ATOM     21  F   UNL     1      -1.170  11.125  22.543  0.00  0.00    +0.000 F 
ATOM     22  F   UNL     1       0.313  12.389  21.578  0.00  0.00    +0.000 F 
ENDBRANCH   6  19
TORSDOF 3
ENDMDL
MODEL 7
REMARK VINA RESULT:      -6.9      4.811      8.070
REMARK  Name = 
REMARK  3 active torsions:
REMARK  status: ('A' for Active; 'I' for Inactive)
REMARK    1  A    between atoms: N_1  and  C_2
REMARK    2  A    between atoms: C_5  and  C_6
REMARK    3  A    between atoms: C_11  and  C_12
REMARK                            x       y       z     vdW  Elec       q    Type
REMARK                         _______ _______ _______ _____ _____    ______ ____
ROOT
ATOM      1  C   UNL     1       2.233   7.641  19.382  0.00  0.00    +0.000 A 
ATOM      2  N   UNL     1       2.564   6.412  19.726  0.00  0.00    +0.000 NA
ATOM      3  C   UNL     1       3.360   5.836  18.753  0.00  0.00    +0.000 A 
ATOM      4  C   UNL     1       3.864   4.520  18.768  0.00  0.00    +0.000 A 
ATOM      5  C   UNL     1       4.656   4.062  17.707  0.00  0.00    +0.000 A 
ATOM      6  C   UNL     1       4.963   4.898  16.626  0.00  0.00    +0.000 A 
ATOM      7  C   UNL     1       4.470   6.216  16.604  0.00  0.00    +0.000 A 
ATOM      8  C   UNL     1       3.670   6.657  17.671  0.00  0.00    +0.000 A 
ATOM      9  S   UNL     1       2.926   8.188  17.903  0.00  0.00    +0.000 S 
ENDROOT
BRANCH   1  13
ATOM     10  C   UNL     1      -0.244  10.300  21.693  0.00  0.00    +0.000 A 
ATOM     11  C   UNL     1      -0.044  10.502  20.326  0.00  0.00    +0.000 A 
ATOM     12  C   UNL     1       0.778   9.641  19.588  0.00  0.00    +0.000 A 
ATOM     13  C   UNL     1       1.375   8.524  20.189  0.00  0.00    +0.000 A 
ATOM     14  C   UNL     1       1.129   8.299  21.551  0.00  0.00    +0.000 A 
ATOM     15  C   UNL     1       0.311   9.166  22.286  0.00  0.00    +0.000 A 
BRANCH  10  16
ATOM     16  N   UNL     1      -1.164  11.083  22.397  0.00  0.00    +0.000 N 
ATOM     17  H   UNL     1      -0.799  11.986  22.684  0.00  0.00    +0.000 HD
ATOM     18  H   UNL     1      -1.620  10.594  23.160  0.00  0.00    +0.000 HD
ENDBRANCH  10  16
ENDBRANCH   1  13
BRANCH   6  19
ATOM     19  C   UNL     1       5.815   4.407  15.478  0.00  0.00    +0.000 C 
ATOM     20  F   UNL     1       5.284   4.667  14.252  0.00  0.00    +0.000 F 
ATOM     21  F   UNL     1       7.054   4.972  15.475  0.00  0.00    +0.000 F 
ATOM     22  F   UNL     1       6.017   3.061  15.521  0.00  0.00    +0.000 F 
ENDBRANCH   6  19
TORSDOF 3
ENDMDL
MODEL 8
REMARK VINA RESULT:      -6.8      0.999      1.835
REMARK  Name = 
REMARK  3 active torsions:
REMARK  status: ('A' for Active; 'I' for Inactive)
REMARK    1  A    between atoms: N_1  and  C_2
REMARK    2  A    between atoms: C_5  and  C_6
REMARK    3  A    between atoms: C_11  and  C_12
REMARK                            x       y       z     vdW  Elec       q    Type
REMARK                         _______ _______ _______ _____ _____    ______ ____
ROOT
ATOM      1  C   UNL     1       2.913   7.122  18.206  0.00  0.00    +0.000 A 
ATOM      2  N   UNL     1       2.594   8.298  17.700  0.00  0.00    +0.000 NA
ATOM      3  C   UNL     1       1.812   9.010  18.591  0.00  0.00    +0.000 A 
ATOM      4  C   UNL     1       1.255  10.285  18.368  0.00  0.00    +0.000 A 
ATOM      5  C   UNL     1       0.472  10.890  19.360  0.00  0.00    +0.000 A 
ATOM      6  C   UNL     1       0.236  10.246  20.582  0.00  0.00    +0.000 A 
ATOM      7  C   UNL     1       0.792   8.975  20.817  0.00  0.00    +0.000 A 
ATOM      8  C   UNL     1       1.568   8.378  19.809  0.00  0.00    +0.000 A 
ATOM      9  S   UNL     1       2.348   6.848  19.810  0.00  0.00    +0.000 S 
ENDROOT
BRANCH   1  13
ATOM     10  C   UNL     1       5.291   4.231  16.077  0.00  0.00    +0.000 A 
ATOM     11  C   UNL     1       5.568   5.596  15.996  0.00  0.00    +0.000 A 
ATOM     12  C   UNL     1       4.777   6.529  16.678  0.00  0.00    +0.000 A 
ATOM     13  C   UNL     1       3.723   6.113  17.504  0.00  0.00    +0.000 A 
ATOM     14  C   UNL     1       3.481   4.737  17.619  0.00  0.00    +0.000 A 
ATOM     15  C   UNL     1       4.272   3.809  16.930  0.00  0.00    +0.000 A 
BRANCH  10  16
ATOM     16  N   UNL     1       6.156   3.297  15.500  0.00  0.00    +0.000 N 
ATOM     17  H   UNL     1       5.813   2.342  15.536  0.00  0.00    +0.000 HD
ATOM     18  H   UNL     1       7.116   3.372  15.822  0.00  0.00    +0.000 HD
ENDBRANCH  10  16
ENDBRANCH   1  13
BRANCH   6  19
ATOM     19  C   UNL     1      -0.610  10.894  21.653  0.00  0.00    +0.000 C 
ATOM     20  F   UNL     1      -1.000  10.036  22.636  0.00  0.00    +0.000 F 
ATOM     21  F   UNL     1       0.042  11.910  22.283  0.00  0.00    +0.000 F 
ATOM     22  F   UNL     1      -1.755  11.436  21.153  0.00  0.00    +0.000 F 
ENDBRANCH   6  19
TORSDOF 3
ENDMDL
MODEL 9
REMARK VINA RESULT:      -6.8      3.162      4.078
REMARK  Name = 
REMARK  3 active torsions:
REMARK  status: ('A' for Active; 'I' for Inactive)
REMARK    1  A    between atoms: N_1  and  C_2
REMARK    2  A    between atoms: C_5  and  C_6
REMARK    3  A    between atoms: C_11  and  C_12
REMARK                            x       y       z     vdW  Elec       q    Type
REMARK                         _______ _______ _______ _____ _____    ______ ____
ROOT
ATOM      1  C   UNL     1       2.307   7.032  19.618  0.00  0.00    +0.000 A 
ATOM      2  N   UNL     1       1.628   7.571  20.612  0.00  0.00    +0.000 NA
ATOM      3  C   UNL     1       1.161   8.823  20.255  0.00  0.00    +0.000 A 
ATOM      4  C   UNL     1       0.433   9.702  21.082  0.00  0.00    +0.000 A 
ATOM      5  C   UNL     1       0.028  10.950  20.591  0.00  0.00    +0.000 A 
ATOM      6  C   UNL     1       0.330  11.339  19.279  0.00  0.00    +0.000 A 
ATOM      7  C   UNL     1       1.051  10.467  18.443  0.00  0.00    +0.000 A 
ATOM      8  C   UNL     1       1.458   9.223  18.953  0.00  0.00    +0.000 A 
ATOM      9  S   UNL     1       2.352   7.977  18.178  0.00  0.00    +0.000 S 
ENDROOT
BRANCH   1  13
ATOM     10  C   UNL     1       4.238   3.184  19.707  0.00  0.00    +0.000 A 
ATOM     11  C   UNL     1       4.858   4.292  19.128  0.00  0.00    +0.000 A 
ATOM     12  C   UNL     1       4.213   5.535  19.089  0.00  0.00    +0.000 A 
ATOM     13  C   UNL     1       2.953   5.711  19.679  0.00  0.00    +0.000 A 
ATOM     14  C   UNL     1       2.358   4.606  20.302  0.00  0.00    +0.000 A 
ATOM     15  C   UNL     1       3.004   3.364  20.333  0.00  0.00    +0.000 A 
BRANCH  10  16
ATOM     16  N   UNL     1       4.934   1.981  19.858  0.00  0.00    +0.000 N 
ATOM     17  H   UNL     1       4.378   1.234  20.264  0.00  0.00    +0.000 HD
ATOM     18  H   UNL     1       5.834   2.082  20.315  0.00  0.00    +0.000 HD
ENDBRANCH  10  16
ENDBRANCH   1  13
BRANCH   6  19
ATOM     19  C   UNL     1      -0.104  12.685  18.747  0.00  0.00    +0.000 C 
ATOM     20  F   UNL     1      -0.660  13.493  19.690  0.00  0.00    +0.000 F 
ATOM     21  F   UNL     1       0.933  13.391  18.216  0.00  0.00    +0.000 F 
ATOM     22  F   UNL     1      -1.029  12.576  17.754  0.00  0.00    +0.000 F 
ENDBRANCH   6  19
TORSDOF 3
ENDMDL
