MODEL 1
REMARK VINA RESULT:      -7.7      0.000      0.000
REMARK  Name = 
REMARK  9 active torsions:
REMARK  status: ('A' for Active; 'I' for Inactive)
REMARK    1  A    between atoms: C_1  and  C_2
REMARK    2  A    between atoms: C_2  and  O_3
REMARK    3  A    between atoms: C_2  and  C_4
REMARK    4  A    between atoms: C_4  and  C_5
REMARK    5  A    between atoms: C_4  and  N_6
REMARK    6  A    between atoms: C_7  and  C_9
REMARK    7  A    between atoms: C_14  and  O_15
REMARK    8  A    between atoms: O_15  and  C_16
REMARK    9  A    between atoms: C_19  and  C_20
REMARK                            x       y       z     vdW  Elec       q    Type
REMARK                         _______ _______ _______ _____ _____    ______ ____
ROOT
ATOM      1  C   UNL     1       1.826   7.748  19.790  0.00  0.00    +0.000 A 
ATOM      2  C   UNL     1       1.755   8.737  18.822  0.00  0.00    +0.000 A 
ATOM      3  C   UNL     1       1.082   9.914  19.131  0.00  0.00    +0.000 A 
ATOM      4  C   UNL     1       0.499  10.067  20.394  0.00  0.00    +0.000 A 
ATOM      5  C   UNL     1      -0.166  11.255  20.756  0.00  0.00    +0.000 A 
ATOM      6  C   UNL     1      -0.736  11.388  22.022  0.00  0.00    +0.000 A 
ATOM      7  C   UNL     1      -0.710  10.302  22.894  0.00  0.00    +0.000 A 
ATOM      8  C   UNL     1      -0.018   9.136  22.542  0.00  0.00    +0.000 A 
ATOM      9  C   UNL     1       0.602   8.993  21.309  0.00  0.00    +0.000 A 
ATOM     10  N   UNL     1       1.260   7.852  21.024  0.00  0.00    +0.000 NA
ENDROOT
BRANCH   1  12
ATOM     11  N   UNL     1       1.848   5.308  19.609  0.00  0.00    +0.000 N 
ATOM     12  C   UNL     1       2.566   6.480  19.477  0.00  0.00    +0.000 C 
ATOM     13  O   UNL     1       3.746   6.507  19.137  0.00  0.00    +0.000 OA
ATOM     14  H   UNL     1       0.877   5.389  19.897  0.00  0.00    +0.000 HD
BRANCH  11  15
ATOM     15  C   UNL     1       2.419   3.998  19.294  0.00  0.00    +0.000 C 
ATOM     16  C   UNL     1       2.289   3.710  17.797  0.00  0.00    +0.000 C 
BRANCH  15  18
ATOM     17  C   UNL     1       2.421   2.744  21.536  0.00  0.00    +0.000 C 
ATOM     18  C   UNL     1       1.778   2.883  20.159  0.00  0.00    +0.000 C 
BRANCH  18  19
ATOM     19  O   UNL     1       0.385   3.152  20.363  0.00  0.00    +0.000 OA
ATOM     20  H   UNL     1       0.148   2.814  21.246  0.00  0.00    +0.000 HD
ENDBRANCH  18  19
ENDBRANCH  15  18
ENDBRANCH  11  15
ENDBRANCH   1  12
BRANCH   6  21
ATOM     21  O   UNL     1      -1.343  12.594  22.295  0.00  0.00    +0.000 OA
BRANCH  21  22
ATOM     22  C   UNL     1      -2.688  12.635  22.595  0.00  0.00    +0.000 A 
ATOM     23  C   UNL     1      -3.703  12.732  21.639  0.00  0.00    +0.000 A 
ATOM     24  C   UNL     1      -5.039  12.828  22.039  0.00  0.00    +0.000 A 
ATOM     25  C   UNL     1      -5.371  12.763  23.395  0.00  0.00    +0.000 A 
ATOM     26  C   UNL     1      -4.363  12.583  24.348  0.00  0.00    +0.000 A 
ATOM     27  C   UNL     1      -3.024  12.518  23.946  0.00  0.00    +0.000 A 
BRANCH  25  28
ATOM     28  C   UNL     1      -6.739  12.888  23.804  0.00  0.00    +0.000 C 
ATOM     29  N   UNL     1      -7.842  12.997  24.147  0.00  0.00    +0.000 NA
ENDBRANCH  25  28
ENDBRANCH  21  22
ENDBRANCH   6  21
TORSDOF 7
ENDMDL
MODEL 2
REMARK VINA RESULT:      -7.6      3.298     10.487
REMARK  Name = 
REMARK  9 active torsions:
REMARK  status: ('A' for Active; 'I' for Inactive)
REMARK    1  A    between atoms: C_1  and  C_2
REMARK    2  A    between atoms: C_2  and  O_3
REMARK    3  A    between atoms: C_2  and  C_4
REMARK    4  A    between atoms: C_4  and  C_5
REMARK    5  A    between atoms: C_4  and  N_6
REMARK    6  A    between atoms: C_7  and  C_9
REMARK    7  A    between atoms: C_14  and  O_15
REMARK    8  A    between atoms: O_15  and  C_16
REMARK    9  A    between atoms: C_19  and  C_20
REMARK                            x       y       z     vdW  Elec       q    Type
REMARK                         _______ _______ _______ _____ _____    ______ ____
ROOT
ATOM      1  C   UNL     1       0.867   9.363  19.423  0.00  0.00    +0.000 A 
ATOM      2  C   UNL     1       1.567   9.524  18.237  0.00  0.00    +0.000 A 
ATOM      3  C   UNL     1       2.416   8.501  17.830  0.00  0.00    +0.000 A 
ATOM      4  C   UNL     1       2.543   7.351  18.617  0.00  0.00    +0.000 A 
ATOM      5  C   UNL     1       3.370   6.281  18.224  0.00  0.00    +0.000 A 
ATOM      6  C   UNL     1       3.479   5.142  19.021  0.00  0.00    +0.000 A 
ATOM      7  C   UNL     1       2.823   5.110  20.250  0.00  0.00    +0.000 A 
ATOM      8  C   UNL     1       1.975   6.163  20.621  0.00  0.00    +0.000 A 
ATOM      9  C   UNL     1       1.808   7.287  19.824  0.00  0.00    +0.000 A 
ATOM     10  N   UNL     1       0.975   8.267  20.225  0.00  0.00    +0.000 NA
ENDROOT
BRANCH   1  12
ATOM     11  N   UNL     1       0.136  10.947  21.139  0.00  0.00    +0.000 N 
ATOM     12  C   UNL     1      -0.068  10.450  19.866  0.00  0.00    +0.000 C 
ATOM     13  O   UNL     1      -0.963  10.851  19.126  0.00  0.00    +0.000 OA
ATOM     14  H   UNL     1       0.902  10.549  21.674  0.00  0.00    +0.000 HD
BRANCH  11  15
ATOM     15  C   UNL     1      -0.665  12.040  21.692  0.00  0.00    +0.000 C 
ATOM     16  C   UNL     1       0.162  13.326  21.747  0.00  0.00    +0.000 C 
BRANCH  15  18
ATOM     17  C   UNL     1      -2.726  12.019  23.226  0.00  0.00    +0.000 C 
ATOM     18  C   UNL     1      -1.249  11.663  23.077  0.00  0.00    +0.000 C 
BRANCH  18  19
ATOM     19  O   UNL     1      -1.123  10.253  23.302  0.00  0.00    +0.000 OA
ATOM     20  H   UNL     1      -0.596  10.132  24.112  0.00  0.00    +0.000 HD
ENDBRANCH  18  19
ENDBRANCH  15  18
ENDBRANCH  11  15
ENDBRANCH   1  12
BRANCH   6  21
ATOM     21  O   UNL     1       4.291   4.137  18.544  0.00  0.00    +0.000 OA
BRANCH  21  22
ATOM     22  C   UNL     1       5.150   4.386  17.495  0.00  0.00    +0.000 A 
ATOM     23  C   UNL     1       6.464   4.838  17.647  0.00  0.00    +0.000 A 
ATOM     24  C   UNL     1       7.243   5.123  16.522  0.00  0.00    +0.000 A 
ATOM     25  C   UNL     1       6.735   4.894  15.240  0.00  0.00    +0.000 A 
ATOM     26  C   UNL     1       5.450   4.362  15.089  0.00  0.00    +0.000 A 
ATOM     27  C   UNL     1       4.660   4.108  16.216  0.00  0.00    +0.000 A 
BRANCH  25  28
ATOM     28  C   UNL     1       7.528   5.210  14.089  0.00  0.00    +0.000 C 
ATOM     29  N   UNL     1       8.169   5.481  13.161  0.00  0.00    +0.000 NA
ENDBRANCH  25  28
ENDBRANCH  21  22
ENDBRANCH   6  21
TORSDOF 7
ENDMDL
MODEL 3
REMARK VINA RESULT:      -7.6      1.172      1.295
REMARK  Name = 
REMARK  9 active torsions:
REMARK  status: ('A' for Active; 'I' for Inactive)
REMARK    1  A    between atoms: C_1  and  C_2
REMARK    2  A    between atoms: C_2  and  O_3
REMARK    3  A    between atoms: C_2  and  C_4
REMARK    4  A    between atoms: C_4  and  C_5
REMARK    5  A    between atoms: C_4  and  N_6
REMARK    6  A    between atoms: C_7  and  C_9
REMARK    7  A    between atoms: C_14  and  O_15
REMARK    8  A    between atoms: O_15  and  C_16
REMARK    9  A    between atoms: C_19  and  C_20
REMARK                            x       y       z     vdW  Elec       q    Type
REMARK                         _______ _______ _______ _____ _____    ______ ____
ROOT
ATOM      1  C   UNL     1       2.313   7.386  18.947  0.00  0.00    +0.000 A 
ATOM      2  C   UNL     1       2.170   8.345  17.955  0.00  0.00    +0.000 A 
ATOM      3  C   UNL     1       1.550   9.544  18.284  0.00  0.00    +0.000 A 
ATOM      4  C   UNL     1       1.087   9.751  19.589  0.00  0.00    +0.000 A 
ATOM      5  C   UNL     1       0.478  10.963  19.968  0.00  0.00    +0.000 A 
ATOM      6  C   UNL     1       0.028  11.149  21.274  0.00  0.00    +0.000 A 
ATOM      7  C   UNL     1       0.115  10.092  22.178  0.00  0.00    +0.000 A 
ATOM      8  C   UNL     1       0.751   8.901  21.805  0.00  0.00    +0.000 A 
ATOM      9  C   UNL     1       1.254   8.705  20.526  0.00  0.00    +0.000 A 
ATOM     10  N   UNL     1       1.863   7.542  20.223  0.00  0.00    +0.000 NA
ENDROOT
BRANCH   1  12
ATOM     11  N   UNL     1       2.335   4.940  18.980  0.00  0.00    +0.000 N 
ATOM     12  C   UNL     1       2.999   6.093  18.612  0.00  0.00    +0.000 C 
ATOM     13  O   UNL     1       4.092   6.088  18.054  0.00  0.00    +0.000 OA
ATOM     14  H   UNL     1       1.435   5.049  19.439  0.00  0.00    +0.000 HD
BRANCH  11  15
ATOM     15  C   UNL     1       2.856   3.605  18.679  0.00  0.00    +0.000 C 
ATOM     16  C   UNL     1       2.603   3.257  17.211  0.00  0.00    +0.000 C 
BRANCH  15  18
ATOM     17  C   UNL     1       1.199   3.103  20.577  0.00  0.00    +0.000 C 
ATOM     18  C   UNL     1       2.265   2.542  19.640  0.00  0.00    +0.000 C 
BRANCH  18  19
ATOM     19  O   UNL     1       1.662   1.478  18.893  0.00  0.00    +0.000 OA
ATOM     20  H   UNL     1       2.067   0.644  19.193  0.00  0.00    +0.000 HD
ENDBRANCH  18  19
ENDBRANCH  15  18
ENDBRANCH  11  15
ENDBRANCH   1  12
BRANCH   6  21
ATOM     21  O   UNL     1      -0.530  12.376  21.560  0.00  0.00    +0.000 OA
BRANCH  21  22
ATOM     22  C   UNL     1      -1.900  12.504  21.650  0.00  0.00    +0.000 A 
ATOM     23  C   UNL     1      -2.753  12.606  20.548  0.00  0.00    +0.000 A 
ATOM     24  C   UNL     1      -4.125  12.795  20.737  0.00  0.00    +0.000 A 
ATOM     25  C   UNL     1      -4.660  12.816  22.028  0.00  0.00    +0.000 A 
ATOM     26  C   UNL     1      -3.818  12.630  23.129  0.00  0.00    +0.000 A 
ATOM     27  C   UNL     1      -2.440  12.473  22.939  0.00  0.00    +0.000 A 
BRANCH  25  28
ATOM     28  C   UNL     1      -6.063  13.034  22.218  0.00  0.00    +0.000 C 
ATOM     29  N   UNL     1      -7.197  13.225  22.374  0.00  0.00    +0.000 NA
ENDBRANCH  25  28
ENDBRANCH  21  22
ENDBRANCH   6  21
TORSDOF 7
ENDMDL
MODEL 4
REMARK VINA RESULT:      -7.6      2.108      2.537
REMARK  Name = 
REMARK  9 active torsions:
REMARK  status: ('A' for Active; 'I' for Inactive)
REMARK    1  A    between atoms: C_1  and  C_2
REMARK    2  A    between atoms: C_2  and  O_3
REMARK    3  A    between atoms: C_2  and  C_4
REMARK    4  A    between atoms: C_4  and  C_5
REMARK    5  A    between atoms: C_4  and  N_6
REMARK    6  A    between atoms: C_7  and  C_9
REMARK    7  A    between atoms: C_14  and  O_15
REMARK    8  A    between atoms: O_15  and  C_16
REMARK    9  A    between atoms: C_19  and  C_20
REMARK                            x       y       z     vdW  Elec       q    Type
REMARK                         _______ _______ _______ _____ _____    ______ ____
ROOT
ATOM      1  C   UNL     1       2.651   6.960  19.077  0.00  0.00    +0.000 A 
ATOM      2  C   UNL     1       2.744   7.692  17.903  0.00  0.00    +0.000 A 
ATOM      3  C   UNL     1       2.045   8.890  17.818  0.00  0.00    +0.000 A 
ATOM      4  C   UNL     1       1.273   9.322  18.903  0.00  0.00    +0.000 A 
ATOM      5  C   UNL     1       0.573  10.544  18.866  0.00  0.00    +0.000 A 
ATOM      6  C   UNL     1      -0.186  10.956  19.960  0.00  0.00    +0.000 A 
ATOM      7  C   UNL     1      -0.310  10.107  21.057  0.00  0.00    +0.000 A 
ATOM      8  C   UNL     1       0.414   8.908  21.103  0.00  0.00    +0.000 A 
ATOM      9  C   UNL     1       1.218   8.495  20.049  0.00  0.00    +0.000 A 
ATOM     10  N   UNL     1       1.899   7.337  20.148  0.00  0.00    +0.000 NA
ENDROOT
BRANCH   1  12
ATOM     11  N   UNL     1       2.674   4.514  19.081  0.00  0.00    +0.000 N 
ATOM     12  C   UNL     1       3.416   5.673  19.191  0.00  0.00    +0.000 C 
ATOM     13  O   UNL     1       4.629   5.677  19.383  0.00  0.00    +0.000 OA
ATOM     14  H   UNL     1       1.676   4.615  18.924  0.00  0.00    +0.000 HD
BRANCH  11  15
ATOM     15  C   UNL     1       3.286   3.184  19.124  0.00  0.00    +0.000 C 
ATOM     16  C   UNL     1       3.775   2.781  17.732  0.00  0.00    +0.000 C 
BRANCH  15  18
ATOM     17  C   UNL     1       1.434   2.703  20.839  0.00  0.00    +0.000 C 
ATOM     18  C   UNL     1       2.314   2.138  19.727  0.00  0.00    +0.000 C 
BRANCH  18  19
ATOM     19  O   UNL     1       1.442   1.627  18.710  0.00  0.00    +0.000 OA
ATOM     20  H   UNL     1       0.886   2.366  18.403  0.00  0.00    +0.000 HD
ENDBRANCH  18  19
ENDBRANCH  15  18
ENDBRANCH  11  15
ENDBRANCH   1  12
BRANCH   6  21
ATOM     21  O   UNL     1      -0.814  12.177  19.842  0.00  0.00    +0.000 OA
BRANCH  21  22
ATOM     22  C   UNL     1      -2.182  12.234  19.683  0.00  0.00    +0.000 A 
ATOM     23  C   UNL     1      -2.878  11.619  18.638  0.00  0.00    +0.000 A 
ATOM     24  C   UNL     1      -4.261  11.782  18.522  0.00  0.00    +0.000 A 
ATOM     25  C   UNL     1      -4.965  12.506  19.488  0.00  0.00    +0.000 A 
ATOM     26  C   UNL     1      -4.282  13.052  20.580  0.00  0.00    +0.000 A 
ATOM     27  C   UNL     1      -2.893  12.914  20.676  0.00  0.00    +0.000 A 
BRANCH  25  28
ATOM     28  C   UNL     1      -6.380  12.692  19.353  0.00  0.00    +0.000 C 
ATOM     29  N   UNL     1      -7.527  12.827  19.241  0.00  0.00    +0.000 NA
ENDBRANCH  25  28
ENDBRANCH  21  22
ENDBRANCH   6  21
TORSDOF 7
ENDMDL
MODEL 5
REMARK VINA RESULT:      -7.6      1.089      1.526
REMARK  Name = 
REMARK  9 active torsions:
REMARK  status: ('A' for Active; 'I' for Inactive)
REMARK    1  A    between atoms: C_1  and  C_2
REMARK    2  A    between atoms: C_2  and  O_3
REMARK    3  A    between atoms: C_2  and  C_4
REMARK    4  A    between atoms: C_4  and  C_5
REMARK    5  A    between atoms: C_4  and  N_6
REMARK    6  A    between atoms: C_7  and  C_9
REMARK    7  A    between atoms: C_14  and  O_15
REMARK    8  A    between atoms: O_15  and  C_16
REMARK    9  A    between atoms: C_19  and  C_20
REMARK                            x       y       z     vdW  Elec       q    Type
REMARK                         _______ _______ _______ _____ _____    ______ ____
ROOT
ATOM      1  C   UNL     1       2.330   7.500  18.907  0.00  0.00    +0.000 A 
ATOM      2  C   UNL     1       2.222   8.403  17.860  0.00  0.00    +0.000 A 
ATOM      3  C   UNL     1       1.595   9.619  18.103  0.00  0.00    +0.000 A 
ATOM      4  C   UNL     1       1.092   9.898  19.379  0.00  0.00    +0.000 A 
ATOM      5  C   UNL     1       0.475  11.130  19.671  0.00  0.00    +0.000 A 
ATOM      6  C   UNL     1      -0.015  11.389  20.951  0.00  0.00    +0.000 A 
ATOM      7  C   UNL     1       0.040  10.383  21.913  0.00  0.00    +0.000 A 
ATOM      8  C   UNL     1       0.683   9.172  21.627  0.00  0.00    +0.000 A 
ATOM      9  C   UNL     1       1.225   8.905  20.377  0.00  0.00    +0.000 A 
ATOM     10  N   UNL     1       1.840   7.726  20.158  0.00  0.00    +0.000 NA
ENDROOT
BRANCH   1  12
ATOM     11  N   UNL     1       2.272   5.054  18.900  0.00  0.00    +0.000 N 
ATOM     12  C   UNL     1       3.022   6.190  18.666  0.00  0.00    +0.000 C 
ATOM     13  O   UNL     1       4.191   6.156  18.292  0.00  0.00    +0.000 OA
ATOM     14  H   UNL     1       1.313   5.186  19.209  0.00  0.00    +0.000 HD
BRANCH  11  15
ATOM     15  C   UNL     1       2.795   3.707  18.664  0.00  0.00    +0.000 C 
ATOM     16  C   UNL     1       2.604   3.315  17.199  0.00  0.00    +0.000 C 
BRANCH  15  18
ATOM     17  C   UNL     1       1.067   3.282  20.517  0.00  0.00    +0.000 C 
ATOM     18  C   UNL     1       2.154   2.679  19.632  0.00  0.00    +0.000 C 
BRANCH  18  19
ATOM     19  O   UNL     1       1.557   1.606  18.892  0.00  0.00    +0.000 OA
ATOM     20  H   UNL     1       0.847   1.988  18.344  0.00  0.00    +0.000 HD
ENDBRANCH  18  19
ENDBRANCH  15  18
ENDBRANCH  11  15
ENDBRANCH   1  12
BRANCH   6  21
ATOM     21  O   UNL     1      -0.579  12.630  21.150  0.00  0.00    +0.000 OA
BRANCH  21  22
ATOM     22  C   UNL     1      -1.793  12.739  21.793  0.00  0.00    +0.000 A 
ATOM     23  C   UNL     1      -1.939  12.936  23.169  0.00  0.00    +0.000 A 
ATOM     24  C   UNL     1      -3.213  12.973  23.742  0.00  0.00    +0.000 A 
ATOM     25  C   UNL     1      -4.349  12.879  22.934  0.00  0.00    +0.000 A 
ATOM     26  C   UNL     1      -4.206  12.765  21.548  0.00  0.00    +0.000 A 
ATOM     27  C   UNL     1      -2.929  12.697  20.979  0.00  0.00    +0.000 A 
BRANCH  25  28
ATOM     28  C   UNL     1      -5.653  12.893  23.528  0.00  0.00    +0.000 C 
ATOM     29  N   UNL     1      -6.713  12.892  24.001  0.00  0.00    +0.000 NA
ENDBRANCH  25  28
ENDBRANCH  21  22
ENDBRANCH   6  21
TORSDOF 7
ENDMDL
MODEL 6
REMARK VINA RESULT:      -7.5      1.665      2.074
REMARK  Name = 
REMARK  9 active torsions:
REMARK  status: ('A' for Active; 'I' for Inactive)
REMARK    1  A    between atoms: C_1  and  C_2
REMARK    2  A    between atoms: C_2  and  O_3
REMARK    3  A    between atoms: C_2  and  C_4
REMARK    4  A    between atoms: C_4  and  C_5
REMARK    5  A    between atoms: C_4  and  N_6
REMARK    6  A    between atoms: C_7  and  C_9
REMARK    7  A    between atoms: C_14  and  O_15
REMARK    8  A    between atoms: O_15  and  C_16
REMARK    9  A    between atoms: C_19  and  C_20
REMARK                            x       y       z     vdW  Elec       q    Type
REMARK                         _______ _______ _______ _____ _____    ______ ____
ROOT
ATOM      1  C   UNL     1       2.389   7.496  18.774  0.00  0.00    +0.000 A 
ATOM      2  C   UNL     1       2.253   8.473  17.800  0.00  0.00    +0.000 A 
ATOM      3  C   UNL     1       1.628   9.665  18.147  0.00  0.00    +0.000 A 
ATOM      4  C   UNL     1       1.155   9.847  19.452  0.00  0.00    +0.000 A 
ATOM      5  C   UNL     1       0.542  11.051  19.850  0.00  0.00    +0.000 A 
ATOM      6  C   UNL     1       0.082  11.212  21.156  0.00  0.00    +0.000 A 
ATOM      7  C   UNL     1       0.164  10.138  22.040  0.00  0.00    +0.000 A 
ATOM      8  C   UNL     1       0.804   8.954  21.649  0.00  0.00    +0.000 A 
ATOM      9  C   UNL     1       1.316   8.783  20.370  0.00  0.00    +0.000 A 
ATOM     10  N   UNL     1       1.929   7.627  20.050  0.00  0.00    +0.000 NA
ENDROOT
BRANCH   1  12
ATOM     11  N   UNL     1       2.560   5.065  18.989  0.00  0.00    +0.000 N 
ATOM     12  C   UNL     1       3.079   6.211  18.420  0.00  0.00    +0.000 C 
ATOM     13  O   UNL     1       4.055   6.206  17.674  0.00  0.00    +0.000 OA
ATOM     14  H   UNL     1       1.751   5.173  19.594  0.00  0.00    +0.000 HD
BRANCH  11  15
ATOM     15  C   UNL     1       3.096   3.734  18.700  0.00  0.00    +0.000 C 
ATOM     16  C   UNL     1       2.020   2.670  18.926  0.00  0.00    +0.000 C 
BRANCH  15  18
ATOM     17  C   UNL     1       4.411   2.050  20.128  0.00  0.00    +0.000 C 
ATOM     18  C   UNL     1       4.376   3.453  19.528  0.00  0.00    +0.000 C 
BRANCH  18  19
ATOM     19  O   UNL     1       5.541   3.595  18.704  0.00  0.00    +0.000 OA
ATOM     20  H   UNL     1       6.318   3.570  19.291  0.00  0.00    +0.000 HD
ENDBRANCH  18  19
ENDBRANCH  15  18
ENDBRANCH  11  15
ENDBRANCH   1  12
BRANCH   6  21
ATOM     21  O   UNL     1      -0.480  12.432  21.461  0.00  0.00    +0.000 OA
BRANCH  21  22
ATOM     22  C   UNL     1      -1.847  12.544  21.597  0.00  0.00    +0.000 A 
ATOM     23  C   UNL     1      -2.512  12.603  22.825  0.00  0.00    +0.000 A 
ATOM     24  C   UNL     1      -3.908  12.655  22.866  0.00  0.00    +0.000 A 
ATOM     25  C   UNL     1      -4.644  12.716  21.680  0.00  0.00    +0.000 A 
ATOM     26  C   UNL     1      -3.976  12.742  20.451  0.00  0.00    +0.000 A 
ATOM     27  C   UNL     1      -2.579  12.657  20.411  0.00  0.00    +0.000 A 
BRANCH  25  28
ATOM     28  C   UNL     1      -6.075  12.745  21.726  0.00  0.00    +0.000 C 
ATOM     29  N   UNL     1      -7.235  12.784  21.765  0.00  0.00    +0.000 NA
ENDBRANCH  25  28
ENDBRANCH  21  22
ENDBRANCH   6  21
TORSDOF 7
ENDMDL
MODEL 7
REMARK VINA RESULT:      -7.4      2.082      2.823
REMARK  Name = 
REMARK  9 active torsions:
REMARK  status: ('A' for Active; 'I' for Inactive)
REMARK    1  A    between atoms: C_1  and  C_2
REMARK    2  A    between atoms: C_2  and  O_3
REMARK    3  A    between atoms: C_2  and  C_4
REMARK    4  A    between atoms: C_4  and  C_5
REMARK    5  A    between atoms: C_4  and  N_6
REMARK    6  A    between atoms: C_7  and  C_9
REMARK    7  A    between atoms: C_14  and  O_15
REMARK    8  A    between atoms: O_15  and  C_16
REMARK    9  A    between atoms: C_19  and  C_20
REMARK                            x       y       z     vdW  Elec       q    Type
REMARK                         _______ _______ _______ _____ _____    ______ ____
ROOT
ATOM      1  C   UNL     1       2.361   7.276  18.672  0.00  0.00    +0.000 A 
ATOM      2  C   UNL     1       2.175   8.314  17.771  0.00  0.00    +0.000 A 
ATOM      3  C   UNL     1       1.626   9.501  18.241  0.00  0.00    +0.000 A 
ATOM      4  C   UNL     1       1.276   9.618  19.591  0.00  0.00    +0.000 A 
ATOM      5  C   UNL     1       0.744  10.814  20.110  0.00  0.00    +0.000 A 
ATOM      6  C   UNL     1       0.407  10.910  21.460  0.00  0.00    +0.000 A 
ATOM      7  C   UNL     1       0.527   9.783  22.270  0.00  0.00    +0.000 A 
ATOM      8  C   UNL     1       1.088   8.606  21.756  0.00  0.00    +0.000 A 
ATOM      9  C   UNL     1       1.479   8.497  20.429  0.00  0.00    +0.000 A 
ATOM     10  N   UNL     1       2.020   7.344  19.989  0.00  0.00    +0.000 NA
ENDROOT
BRANCH   1  12
ATOM     11  N   UNL     1       4.342   5.886  18.309  0.00  0.00    +0.000 N 
ATOM     12  C   UNL     1       2.971   5.994  18.184  0.00  0.00    +0.000 C 
ATOM     13  O   UNL     1       2.271   5.111  17.695  0.00  0.00    +0.000 OA
ATOM     14  H   UNL     1       4.833   6.672  18.726  0.00  0.00    +0.000 HD
BRANCH  11  15
ATOM     15  C   UNL     1       5.072   4.678  17.922  0.00  0.00    +0.000 C 
ATOM     16  C   UNL     1       5.080   3.672  19.074  0.00  0.00    +0.000 C 
BRANCH  15  18
ATOM     17  C   UNL     1       6.865   6.492  17.614  0.00  0.00    +0.000 C 
ATOM     18  C   UNL     1       6.504   5.020  17.436  0.00  0.00    +0.000 C 
BRANCH  18  19
ATOM     19  O   UNL     1       7.471   4.251  18.163  0.00  0.00    +0.000 OA
ATOM     20  H   UNL     1       7.051   3.962  18.993  0.00  0.00    +0.000 HD
ENDBRANCH  18  19
ENDBRANCH  15  18
ENDBRANCH  11  15
ENDBRANCH   1  12
BRANCH   6  21
ATOM     21  O   UNL     1      -0.083  12.127  21.883  0.00  0.00    +0.000 OA
BRANCH  21  22
ATOM     22  C   UNL     1      -1.443  12.334  21.952  0.00  0.00    +0.000 A 
ATOM     23  C   UNL     1      -2.248  12.640  20.850  0.00  0.00    +0.000 A 
ATOM     24  C   UNL     1      -3.611  12.895  21.024  0.00  0.00    +0.000 A 
ATOM     25  C   UNL     1      -4.190  12.781  22.291  0.00  0.00    +0.000 A 
ATOM     26  C   UNL     1      -3.402  12.393  23.381  0.00  0.00    +0.000 A 
ATOM     27  C   UNL     1      -2.031  12.170  23.209  0.00  0.00    +0.000 A 
BRANCH  25  28
ATOM     28  C   UNL     1      -5.582  13.066  22.471  0.00  0.00    +0.000 C 
ATOM     29  N   UNL     1      -6.708  13.312  22.609  0.00  0.00    +0.000 NA
ENDBRANCH  25  28
ENDBRANCH  21  22
ENDBRANCH   6  21
TORSDOF 7
ENDMDL
MODEL 8
REMARK VINA RESULT:      -7.4      1.806      2.130
REMARK  Name = 
REMARK  9 active torsions:
REMARK  status: ('A' for Active; 'I' for Inactive)
REMARK    1  A    between atoms: C_1  and  C_2
REMARK    2  A    between atoms: C_2  and  O_3
REMARK    3  A    between atoms: C_2  and  C_4
REMARK    4  A    between atoms: C_4  and  C_5
REMARK    5  A    between atoms: C_4  and  N_6
REMARK    6  A    between atoms: C_7  and  C_9
REMARK    7  A    between atoms: C_14  and  O_15
REMARK    8  A    between atoms: O_15  and  C_16
REMARK    9  A    between atoms: C_19  and  C_20
REMARK                            x       y       z     vdW  Elec       q    Type
REMARK                         _______ _______ _______ _____ _____    ______ ____
ROOT
ATOM      1  C   UNL     1       2.499   7.359  18.966  0.00  0.00    +0.000 A 
ATOM      2  C   UNL     1       2.401   8.167  17.844  0.00  0.00    +0.000 A 
ATOM      3  C   UNL     1       1.676   9.349  17.946  0.00  0.00    +0.000 A 
ATOM      4  C   UNL     1       1.070   9.688  19.161  0.00  0.00    +0.000 A 
ATOM      5  C   UNL     1       0.351  10.890  19.312  0.00  0.00    +0.000 A 
ATOM      6  C   UNL     1      -0.242  11.211  20.532  0.00  0.00    +0.000 A 
ATOM      7  C   UNL     1      -0.183  10.290  21.576  0.00  0.00    +0.000 A 
ATOM      8  C   UNL     1       0.560   9.111  21.431  0.00  0.00    +0.000 A 
ATOM      9  C   UNL     1       1.203   8.789  20.244  0.00  0.00    +0.000 A 
ATOM     10  N   UNL     1       1.911   7.645  20.161  0.00  0.00    +0.000 NA
ENDROOT
BRANCH   1  12
ATOM     11  N   UNL     1       3.081   5.315  17.755  0.00  0.00    +0.000 N 
ATOM     12  C   UNL     1       3.294   6.089  18.878  0.00  0.00    +0.000 C 
ATOM     13  O   UNL     1       4.075   5.772  19.772  0.00  0.00    +0.000 OA
ATOM     14  H   UNL     1       2.413   5.662  17.072  0.00  0.00    +0.000 HD
BRANCH  11  15
ATOM     15  C   UNL     1       3.817   4.074  17.505  0.00  0.00    +0.000 C 
ATOM     16  C   UNL     1       4.695   4.221  16.262  0.00  0.00    +0.000 C 
BRANCH  15  18
ATOM     17  C   UNL     1       3.246   1.703  18.313  0.00  0.00    +0.000 C 
ATOM     18  C   UNL     1       2.856   2.863  17.401  0.00  0.00    +0.000 C 
BRANCH  18  19
ATOM     19  O   UNL     1       1.522   3.255  17.753  0.00  0.00    +0.000 OA
ATOM     20  H   UNL     1       0.923   2.888  17.078  0.00  0.00    +0.000 HD
ENDBRANCH  18  19
ENDBRANCH  15  18
ENDBRANCH  11  15
ENDBRANCH   1  12
BRANCH   6  21
ATOM     21  O   UNL     1      -0.901  12.419  20.593  0.00  0.00    +0.000 OA
BRANCH  21  22
ATOM     22  C   UNL     1      -2.279  12.450  20.611  0.00  0.00    +0.000 A 
ATOM     23  C   UNL     1      -3.084  12.221  19.491  0.00  0.00    +0.000 A 
ATOM     24  C   UNL     1      -4.474  12.333  19.589  0.00  0.00    +0.000 A 
ATOM     25  C   UNL     1      -5.070  12.611  20.823  0.00  0.00    +0.000 A 
ATOM     26  C   UNL     1      -4.270  12.758  21.961  0.00  0.00    +0.000 A 
ATOM     27  C   UNL     1      -2.877  12.676  21.853  0.00  0.00    +0.000 A 
BRANCH  25  28
ATOM     28  C   UNL     1      -6.493  12.750  20.915  0.00  0.00    +0.000 C 
ATOM     29  N   UNL     1      -7.644  12.877  20.987  0.00  0.00    +0.000 NA
ENDBRANCH  25  28
ENDBRANCH  21  22
ENDBRANCH   6  21
TORSDOF 7
ENDMDL
MODEL 9
REMARK VINA RESULT:      -7.4      2.140      3.035
REMARK  Name = 
REMARK  9 active torsions:
REMARK  status: ('A' for Active; 'I' for Inactive)
REMARK    1  A    between atoms: C_1  and  C_2
REMARK    2  A    between atoms: C_2  and  O_3
REMARK    3  A    between atoms: C_2  and  C_4
REMARK    4  A    between atoms: C_4  and  C_5
REMARK    5  A    between atoms: C_4  and  N_6
REMARK    6  A    between atoms: C_7  and  C_9
REMARK    7  A    between atoms: C_14  and  O_15
REMARK    8  A    between atoms: O_15  and  C_16
REMARK    9  A    between atoms: C_19  and  C_20
REMARK                            x       y       z     vdW  Elec       q    Type
REMARK                         _______ _______ _______ _____ _____    ______ ____
ROOT
ATOM      1  C   UNL     1       2.357   7.406  18.612  0.00  0.00    +0.000 A 
ATOM      2  C   UNL     1       2.196   8.455  17.721  0.00  0.00    +0.000 A 
ATOM      3  C   UNL     1       1.619   9.631  18.188  0.00  0.00    +0.000 A 
ATOM      4  C   UNL     1       1.217   9.723  19.525  0.00  0.00    +0.000 A 
ATOM      5  C   UNL     1       0.654  10.906  20.042  0.00  0.00    +0.000 A 
ATOM      6  C   UNL     1       0.265  10.978  21.379  0.00  0.00    +0.000 A 
ATOM      7  C   UNL     1       0.365   9.840  22.176  0.00  0.00    +0.000 A 
ATOM      8  C   UNL     1       0.956   8.676  21.666  0.00  0.00    +0.000 A 
ATOM      9  C   UNL     1       1.399   8.591  20.353  0.00  0.00    +0.000 A 
ATOM     10  N   UNL     1       1.966   7.450  19.917  0.00  0.00    +0.000 NA
ENDROOT
BRANCH   1  12
ATOM     11  N   UNL     1       4.219   6.273  17.499  0.00  0.00    +0.000 N 
ATOM     12  C   UNL     1       2.998   6.136  18.129  0.00  0.00    +0.000 C 
ATOM     13  O   UNL     1       2.442   5.052  18.286  0.00  0.00    +0.000 OA
ATOM     14  H   UNL     1       4.596   7.213  17.416  0.00  0.00    +0.000 HD
BRANCH  11  15
ATOM     15  C   UNL     1       4.985   5.122  17.017  0.00  0.00    +0.000 C 
ATOM     16  C   UNL     1       5.926   4.617  18.111  0.00  0.00    +0.000 C 
BRANCH  15  18
ATOM     17  C   UNL     1       5.590   4.395  14.628  0.00  0.00    +0.000 C 
ATOM     18  C   UNL     1       5.743   5.462  15.708  0.00  0.00    +0.000 C 
BRANCH  18  19
ATOM     19  O   UNL     1       5.261   6.697  15.161  0.00  0.00    +0.000 OA
ATOM     20  H   UNL     1       5.979   7.077  14.623  0.00  0.00    +0.000 HD
ENDBRANCH  18  19
ENDBRANCH  15  18
ENDBRANCH  11  15
ENDBRANCH   1  12
BRANCH   6  21
ATOM     21  O   UNL     1      -0.251  12.183  21.802  0.00  0.00    +0.000 OA
BRANCH  21  22
ATOM     22  C   UNL     1      -1.617  12.367  21.853  0.00  0.00    +0.000 A 
ATOM     23  C   UNL     1      -2.422  12.585  20.731  0.00  0.00    +0.000 A 
ATOM     24  C   UNL     1      -3.791  12.822  20.884  0.00  0.00    +0.000 A 
ATOM     25  C   UNL     1      -4.373  12.777  22.154  0.00  0.00    +0.000 A 
ATOM     26  C   UNL     1      -3.582  12.477  23.269  0.00  0.00    +0.000 A 
ATOM     27  C   UNL     1      -2.206  12.271  23.116  0.00  0.00    +0.000 A 
BRANCH  25  28
ATOM     28  C   UNL     1      -5.772  13.045  22.310  0.00  0.00    +0.000 C 
ATOM     29  N   UNL     1      -6.908  13.249  22.428  0.00  0.00    +0.000 NA
ENDBRANCH  25  28
ENDBRANCH  21  22
ENDBRANCH   6  21
TORSDOF 7
ENDMDL
