MODEL 1
REMARK VINA RESULT:      -7.5      0.000      0.000
REMARK  Name = 
REMARK  7 active torsions:
REMARK  status: ('A' for Active; 'I' for Inactive)
REMARK    1  A    between atoms: C_1  and  O_2
REMARK    2  A    between atoms: O_2  and  C_3
REMARK    3  A    between atoms: C_7  and  O_8
REMARK    4  A    between atoms: O_8  and  C_9
REMARK    5  A    between atoms: C_10  and  C_11
REMARK    6  A    between atoms: C_11  and  C_13
REMARK    7  A    between atoms: C_14  and  C_15
REMARK                            x       y       z     vdW  Elec       q    Type
REMARK                         _______ _______ _______ _____ _____    ______ ____
ROOT
ATOM      1  C   UNL     1       5.074   4.505  18.300  0.00  0.00    +0.000 C 
ATOM      2  O   UNL     1       6.162   4.445  18.866  0.00  0.00    +0.000 OA
ENDROOT
BRANCH   1   8
ATOM      3  C   UNL     1       3.500   3.209  19.747  0.00  0.00    +0.000 A 
ATOM      4  C   UNL     1       2.423   3.154  20.645  0.00  0.00    +0.000 A 
ATOM      5  C   UNL     1       1.684   4.300  20.930  0.00  0.00    +0.000 A 
ATOM      6  C   UNL     1       2.008   5.503  20.307  0.00  0.00    +0.000 A 
ATOM      7  C   UNL     1       3.077   5.588  19.407  0.00  0.00    +0.000 A 
ATOM      8  C   UNL     1       3.827   4.430  19.113  0.00  0.00    +0.000 A 
BRANCH   3  10
ATOM      9  C   UNL     1       3.646   1.217  18.460  0.00  0.00    +0.000 C 
ATOM     10  O   UNL     1       4.226   2.085  19.427  0.00  0.00    +0.000 OA
ENDBRANCH   3  10
BRANCH   7  11
ATOM     11  O   UNL     1       3.437   6.767  18.792  0.00  0.00    +0.000 OA
ATOM     12  C   UNL     1       2.381   7.686  18.522  0.00  0.00    +0.000 C 
ENDBRANCH   7  11
ENDBRANCH   1   8
BRANCH   1  13
ATOM     13  C   UNL     1       4.986   4.611  16.804  0.00  0.00    +0.000 C 
ATOM     14  C   UNL     1       6.150   4.613  16.123  0.00  0.00    +0.000 C 
BRANCH  14  15
ATOM     15  C   UNL     1       6.357   4.453  14.673  0.00  0.00    +0.000 A 
ATOM     16  C   UNL     1       7.395   5.204  14.089  0.00  0.00    +0.000 A 
ATOM     17  C   UNL     1       7.747   5.042  12.743  0.00  0.00    +0.000 A 
ATOM     18  C   UNL     1       7.044   4.138  11.957  0.00  0.00    +0.000 A 
ATOM     19  C   UNL     1       5.984   3.430  12.516  0.00  0.00    +0.000 A 
ATOM     20  F   UNL     1       5.302   2.566  11.748  0.00  0.00    +0.000 F 
ATOM     21  C   UNL     1       5.628   3.583  13.858  0.00  0.00    +0.000 A 
ENDBRANCH  14  15
ENDBRANCH   1  13
TORSDOF 5
ENDMDL
MODEL 2
REMARK VINA RESULT:      -7.5      0.243      2.724
REMARK  Name = 
REMARK  7 active torsions:
REMARK  status: ('A' for Active; 'I' for Inactive)
REMARK    1  A    between atoms: C_1  and  O_2
REMARK    2  A    between atoms: O_2  and  C_3
REMARK    3  A    between atoms: C_7  and  O_8
REMARK    4  A    between atoms: O_8  and  C_9
REMARK    5  A    between atoms: C_10  and  C_11
REMARK    6  A    between atoms: C_11  and  C_13
REMARK    7  A    between atoms: C_14  and  C_15
REMARK                            x       y       z     vdW  Elec       q    Type
REMARK                         _______ _______ _______ _____ _____    ______ ____
ROOT
ATOM      1  C   UNL     1       5.035   4.424  18.438  0.00  0.00    +0.000 C 
ATOM      2  O   UNL     1       6.135   4.448  18.984  0.00  0.00    +0.000 OA
ENDROOT
BRANCH   1   8
ATOM      3  C   UNL     1       3.009   5.477  19.459  0.00  0.00    +0.000 A 
ATOM      4  C   UNL     1       1.771   5.376  20.110  0.00  0.00    +0.000 A 
ATOM      5  C   UNL     1       1.313   4.141  20.564  0.00  0.00    +0.000 A 
ATOM      6  C   UNL     1       2.099   3.005  20.386  0.00  0.00    +0.000 A 
ATOM      7  C   UNL     1       3.340   3.077  19.741  0.00  0.00    +0.000 A 
ATOM      8  C   UNL     1       3.808   4.325  19.280  0.00  0.00    +0.000 A 
BRANCH   3  10
ATOM      9  C   UNL     1       2.590   7.507  18.296  0.00  0.00    +0.000 C 
ATOM     10  O   UNL     1       3.496   6.690  19.027  0.00  0.00    +0.000 OA
ENDBRANCH   3  10
BRANCH   7  11
ATOM     11  O   UNL     1       4.130   1.969  19.528  0.00  0.00    +0.000 OA
ATOM     12  C   UNL     1       3.776   1.146  18.419  0.00  0.00    +0.000 C 
ENDBRANCH   7  11
ENDBRANCH   1   8
BRANCH   1  13
ATOM     13  C   UNL     1       4.914   4.451  16.941  0.00  0.00    +0.000 C 
ATOM     14  C   UNL     1       6.045   4.666  16.241  0.00  0.00    +0.000 C 
BRANCH  14  15
ATOM     15  C   UNL     1       6.269   4.495  14.794  0.00  0.00    +0.000 A 
ATOM     16  C   UNL     1       7.338   5.212  14.224  0.00  0.00    +0.000 A 
ATOM     17  C   UNL     1       7.704   5.036  12.884  0.00  0.00    +0.000 A 
ATOM     18  C   UNL     1       6.985   4.152  12.090  0.00  0.00    +0.000 A 
ATOM     19  C   UNL     1       5.896   3.478  12.635  0.00  0.00    +0.000 A 
ATOM     20  F   UNL     1       5.199   2.634  11.860  0.00  0.00    +0.000 F 
ATOM     21  C   UNL     1       5.525   3.645  13.971  0.00  0.00    +0.000 A 
ENDBRANCH  14  15
ENDBRANCH   1  13
TORSDOF 5
ENDMDL
MODEL 3
REMARK VINA RESULT:      -7.4      1.198      2.952
REMARK  Name = 
REMARK  7 active torsions:
REMARK  status: ('A' for Active; 'I' for Inactive)
REMARK    1  A    between atoms: C_1  and  O_2
REMARK    2  A    between atoms: O_2  and  C_3
REMARK    3  A    between atoms: C_7  and  O_8
REMARK    4  A    between atoms: O_8  and  C_9
REMARK    5  A    between atoms: C_10  and  C_11
REMARK    6  A    between atoms: C_11  and  C_13
REMARK    7  A    between atoms: C_14  and  C_15
REMARK                            x       y       z     vdW  Elec       q    Type
REMARK                         _______ _______ _______ _____ _____    ______ ____
ROOT
ATOM      1  C   UNL     1       5.707   5.274  18.484  0.00  0.00    +0.000 C 
ATOM      2  O   UNL     1       6.323   5.547  19.511  0.00  0.00    +0.000 OA
ENDROOT
BRANCH   1   8
ATOM      3  C   UNL     1       3.289   5.751  18.066  0.00  0.00    +0.000 A 
ATOM      4  C   UNL     1       1.951   5.335  17.997  0.00  0.00    +0.000 A 
ATOM      5  C   UNL     1       1.589   4.055  18.413  0.00  0.00    +0.000 A 
ATOM      6  C   UNL     1       2.560   3.193  18.917  0.00  0.00    +0.000 A 
ATOM      7  C   UNL     1       3.903   3.582  18.998  0.00  0.00    +0.000 A 
ATOM      8  C   UNL     1       4.274   4.877  18.579  0.00  0.00    +0.000 A 
BRANCH   3  10
ATOM      9  C   UNL     1       2.725   8.056  17.939  0.00  0.00    +0.000 C 
ATOM     10  O   UNL     1       3.666   7.020  17.689  0.00  0.00    +0.000 OA
ENDBRANCH   3  10
BRANCH   7  11
ATOM     11  O   UNL     1       4.891   2.745  19.468  0.00  0.00    +0.000 OA
ATOM     12  C   UNL     1       4.542   1.918  20.576  0.00  0.00    +0.000 C 
ENDBRANCH   7  11
ENDBRANCH   1   8
BRANCH   1  13
ATOM     13  C   UNL     1       6.390   5.295  17.146  0.00  0.00    +0.000 C 
ATOM     14  C   UNL     1       5.970   4.398  16.232  0.00  0.00    +0.000 C 
BRANCH  14  15
ATOM     15  C   UNL     1       6.272   4.356  14.790  0.00  0.00    +0.000 A 
ATOM     16  C   UNL     1       7.340   5.152  14.337  0.00  0.00    +0.000 A 
ATOM     17  C   UNL     1       7.779   5.101  13.009  0.00  0.00    +0.000 A 
ATOM     18  C   UNL     1       7.134   4.263  12.108  0.00  0.00    +0.000 A 
ATOM     19  C   UNL     1       6.044   3.512  12.538  0.00  0.00    +0.000 A 
ATOM     20  F   UNL     1       5.419   2.712  11.660  0.00  0.00    +0.000 F 
ATOM     21  C   UNL     1       5.602   3.554  13.862  0.00  0.00    +0.000 A 
ENDBRANCH  14  15
ENDBRANCH   1  13
TORSDOF 5
ENDMDL
MODEL 4
REMARK VINA RESULT:      -7.4      1.563      1.926
REMARK  Name = 
REMARK  7 active torsions:
REMARK  status: ('A' for Active; 'I' for Inactive)
REMARK    1  A    between atoms: C_1  and  O_2
REMARK    2  A    between atoms: O_2  and  C_3
REMARK    3  A    between atoms: C_7  and  O_8
REMARK    4  A    between atoms: O_8  and  C_9
REMARK    5  A    between atoms: C_10  and  C_11
REMARK    6  A    between atoms: C_11  and  C_13
REMARK    7  A    between atoms: C_14  and  C_15
REMARK                            x       y       z     vdW  Elec       q    Type
REMARK                         _______ _______ _______ _____ _____    ______ ____
ROOT
ATOM      1  C   UNL     1       5.254   4.690  18.553  0.00  0.00    +0.000 C 
ATOM      2  O   UNL     1       5.638   5.313  19.539  0.00  0.00    +0.000 OA
ENDROOT
BRANCH   1   8
ATOM      3  C   UNL     1       3.688   2.824  19.118  0.00  0.00    +0.000 A 
ATOM      4  C   UNL     1       2.388   2.319  19.275  0.00  0.00    +0.000 A 
ATOM      5  C   UNL     1       1.286   3.082  18.894  0.00  0.00    +0.000 A 
ATOM      6  C   UNL     1       1.478   4.345  18.339  0.00  0.00    +0.000 A 
ATOM      7  C   UNL     1       2.764   4.874  18.170  0.00  0.00    +0.000 A 
ATOM      8  C   UNL     1       3.883   4.105  18.552  0.00  0.00    +0.000 A 
BRANCH   3  10
ATOM      9  C   UNL     1       4.858   1.631  20.807  0.00  0.00    +0.000 C 
ATOM     10  O   UNL     1       4.794   2.080  19.458  0.00  0.00    +0.000 OA
ENDBRANCH   3  10
BRANCH   7  11
ATOM     11  O   UNL     1       2.986   6.129  17.647  0.00  0.00    +0.000 OA
ATOM     12  C   UNL     1       2.548   7.229  18.439  0.00  0.00    +0.000 C 
ENDBRANCH   7  11
ENDBRANCH   1   8
BRANCH   1  13
ATOM     13  C   UNL     1       6.160   4.475  17.374  0.00  0.00    +0.000 C 
ATOM     14  C   UNL     1       5.569   4.280  16.178  0.00  0.00    +0.000 C 
BRANCH  14  15
ATOM     15  C   UNL     1       6.189   4.297  14.841  0.00  0.00    +0.000 A 
ATOM     16  C   UNL     1       5.588   3.501  13.848  0.00  0.00    +0.000 A 
ATOM     17  C   UNL     1       6.031   3.532  12.520  0.00  0.00    +0.000 A 
ATOM     18  C   UNL     1       7.101   4.347  12.174  0.00  0.00    +0.000 A 
ATOM     19  C   UNL     1       7.732   5.097  13.163  0.00  0.00    +0.000 A 
ATOM     20  F   UNL     1       8.772   5.874  12.825  0.00  0.00    +0.000 F 
ATOM     21  C   UNL     1       7.295   5.076  14.489  0.00  0.00    +0.000 A 
ENDBRANCH  14  15
ENDBRANCH   1  13
TORSDOF 5
ENDMDL
MODEL 5
REMARK VINA RESULT:      -7.3      1.099      3.099
REMARK  Name = 
REMARK  7 active torsions:
REMARK  status: ('A' for Active; 'I' for Inactive)
REMARK    1  A    between atoms: C_1  and  O_2
REMARK    2  A    between atoms: O_2  and  C_3
REMARK    3  A    between atoms: C_7  and  O_8
REMARK    4  A    between atoms: O_8  and  C_9
REMARK    5  A    between atoms: C_10  and  C_11
REMARK    6  A    between atoms: C_11  and  C_13
REMARK    7  A    between atoms: C_14  and  C_15
REMARK                            x       y       z     vdW  Elec       q    Type
REMARK                         _______ _______ _______ _____ _____    ______ ____
ROOT
ATOM      1  C   UNL     1       5.077   4.374  18.666  0.00  0.00    +0.000 C 
ATOM      2  O   UNL     1       6.129   4.569  19.268  0.00  0.00    +0.000 OA
ENDROOT
BRANCH   1   8
ATOM      3  C   UNL     1       2.979   5.409  19.551  0.00  0.00    +0.000 A 
ATOM      4  C   UNL     1       1.707   5.297  20.132  0.00  0.00    +0.000 A 
ATOM      5  C   UNL     1       1.246   4.062  20.582  0.00  0.00    +0.000 A 
ATOM      6  C   UNL     1       2.059   2.937  20.470  0.00  0.00    +0.000 A 
ATOM      7  C   UNL     1       3.334   3.020  19.894  0.00  0.00    +0.000 A 
ATOM      8  C   UNL     1       3.806   4.268  19.438  0.00  0.00    +0.000 A 
BRANCH   3  10
ATOM      9  C   UNL     1       2.684   7.314  18.162  0.00  0.00    +0.000 C 
ATOM     10  O   UNL     1       3.470   6.622  19.125  0.00  0.00    +0.000 OA
ENDBRANCH   3  10
BRANCH   7  11
ATOM     11  O   UNL     1       4.153   1.922  19.746  0.00  0.00    +0.000 OA
ATOM     12  C   UNL     1       3.859   1.059  18.650  0.00  0.00    +0.000 C 
ENDBRANCH   7  11
ENDBRANCH   1   8
BRANCH   1  13
ATOM     13  C   UNL     1       5.061   4.200  17.173  0.00  0.00    +0.000 C 
ATOM     14  C   UNL     1       6.040   4.812  16.478  0.00  0.00    +0.000 C 
BRANCH  14  15
ATOM     15  C   UNL     1       6.416   4.613  15.066  0.00  0.00    +0.000 A 
ATOM     16  C   UNL     1       5.669   3.672  14.333  0.00  0.00    +0.000 A 
ATOM     17  C   UNL     1       5.872   3.488  12.959  0.00  0.00    +0.000 A 
ATOM     18  C   UNL     1       6.844   4.234  12.306  0.00  0.00    +0.000 A 
ATOM     19  C   UNL     1       7.620   5.129  13.036  0.00  0.00    +0.000 A 
ATOM     20  F   UNL     1       8.565   5.839  12.401  0.00  0.00    +0.000 F 
ATOM     21  C   UNL     1       7.424   5.321  14.405  0.00  0.00    +0.000 A 
ENDBRANCH  14  15
ENDBRANCH   1  13
TORSDOF 5
ENDMDL
MODEL 6
REMARK VINA RESULT:      -7.3      1.611      3.296
REMARK  Name = 
REMARK  7 active torsions:
REMARK  status: ('A' for Active; 'I' for Inactive)
REMARK    1  A    between atoms: C_1  and  O_2
REMARK    2  A    between atoms: O_2  and  C_3
REMARK    3  A    between atoms: C_7  and  O_8
REMARK    4  A    between atoms: O_8  and  C_9
REMARK    5  A    between atoms: C_10  and  C_11
REMARK    6  A    between atoms: C_11  and  C_13
REMARK    7  A    between atoms: C_14  and  C_15
REMARK                            x       y       z     vdW  Elec       q    Type
REMARK                         _______ _______ _______ _____ _____    ______ ____
ROOT
ATOM      1  C   UNL     1       5.610   4.994  18.603  0.00  0.00    +0.000 C 
ATOM      2  O   UNL     1       6.133   5.274  19.678  0.00  0.00    +0.000 OA
ENDROOT
BRANCH   1   8
ATOM      3  C   UNL     1       3.201   5.288  18.001  0.00  0.00    +0.000 A 
ATOM      4  C   UNL     1       1.908   4.771  17.829  0.00  0.00    +0.000 A 
ATOM      5  C   UNL     1       1.615   3.465  18.215  0.00  0.00    +0.000 A 
ATOM      6  C   UNL     1       2.608   2.676  18.791  0.00  0.00    +0.000 A 
ATOM      7  C   UNL     1       3.906   3.166  18.975  0.00  0.00    +0.000 A 
ATOM      8  C   UNL     1       4.208   4.488  18.588  0.00  0.00    +0.000 A 
BRANCH   3  10
ATOM      9  C   UNL     1       2.749   7.602  18.295  0.00  0.00    +0.000 C 
ATOM     10  O   UNL     1       3.508   6.584  17.655  0.00  0.00    +0.000 OA
ENDBRANCH   3  10
BRANCH   7  11
ATOM     11  O   UNL     1       4.916   2.403  19.520  0.00  0.00    +0.000 OA
ATOM     12  C   UNL     1       4.612   1.730  20.739  0.00  0.00    +0.000 C 
ENDBRANCH   7  11
ENDBRANCH   1   8
BRANCH   1  13
ATOM     13  C   UNL     1       6.376   5.114  17.316  0.00  0.00    +0.000 C 
ATOM     14  C   UNL     1       6.072   4.234  16.341  0.00  0.00    +0.000 C 
BRANCH  14  15
ATOM     15  C   UNL     1       6.469   4.274  14.922  0.00  0.00    +0.000 A 
ATOM     16  C   UNL     1       5.737   3.466  14.031  0.00  0.00    +0.000 A 
ATOM     17  C   UNL     1       5.960   3.514  12.649  0.00  0.00    +0.000 A 
ATOM     18  C   UNL     1       6.939   4.359  12.143  0.00  0.00    +0.000 A 
ATOM     19  C   UNL     1       7.701   5.122  13.024  0.00  0.00    +0.000 A 
ATOM     20  F   UNL     1       8.652   5.928  12.530  0.00  0.00    +0.000 F 
ATOM     21  C   UNL     1       7.484   5.083  14.403  0.00  0.00    +0.000 A 
ENDBRANCH  14  15
ENDBRANCH   1  13
TORSDOF 5
ENDMDL
MODEL 7
REMARK VINA RESULT:      -7.3      1.235      1.621
REMARK  Name = 
REMARK  7 active torsions:
REMARK  status: ('A' for Active; 'I' for Inactive)
REMARK    1  A    between atoms: C_1  and  O_2
REMARK    2  A    between atoms: O_2  and  C_3
REMARK    3  A    between atoms: C_7  and  O_8
REMARK    4  A    between atoms: O_8  and  C_9
REMARK    5  A    between atoms: C_10  and  C_11
REMARK    6  A    between atoms: C_11  and  C_13
REMARK    7  A    between atoms: C_14  and  C_15
REMARK                            x       y       z     vdW  Elec       q    Type
REMARK                         _______ _______ _______ _____ _____    ______ ____
ROOT
ATOM      1  C   UNL     1       4.690   4.840  18.708  0.00  0.00    +0.000 C 
ATOM      2  O   UNL     1       5.671   5.165  19.372  0.00  0.00    +0.000 OA
ENDROOT
BRANCH   1   8
ATOM      3  C   UNL     1       3.284   3.088  19.806  0.00  0.00    +0.000 A 
ATOM      4  C   UNL     1       2.194   2.714  20.606  0.00  0.00    +0.000 A 
ATOM      5  C   UNL     1       1.273   3.669  21.031  0.00  0.00    +0.000 A 
ATOM      6  C   UNL     1       1.427   4.998  20.643  0.00  0.00    +0.000 A 
ATOM      7  C   UNL     1       2.504   5.399  19.844  0.00  0.00    +0.000 A 
ATOM      8  C   UNL     1       3.439   4.436  19.410  0.00  0.00    +0.000 A 
BRANCH   3  10
ATOM      9  C   UNL     1       3.732   1.280  18.329  0.00  0.00    +0.000 C 
ATOM     10  O   UNL     1       4.191   2.159  19.349  0.00  0.00    +0.000 OA
ENDBRANCH   3  10
BRANCH   7  11
ATOM     11  O   UNL     1       2.698   6.709  19.464  0.00  0.00    +0.000 OA
ATOM     12  C   UNL     1       1.895   7.683  20.126  0.00  0.00    +0.000 C 
ENDBRANCH   7  11
ENDBRANCH   1   8
BRANCH   1  13
ATOM     13  C   UNL     1       4.750   4.804  17.207  0.00  0.00    +0.000 C 
ATOM     14  C   UNL     1       5.968   4.930  16.642  0.00  0.00    +0.000 C 
BRANCH  14  15
ATOM     15  C   UNL     1       6.352   4.682  15.241  0.00  0.00    +0.000 A 
ATOM     16  C   UNL     1       5.546   3.793  14.505  0.00  0.00    +0.000 A 
ATOM     17  C   UNL     1       5.758   3.575  13.138  0.00  0.00    +0.000 A 
ATOM     18  C   UNL     1       6.800   4.230  12.494  0.00  0.00    +0.000 A 
ATOM     19  C   UNL     1       7.632   5.071  13.229  0.00  0.00    +0.000 A 
ATOM     20  F   UNL     1       8.643   5.692  12.604  0.00  0.00    +0.000 F 
ATOM     21  C   UNL     1       7.426   5.297  14.591  0.00  0.00    +0.000 A 
ENDBRANCH  14  15
ENDBRANCH   1  13
TORSDOF 5
ENDMDL
MODEL 8
REMARK VINA RESULT:      -7.3      1.099      1.138
REMARK  Name = 
REMARK  7 active torsions:
REMARK  status: ('A' for Active; 'I' for Inactive)
REMARK    1  A    between atoms: C_1  and  O_2
REMARK    2  A    between atoms: O_2  and  C_3
REMARK    3  A    between atoms: C_7  and  O_8
REMARK    4  A    between atoms: O_8  and  C_9
REMARK    5  A    between atoms: C_10  and  C_11
REMARK    6  A    between atoms: C_11  and  C_13
REMARK    7  A    between atoms: C_14  and  C_15
REMARK                            x       y       z     vdW  Elec       q    Type
REMARK                         _______ _______ _______ _____ _____    ______ ____
ROOT
ATOM      1  C   UNL     1       5.640   4.648  18.363  0.00  0.00    +0.000 C 
ATOM      2  O   UNL     1       6.223   4.861  19.423  0.00  0.00    +0.000 OA
ENDROOT
BRANCH   1   8
ATOM      3  C   UNL     1       3.639   3.231  18.852  0.00  0.00    +0.000 A 
ATOM      4  C   UNL     1       2.254   3.082  19.023  0.00  0.00    +0.000 A 
ATOM      5  C   UNL     1       1.392   4.140  18.742  0.00  0.00    +0.000 A 
ATOM      6  C   UNL     1       1.908   5.345  18.272  0.00  0.00    +0.000 A 
ATOM      7  C   UNL     1       3.286   5.522  18.091  0.00  0.00    +0.000 A 
ATOM      8  C   UNL     1       4.163   4.454  18.373  0.00  0.00    +0.000 A 
BRANCH   3  10
ATOM      9  C   UNL     1       4.672   1.816  20.458  0.00  0.00    +0.000 C 
ATOM     10  O   UNL     1       4.508   2.193  19.096  0.00  0.00    +0.000 OA
ENDBRANCH   3  10
BRANCH   7  11
ATOM     11  O   UNL     1       3.829   6.709  17.651  0.00  0.00    +0.000 OA
ATOM     12  C   UNL     1       3.005   7.866  17.778  0.00  0.00    +0.000 C 
ENDBRANCH   7  11
ENDBRANCH   1   8
BRANCH   1  13
ATOM     13  C   UNL     1       6.400   4.539  17.072  0.00  0.00    +0.000 C 
ATOM     14  C   UNL     1       5.712   4.117  15.993  0.00  0.00    +0.000 C 
BRANCH  14  15
ATOM     15  C   UNL     1       6.122   4.157  14.577  0.00  0.00    +0.000 A 
ATOM     16  C   UNL     1       7.169   5.034  14.240  0.00  0.00    +0.000 A 
ATOM     17  C   UNL     1       7.708   5.068  12.948  0.00  0.00    +0.000 A 
ATOM     18  C   UNL     1       7.185   4.234  11.968  0.00  0.00    +0.000 A 
ATOM     19  C   UNL     1       6.115   3.401  12.283  0.00  0.00    +0.000 A 
ATOM     20  F   UNL     1       5.608   2.606  11.329  0.00  0.00    +0.000 F 
ATOM     21  C   UNL     1       5.574   3.359  13.569  0.00  0.00    +0.000 A 
ENDBRANCH  14  15
ENDBRANCH   1  13
TORSDOF 5
ENDMDL
MODEL 9
REMARK VINA RESULT:      -7.2      1.746      2.031
REMARK  Name = 
REMARK  7 active torsions:
REMARK  status: ('A' for Active; 'I' for Inactive)
REMARK    1  A    between atoms: C_1  and  O_2
REMARK    2  A    between atoms: O_2  and  C_3
REMARK    3  A    between atoms: C_7  and  O_8
REMARK    4  A    between atoms: O_8  and  C_9
REMARK    5  A    between atoms: C_10  and  C_11
REMARK    6  A    between atoms: C_11  and  C_13
REMARK    7  A    between atoms: C_14  and  C_15
REMARK                            x       y       z     vdW  Elec       q    Type
REMARK                         _______ _______ _______ _____ _____    ______ ____
ROOT
ATOM      1  C   UNL     1       5.492   4.467  18.135  0.00  0.00    +0.000 C 
ATOM      2  O   UNL     1       5.949   4.391  19.272  0.00  0.00    +0.000 OA
ENDROOT
BRANCH   1   8
ATOM      3  C   UNL     1       3.379   3.143  17.947  0.00  0.00    +0.000 A 
ATOM      4  C   UNL     1       1.978   3.066  17.926  0.00  0.00    +0.000 A 
ATOM      5  C   UNL     1       1.209   4.227  17.918  0.00  0.00    +0.000 A 
ATOM      6  C   UNL     1       1.836   5.471  17.913  0.00  0.00    +0.000 A 
ATOM      7  C   UNL     1       3.232   5.578  17.932  0.00  0.00    +0.000 A 
ATOM      8  C   UNL     1       4.015   4.406  17.939  0.00  0.00    +0.000 A 
BRANCH   3  10
ATOM      9  C   UNL     1       3.825   0.998  18.866  0.00  0.00    +0.000 C 
ATOM     10  O   UNL     1       4.161   2.011  17.926  0.00  0.00    +0.000 OA
ENDBRANCH   3  10
BRANCH   7  11
ATOM     11  O   UNL     1       3.882   6.793  17.952  0.00  0.00    +0.000 OA
ATOM     12  C   UNL     1       3.061   7.950  17.816  0.00  0.00    +0.000 C 
ENDBRANCH   7  11
ENDBRANCH   1   8
BRANCH   1  13
ATOM     13  C   UNL     1       6.400   4.577  16.943  0.00  0.00    +0.000 C 
ATOM     14  C   UNL     1       5.959   4.041  15.788  0.00  0.00    +0.000 C 
BRANCH  14  15
ATOM     15  C   UNL     1       6.509   4.219  14.432  0.00  0.00    +0.000 A 
ATOM     16  C   UNL     1       5.965   3.415  13.412  0.00  0.00    +0.000 A 
ATOM     17  C   UNL     1       6.338   3.583  12.072  0.00  0.00    +0.000 A 
ATOM     18  C   UNL     1       7.281   4.547  11.740  0.00  0.00    +0.000 A 
ATOM     19  C   UNL     1       7.859   5.309  12.751  0.00  0.00    +0.000 A 
ATOM     20  F   UNL     1       8.777   6.232  12.426  0.00  0.00    +0.000 F 
ATOM     21  C   UNL     1       7.491   5.151  14.089  0.00  0.00    +0.000 A 
ENDBRANCH  14  15
ENDBRANCH   1  13
TORSDOF 5
ENDMDL
