MODEL 1
REMARK VINA RESULT:      -7.1      0.000      0.000
REMARK  Name = 
REMARK  2 active torsions:
REMARK  status: ('A' for Active; 'I' for Inactive)
REMARK    1  A    between atoms: C_2  and  C_12
REMARK    2  A    between atoms: N_3  and  C_4
REMARK                            x       y       z     vdW  Elec       q    Type
REMARK                         _______ _______ _______ _____ _____    ______ ____
ROOT
ATOM      1  O   UNL     1       2.033   8.178  19.035  0.00  0.00    +0.000 OA
ATOM      2  C   UNL     1       1.634   7.914  20.165  0.00  0.00    +0.000 C 
ATOM      3  N   UNL     1       1.628   6.660  20.745  0.00  0.00    +0.000 N 
ATOM      4  H   UNL     1       1.096   6.542  21.597  0.00  0.00    +0.000 HD
ENDROOT
BRANCH   2   5
ATOM      5  C   UNL     1       1.025   9.014  20.991  0.00  0.00    +0.000 A 
ATOM      6  C   UNL     1       0.372   8.657  22.258  0.00  0.00    +0.000 A 
ATOM      7  C   UNL     1      -0.275   9.563  23.015  0.00  0.00    +0.000 A 
ATOM      8  C   UNL     1      -0.332  10.917  22.588  0.00  0.00    +0.000 A 
ATOM      9  N   UNL     1      -0.905  11.974  23.122  0.00  0.00    +0.000 NA
ATOM     10  C   UNL     1      -0.649  13.003  22.253  0.00  0.00    +0.000 A 
ATOM     11  C   UNL     1       0.095  12.570  21.179  0.00  0.00    +0.000 A 
ATOM     12  N   UNL     1       0.294  11.228  21.386  0.00  0.00    +0.000 N 
ATOM     13  C   UNL     1       0.959  10.299  20.588  0.00  0.00    +0.000 A 
ENDBRANCH   2   5
BRANCH   3  14
ATOM     14  C   UNL     1       2.160   5.481  20.174  0.00  0.00    +0.000 A 
ATOM     15  C   UNL     1       3.519   5.303  19.899  0.00  0.00    +0.000 A 
ATOM     16  C   UNL     1       3.978   4.135  19.284  0.00  0.00    +0.000 A 
ATOM     17  C   UNL     1       3.083   3.123  18.941  0.00  0.00    +0.000 A 
ATOM     18 CL   UNL     1       3.713   1.725  18.149  0.00  0.00    +0.000 Cl
ATOM     19  C   UNL     1       1.727   3.275  19.242  0.00  0.00    +0.000 A 
ATOM     20 CL   UNL     1       0.554   2.067  18.851  0.00  0.00    +0.000 Cl
ATOM     21  C   UNL     1       1.271   4.445  19.867  0.00  0.00    +0.000 A 
ENDBRANCH   3  14
TORSDOF 2
ENDMDL
MODEL 2
REMARK VINA RESULT:      -7.0      2.094      2.764
REMARK  Name = 
REMARK  2 active torsions:
REMARK  status: ('A' for Active; 'I' for Inactive)
REMARK    1  A    between atoms: C_2  and  C_12
REMARK    2  A    between atoms: N_3  and  C_4
REMARK                            x       y       z     vdW  Elec       q    Type
REMARK                         _______ _______ _______ _____ _____    ______ ____
ROOT
ATOM      1  O   UNL     1       2.206   9.101  17.291  0.00  0.00    +0.000 OA
ATOM      2  C   UNL     1       1.976   8.582  18.379  0.00  0.00    +0.000 C 
ATOM      3  N   UNL     1       2.426   7.343  18.793  0.00  0.00    +0.000 N 
ATOM      4  H   UNL     1       2.009   6.948  19.624  0.00  0.00    +0.000 HD
ENDROOT
BRANCH   2   5
ATOM      5  C   UNL     1       1.070   9.298  19.343  0.00  0.00    +0.000 A 
ATOM      6  C   UNL     1       0.386  10.517  18.887  0.00  0.00    +0.000 A 
ATOM      7  C   UNL     1      -0.371  11.267  19.709  0.00  0.00    +0.000 A 
ATOM      8  C   UNL     1      -0.528  10.877  21.065  0.00  0.00    +0.000 A 
ATOM      9  N   UNL     1      -1.185  11.433  22.060  0.00  0.00    +0.000 NA
ATOM     10  C   UNL     1      -0.956  10.624  23.143  0.00  0.00    +0.000 A 
ATOM     11  C   UNL     1      -0.156   9.556  22.803  0.00  0.00    +0.000 A 
ATOM     12  N   UNL     1       0.129   9.720  21.471  0.00  0.00    +0.000 N 
ATOM     13  C   UNL     1       0.923   8.938  20.635  0.00  0.00    +0.000 A 
ENDBRANCH   2   5
BRANCH   3  14
ATOM     14  C   UNL     1       3.300   6.496  18.071  0.00  0.00    +0.000 A 
ATOM     15  C   UNL     1       4.346   6.969  17.274  0.00  0.00    +0.000 A 
ATOM     16  C   UNL     1       5.144   6.084  16.541  0.00  0.00    +0.000 A 
ATOM     17  C   UNL     1       4.910   4.712  16.604  0.00  0.00    +0.000 A 
ATOM     18 CL   UNL     1       5.907   3.681  15.644  0.00  0.00    +0.000 Cl
ATOM     19  C   UNL     1       3.889   4.225  17.425  0.00  0.00    +0.000 A 
ATOM     20 CL   UNL     1       3.537   2.538  17.558  0.00  0.00    +0.000 Cl
ATOM     21  C   UNL     1       3.096   5.115  18.164  0.00  0.00    +0.000 A 
ENDBRANCH   3  14
TORSDOF 2
ENDMDL
MODEL 3
REMARK VINA RESULT:      -7.0      1.920      2.142
REMARK  Name = 
REMARK  2 active torsions:
REMARK  status: ('A' for Active; 'I' for Inactive)
REMARK    1  A    between atoms: C_2  and  C_12
REMARK    2  A    between atoms: N_3  and  C_4
REMARK                            x       y       z     vdW  Elec       q    Type
REMARK                         _______ _______ _______ _____ _____    ______ ____
ROOT
ATOM      1  O   UNL     1       1.438   8.949  17.850  0.00  0.00    +0.000 OA
ATOM      2  C   UNL     1       1.655   8.555  18.992  0.00  0.00    +0.000 C 
ATOM      3  N   UNL     1       2.418   7.454  19.334  0.00  0.00    +0.000 N 
ATOM      4  H   UNL     1       2.357   7.121  20.286  0.00  0.00    +0.000 HD
ENDROOT
BRANCH   2   5
ATOM      5  C   UNL     1       0.990   9.265  20.140  0.00  0.00    +0.000 A 
ATOM      6  C   UNL     1       1.174   8.728  21.495  0.00  0.00    +0.000 A 
ATOM      7  C   UNL     1       0.545   9.246  22.567  0.00  0.00    +0.000 A 
ATOM      8  C   UNL     1      -0.326  10.355  22.396  0.00  0.00    +0.000 A 
ATOM      9  N   UNL     1      -1.061  11.023  23.258  0.00  0.00    +0.000 NA
ATOM     10  C   UNL     1      -1.715  11.974  22.517  0.00  0.00    +0.000 A 
ATOM     11  C   UNL     1      -1.368  11.889  21.187  0.00  0.00    +0.000 A 
ATOM     12  N   UNL     1      -0.482  10.844  21.104  0.00  0.00    +0.000 N 
ATOM     13  C   UNL     1       0.155  10.313  19.984  0.00  0.00    +0.000 A 
ENDBRANCH   2   5
BRANCH   3  14
ATOM     14  C   UNL     1       3.150   6.644  18.435  0.00  0.00    +0.000 A 
ATOM     15  C   UNL     1       4.171   7.132  17.614  0.00  0.00    +0.000 A 
ATOM     16  C   UNL     1       4.824   6.292  16.707  0.00  0.00    +0.000 A 
ATOM     17  C   UNL     1       4.469   4.948  16.615  0.00  0.00    +0.000 A 
ATOM     18 CL   UNL     1       5.289   3.977  15.447  0.00  0.00    +0.000 Cl
ATOM     19  C   UNL     1       3.474   4.440  17.455  0.00  0.00    +0.000 A 
ATOM     20 CL   UNL     1       2.978   2.785  17.403  0.00  0.00    +0.000 Cl
ATOM     21  C   UNL     1       2.827   5.284  18.369  0.00  0.00    +0.000 A 
ENDBRANCH   3  14
TORSDOF 2
ENDMDL
MODEL 4
REMARK VINA RESULT:      -6.9      4.153      7.920
REMARK  Name = 
REMARK  2 active torsions:
REMARK  status: ('A' for Active; 'I' for Inactive)
REMARK    1  A    between atoms: C_2  and  C_12
REMARK    2  A    between atoms: N_3  and  C_4
REMARK                            x       y       z     vdW  Elec       q    Type
REMARK                         _______ _______ _______ _____ _____    ______ ____
ROOT
ATOM      1  O   UNL     1       1.711   5.697  20.418  0.00  0.00    +0.000 OA
ATOM      2  C   UNL     1       2.253   6.412  19.581  0.00  0.00    +0.000 C 
ATOM      3  N   UNL     1       2.098   7.781  19.467  0.00  0.00    +0.000 N 
ATOM      4  H   UNL     1       2.438   8.221  18.623  0.00  0.00    +0.000 HD
ENDROOT
BRANCH   2   5
ATOM      5  C   UNL     1       3.111   5.766  18.527  0.00  0.00    +0.000 A 
ATOM      6  C   UNL     1       2.741   4.427  18.048  0.00  0.00    +0.000 A 
ATOM      7  C   UNL     1       3.500   3.740  17.173  0.00  0.00    +0.000 A 
ATOM      8  C   UNL     1       4.700   4.320  16.684  0.00  0.00    +0.000 A 
ATOM      9  N   UNL     1       5.612   3.863  15.854  0.00  0.00    +0.000 NA
ATOM     10  C   UNL     1       6.559   4.851  15.774  0.00  0.00    +0.000 A 
ATOM     11  C   UNL     1       6.216   5.929  16.559  0.00  0.00    +0.000 A 
ATOM     12  N   UNL     1       5.027   5.589  17.152  0.00  0.00    +0.000 N 
ATOM     13  C   UNL     1       4.256   6.308  18.064  0.00  0.00    +0.000 A 
ENDBRANCH   2   5
BRANCH   3  14
ATOM     14  C   UNL     1       1.360   8.606  20.347  0.00  0.00    +0.000 A 
ATOM     15  C   UNL     1       1.437   8.511  21.739  0.00  0.00    +0.000 A 
ATOM     16  C   UNL     1       0.642   9.320  22.557  0.00  0.00    +0.000 A 
ATOM     17  C   UNL     1      -0.238  10.241  21.991  0.00  0.00    +0.000 A 
ATOM     18 CL   UNL     1      -1.217  11.179  23.058  0.00  0.00    +0.000 Cl
ATOM     19  C   UNL     1      -0.299  10.369  20.601  0.00  0.00    +0.000 A 
ATOM     20 CL   UNL     1      -1.361  11.488  19.823  0.00  0.00    +0.000 Cl
ATOM     21  C   UNL     1       0.507   9.562  19.784  0.00  0.00    +0.000 A 
ENDBRANCH   3  14
TORSDOF 2
ENDMDL
MODEL 5
REMARK VINA RESULT:      -6.9      0.778      1.631
REMARK  Name = 
REMARK  2 active torsions:
REMARK  status: ('A' for Active; 'I' for Inactive)
REMARK    1  A    between atoms: C_2  and  C_12
REMARK    2  A    between atoms: N_3  and  C_4
REMARK                            x       y       z     vdW  Elec       q    Type
REMARK                         _______ _______ _______ _____ _____    ______ ____
ROOT
ATOM      1  O   UNL     1       2.051   8.063  19.175  0.00  0.00    +0.000 OA
ATOM      2  C   UNL     1       1.581   7.840  20.286  0.00  0.00    +0.000 C 
ATOM      3  N   UNL     1       1.473   6.598  20.882  0.00  0.00    +0.000 N 
ATOM      4  H   UNL     1       0.893   6.524  21.707  0.00  0.00    +0.000 HD
ENDROOT
BRANCH   2   5
ATOM      5  C   UNL     1       0.996   8.986  21.067  0.00  0.00    +0.000 A 
ATOM      6  C   UNL     1       0.330   8.695  22.344  0.00  0.00    +0.000 A 
ATOM      7  C   UNL     1      -0.297   9.646  23.062  0.00  0.00    +0.000 A 
ATOM      8  C   UNL     1      -0.320  10.982  22.582  0.00  0.00    +0.000 A 
ATOM      9  N   UNL     1      -0.868  12.073  23.072  0.00  0.00    +0.000 NA
ATOM     10  C   UNL     1      -0.585  13.061  22.164  0.00  0.00    +0.000 A 
ATOM     11  C   UNL     1       0.153  12.568  21.112  0.00  0.00    +0.000 A 
ATOM     12  N   UNL     1       0.318  11.231  21.371  0.00  0.00    +0.000 N 
ATOM     13  C   UNL     1       0.963  10.256  20.613  0.00  0.00    +0.000 A 
ENDBRANCH   2   5
BRANCH   3  14
ATOM     14  C   UNL     1       1.964   5.381  20.353  0.00  0.00    +0.000 A 
ATOM     15  C   UNL     1       1.211   4.205  20.300  0.00  0.00    +0.000 A 
ATOM     16  C   UNL     1       1.770   3.019  19.814  0.00  0.00    +0.000 A 
ATOM     17  C   UNL     1       3.089   2.996  19.368  0.00  0.00    +0.000 A 
ATOM     18 CL   UNL     1       3.727   1.489  18.818  0.00  0.00    +0.000 Cl
ATOM     19  C   UNL     1       3.841   4.173  19.384  0.00  0.00    +0.000 A 
ATOM     20 CL   UNL     1       5.483   4.228  18.846  0.00  0.00    +0.000 Cl
ATOM     21  C   UNL     1       3.275   5.364  19.865  0.00  0.00    +0.000 A 
ENDBRANCH   3  14
TORSDOF 2
ENDMDL
MODEL 6
REMARK VINA RESULT:      -6.8      2.235      2.863
REMARK  Name = 
REMARK  2 active torsions:
REMARK  status: ('A' for Active; 'I' for Inactive)
REMARK    1  A    between atoms: C_2  and  C_12
REMARK    2  A    between atoms: N_3  and  C_4
REMARK                            x       y       z     vdW  Elec       q    Type
REMARK                         _______ _______ _______ _____ _____    ______ ____
ROOT
ATOM      1  O   UNL     1       1.882   8.796  17.727  0.00  0.00    +0.000 OA
ATOM      2  C   UNL     1       1.908   8.327  18.860  0.00  0.00    +0.000 C 
ATOM      3  N   UNL     1       2.488   7.126  19.223  0.00  0.00    +0.000 N 
ATOM      4  H   UNL     1       2.271   6.760  20.140  0.00  0.00    +0.000 HD
ENDROOT
BRANCH   2   5
ATOM      5  C   UNL     1       1.193   9.060  19.963  0.00  0.00    +0.000 A 
ATOM      6  C   UNL     1       1.273   8.522  21.328  0.00  0.00    +0.000 A 
ATOM      7  C   UNL     1       0.593   9.063  22.356  0.00  0.00    +0.000 A 
ATOM      8  C   UNL     1      -0.231  10.197  22.129  0.00  0.00    +0.000 A 
ATOM      9  N   UNL     1      -0.998  10.891  22.941  0.00  0.00    +0.000 NA
ATOM     10  C   UNL     1      -1.574  11.859  22.158  0.00  0.00    +0.000 A 
ATOM     11  C   UNL     1      -1.145  11.759  20.854  0.00  0.00    +0.000 A 
ATOM     12  N   UNL     1      -0.289  10.687  20.828  0.00  0.00    +0.000 N 
ATOM     13  C   UNL     1       0.402  10.133  19.753  0.00  0.00    +0.000 A 
ENDBRANCH   2   5
BRANCH   3  14
ATOM     14  C   UNL     1       3.227   6.273  18.370  0.00  0.00    +0.000 A 
ATOM     15  C   UNL     1       2.743   5.051  17.895  0.00  0.00    +0.000 A 
ATOM     16  C   UNL     1       3.542   4.226  17.098  0.00  0.00    +0.000 A 
ATOM     17  C   UNL     1       4.836   4.617  16.758  0.00  0.00    +0.000 A 
ATOM     18 CL   UNL     1       5.780   3.534  15.803  0.00  0.00    +0.000 Cl
ATOM     19  C   UNL     1       5.318   5.853  17.198  0.00  0.00    +0.000 A 
ATOM     20 CL   UNL     1       6.909   6.411  16.818  0.00  0.00    +0.000 Cl
ATOM     21  C   UNL     1       4.510   6.682  17.991  0.00  0.00    +0.000 A 
ENDBRANCH   3  14
TORSDOF 2
ENDMDL
MODEL 7
REMARK VINA RESULT:      -6.8      4.175      7.860
REMARK  Name = 
REMARK  2 active torsions:
REMARK  status: ('A' for Active; 'I' for Inactive)
REMARK    1  A    between atoms: C_2  and  C_12
REMARK    2  A    between atoms: N_3  and  C_4
REMARK                            x       y       z     vdW  Elec       q    Type
REMARK                         _______ _______ _______ _____ _____    ______ ____
ROOT
ATOM      1  O   UNL     1       2.199   9.134  18.015  0.00  0.00    +0.000 OA
ATOM      2  C   UNL     1       2.263   8.074  18.629  0.00  0.00    +0.000 C 
ATOM      3  N   UNL     1       1.783   7.851  19.906  0.00  0.00    +0.000 N 
ATOM      4  H   UNL     1       2.071   7.001  20.371  0.00  0.00    +0.000 HD
ENDROOT
BRANCH   2   5
ATOM      5  C   UNL     1       2.985   6.915  17.996  0.00  0.00    +0.000 A 
ATOM      6  C   UNL     1       2.396   5.574  18.117  0.00  0.00    +0.000 A 
ATOM      7  C   UNL     1       3.017   4.471  17.659  0.00  0.00    +0.000 A 
ATOM      8  C   UNL     1       4.285   4.594  17.030  0.00  0.00    +0.000 A 
ATOM      9  N   UNL     1       5.095   3.691  16.523  0.00  0.00    +0.000 NA
ATOM     10  C   UNL     1       6.186   4.391  16.077  0.00  0.00    +0.000 A 
ATOM     11  C   UNL     1       6.036   5.740  16.308  0.00  0.00    +0.000 A 
ATOM     12  N   UNL     1       4.820   5.874  16.928  0.00  0.00    +0.000 N 
ATOM     13  C   UNL     1       4.193   7.023  17.405  0.00  0.00    +0.000 A 
ENDBRANCH   2   5
BRANCH   3  14
ATOM     14  C   UNL     1       1.058   8.777  20.691  0.00  0.00    +0.000 A 
ATOM     15  C   UNL     1       1.106   8.807  22.087  0.00  0.00    +0.000 A 
ATOM     16  C   UNL     1       0.324   9.713  22.811  0.00  0.00    +0.000 A 
ATOM     17  C   UNL     1      -0.511  10.608  22.145  0.00  0.00    +0.000 A 
ATOM     18 CL   UNL     1      -1.477  11.671  23.102  0.00  0.00    +0.000 Cl
ATOM     19  C   UNL     1      -0.542  10.610  20.748  0.00  0.00    +0.000 A 
ATOM     20 CL   UNL     1      -1.549  11.689  19.849  0.00  0.00    +0.000 Cl
ATOM     21  C   UNL     1       0.250   9.706  20.025  0.00  0.00    +0.000 A 
ENDBRANCH   3  14
TORSDOF 2
ENDMDL
MODEL 8
REMARK VINA RESULT:      -6.7      4.321      8.086
REMARK  Name = 
REMARK  2 active torsions:
REMARK  status: ('A' for Active; 'I' for Inactive)
REMARK    1  A    between atoms: C_2  and  C_12
REMARK    2  A    between atoms: N_3  and  C_4
REMARK                            x       y       z     vdW  Elec       q    Type
REMARK                         _______ _______ _______ _____ _____    ______ ____
ROOT
ATOM      1  O   UNL     1       2.112   6.075  19.731  0.00  0.00    +0.000 OA
ATOM      2  C   UNL     1       2.809   6.707  18.943  0.00  0.00    +0.000 C 
ATOM      3  N   UNL     1       2.562   7.993  18.500  0.00  0.00    +0.000 N 
ATOM      4  H   UNL     1       3.095   8.325  17.708  0.00  0.00    +0.000 HD
ENDROOT
BRANCH   2   5
ATOM      5  C   UNL     1       4.003   6.028  18.329  0.00  0.00    +0.000 A 
ATOM      6  C   UNL     1       5.006   5.434  19.224  0.00  0.00    +0.000 A 
ATOM      7  C   UNL     1       6.147   4.887  18.764  0.00  0.00    +0.000 A 
ATOM      8  C   UNL     1       6.401   4.872  17.367  0.00  0.00    +0.000 A 
ATOM      9  N   UNL     1       7.425   4.424  16.674  0.00  0.00    +0.000 NA
ATOM     10  C   UNL     1       7.127   4.703  15.365  0.00  0.00    +0.000 A 
ATOM     11  C   UNL     1       5.902   5.321  15.257  0.00  0.00    +0.000 A 
ATOM     12  N   UNL     1       5.435   5.440  16.542  0.00  0.00    +0.000 N 
ATOM     13  C   UNL     1       4.255   6.018  17.004  0.00  0.00    +0.000 A 
ENDBRANCH   2   5
BRANCH   3  14
ATOM     14  C   UNL     1       1.515   8.834  18.944  0.00  0.00    +0.000 A 
ATOM     15  C   UNL     1       0.739   9.618  18.085  0.00  0.00    +0.000 A 
ATOM     16  C   UNL     1      -0.247  10.471  18.589  0.00  0.00    +0.000 A 
ATOM     17  C   UNL     1      -0.476  10.546  19.961  0.00  0.00    +0.000 A 
ATOM     18 CL   UNL     1      -1.682  11.649  20.517  0.00  0.00    +0.000 Cl
ATOM     19  C   UNL     1       0.270   9.742  20.828  0.00  0.00    +0.000 A 
ATOM     20 CL   UNL     1       0.045   9.775  22.541  0.00  0.00    +0.000 Cl
ATOM     21  C   UNL     1       1.253   8.881  20.317  0.00  0.00    +0.000 A 
ENDBRANCH   3  14
TORSDOF 2
ENDMDL
MODEL 9
REMARK VINA RESULT:      -6.7      4.551      8.264
REMARK  Name = 
REMARK  2 active torsions:
REMARK  status: ('A' for Active; 'I' for Inactive)
REMARK    1  A    between atoms: C_2  and  C_12
REMARK    2  A    between atoms: N_3  and  C_4
REMARK                            x       y       z     vdW  Elec       q    Type
REMARK                         _______ _______ _______ _____ _____    ______ ____
ROOT
ATOM      1  O   UNL     1       2.186   7.605  19.722  0.00  0.00    +0.000 OA
ATOM      2  C   UNL     1       2.432   7.709  18.525  0.00  0.00    +0.000 C 
ATOM      3  N   UNL     1       1.978   8.714  17.692  0.00  0.00    +0.000 N 
ATOM      4  H   UNL     1       2.085   8.580  16.696  0.00  0.00    +0.000 HD
ENDROOT
BRANCH   2   5
ATOM      5  C   UNL     1       3.236   6.627  17.856  0.00  0.00    +0.000 A 
ATOM      6  C   UNL     1       2.729   5.248  17.905  0.00  0.00    +0.000 A 
ATOM      7  C   UNL     1       3.426   4.207  17.411  0.00  0.00    +0.000 A 
ATOM      8  C   UNL     1       4.694   4.436  16.815  0.00  0.00    +0.000 A 
ATOM      9  N   UNL     1       5.568   3.608  16.285  0.00  0.00    +0.000 NA
ATOM     10  C   UNL     1       6.621   4.393  15.893  0.00  0.00    +0.000 A 
ATOM     11  C   UNL     1       6.384   5.718  16.181  0.00  0.00    +0.000 A 
ATOM     12  N   UNL     1       5.151   5.749  16.781  0.00  0.00    +0.000 N 
ATOM     13  C   UNL     1       4.445   6.835  17.296  0.00  0.00    +0.000 A 
ENDBRANCH   2   5
BRANCH   3  14
ATOM     14  C   UNL     1       1.225   9.843  18.092  0.00  0.00    +0.000 A 
ATOM     15  C   UNL     1       1.799  11.008  18.609  0.00  0.00    +0.000 A 
ATOM     16  C   UNL     1       0.998  12.071  19.037  0.00  0.00    +0.000 A 
ATOM     17  C   UNL     1      -0.390  11.986  18.946  0.00  0.00    +0.000 A 
ATOM     18 CL   UNL     1      -1.319  13.319  19.528  0.00  0.00    +0.000 Cl
ATOM     19  C   UNL     1      -0.974  10.840  18.399  0.00  0.00    +0.000 A 
ATOM     20 CL   UNL     1      -2.686  10.658  18.249  0.00  0.00    +0.000 Cl
ATOM     21  C   UNL     1      -0.167   9.779  17.962  0.00  0.00    +0.000 A 
ENDBRANCH   3  14
TORSDOF 2
ENDMDL
