MODEL 1
REMARK VINA RESULT:      -7.8      0.000      0.000
REMARK  Name = 
REMARK  6 active torsions:
REMARK  status: ('A' for Active; 'I' for Inactive)
REMARK    1  A    between atoms: C_1  and  C_2
REMARK    2  A    between atoms: C_7  and  C_8
REMARK    3  A    between atoms: C_9  and  C_10
REMARK    4  A    between atoms: C_18  and  S_19
REMARK    5  A    between atoms: S_19  and  C_20
REMARK    6  A    between atoms: N_22  and  C_23
REMARK                            x       y       z     vdW  Elec       q    Type
REMARK                         _______ _______ _______ _____ _____    ______ ____
ROOT
ATOM      1  C   UNL     1       3.758   5.087  18.197  0.00  0.00    +0.000 A 
ATOM      2  C   UNL     1       2.608   5.716  18.678  0.00  0.00    +0.000 A 
ATOM      3  N   UNL     1       1.720   4.797  19.186  0.00  0.00    +0.000 NA
ATOM      4  C   UNL     1       2.297   3.619  19.084  0.00  0.00    +0.000 A 
ATOM      5  N   UNL     1       3.539   3.736  18.494  0.00  0.00    +0.000 N 
ATOM      6  C   UNL     1       4.471   2.652  18.261  0.00  0.00    +0.000 C 
ENDROOT
BRANCH   1  13
ATOM      7  C   UNL     1       7.308   4.038  12.522  0.00  0.00    +0.000 C 
ATOM      8  C   UNL     1       6.509   4.550  13.687  0.00  0.00    +0.000 C 
ATOM      9  O   UNL     1       5.281   4.568  13.655  0.00  0.00    +0.000 OA
ATOM     10  N   UNL     1       7.292   4.961  14.750  0.00  0.00    +0.000 N 
ATOM     11  C   UNL     1       6.735   5.514  15.907  0.00  0.00    +0.000 A 
ATOM     12  C   UNL     1       5.586   4.981  16.480  0.00  0.00    +0.000 A 
ATOM     13  C   UNL     1       4.959   5.642  17.535  0.00  0.00    +0.000 A 
ATOM     14  C   UNL     1       5.551   6.829  17.968  0.00  0.00    +0.000 A 
ATOM     15  C   UNL     1       6.759   7.232  17.409  0.00  0.00    +0.000 A 
ATOM     16  N   UNL     1       7.379   6.582  16.404  0.00  0.00    +0.000 NA
ATOM     17  H   UNL     1       8.222   5.301  14.549  0.00  0.00    +0.000 HD
ENDBRANCH   1  13
BRANCH   2  18
ATOM     18  C   UNL     1       2.300   7.139  18.698  0.00  0.00    +0.000 A 
ATOM     19  C   UNL     1       1.910   7.748  19.902  0.00  0.00    +0.000 A 
ATOM     20  C   UNL     1       1.604   9.112  19.946  0.00  0.00    +0.000 A 
ATOM     21  C   UNL     1       1.684   9.869  18.784  0.00  0.00    +0.000 A 
ATOM     22  F   UNL     1       1.374  11.167  18.819  0.00  0.00    +0.000 F 
ATOM     23  C   UNL     1       2.086   9.294  17.585  0.00  0.00    +0.000 A 
ATOM     24  C   UNL     1       2.413   7.936  17.548  0.00  0.00    +0.000 A 
ENDBRANCH   2  18
BRANCH   4  25
ATOM     25  S   UNL     1       1.567   2.176  19.753  0.00  0.00    +0.000 S 
ATOM     26  C   UNL     1       1.376   2.717  21.461  0.00  0.00    +0.000 C 
ATOM     27  O   UNL     1       0.141   2.001  19.122  0.00  0.00    +0.000 OA
ENDBRANCH   4  25
TORSDOF 3
ENDMDL
MODEL 2
REMARK VINA RESULT:      -7.8      8.483     11.407
REMARK  Name = 
REMARK  6 active torsions:
REMARK  status: ('A' for Active; 'I' for Inactive)
REMARK    1  A    between atoms: C_1  and  C_2
REMARK    2  A    between atoms: C_7  and  C_8
REMARK    3  A    between atoms: C_9  and  C_10
REMARK    4  A    between atoms: C_18  and  S_19
REMARK    5  A    between atoms: S_19  and  C_20
REMARK    6  A    between atoms: N_22  and  C_23
REMARK                            x       y       z     vdW  Elec       q    Type
REMARK                         _______ _______ _______ _____ _____    ______ ____
ROOT
ATOM      1  C   UNL     1      -2.502  13.487  22.169  0.00  0.00    +0.000 A 
ATOM      2  C   UNL     1      -1.287  12.948  22.597  0.00  0.00    +0.000 A 
ATOM      3  N   UNL     1      -0.599  13.844  23.382  0.00  0.00    +0.000 NA
ATOM      4  C   UNL     1      -1.366  14.906  23.502  0.00  0.00    +0.000 A 
ATOM      5  N   UNL     1      -2.536  14.742  22.789  0.00  0.00    +0.000 N 
ATOM      6  C   UNL     1      -3.629  15.692  22.727  0.00  0.00    +0.000 C 
ENDROOT
BRANCH   1  13
ATOM      7  C   UNL     1      -2.966  10.832  15.953  0.00  0.00    +0.000 C 
ATOM      8  C   UNL     1      -2.994  11.171  17.417  0.00  0.00    +0.000 C 
ATOM      9  O   UNL     1      -2.071  10.847  18.161  0.00  0.00    +0.000 OA
ATOM     10  N   UNL     1      -4.125  11.870  17.796  0.00  0.00    +0.000 N 
ATOM     11  C   UNL     1      -4.359  12.235  19.125  0.00  0.00    +0.000 A 
ATOM     12  C   UNL     1      -3.335  12.726  19.928  0.00  0.00    +0.000 A 
ATOM     13  C   UNL     1      -3.551  12.929  21.289  0.00  0.00    +0.000 A 
ATOM     14  C   UNL     1      -4.826  12.627  21.772  0.00  0.00    +0.000 A 
ATOM     15  C   UNL     1      -5.819  12.243  20.878  0.00  0.00    +0.000 A 
ATOM     16  N   UNL     1      -5.619  12.067  19.556  0.00  0.00    +0.000 NA
ATOM     17  H   UNL     1      -4.972  11.724  17.263  0.00  0.00    +0.000 HD
ENDBRANCH   1  13
BRANCH   2  18
ATOM     18  C   UNL     1      -0.737  11.629  22.316  0.00  0.00    +0.000 A 
ATOM     19  C   UNL     1       0.075  11.441  21.186  0.00  0.00    +0.000 A 
ATOM     20  C   UNL     1       0.610  10.182  20.893  0.00  0.00    +0.000 A 
ATOM     21  C   UNL     1       0.330   9.108  21.727  0.00  0.00    +0.000 A 
ATOM     22  F   UNL     1       0.824   7.902  21.439  0.00  0.00    +0.000 F 
ATOM     23  C   UNL     1      -0.454   9.272  22.862  0.00  0.00    +0.000 A 
ATOM     24  C   UNL     1      -0.969  10.535  23.166  0.00  0.00    +0.000 A 
ENDBRANCH   2  18
BRANCH   4  25
ATOM     25  S   UNL     1      -0.934  16.239  24.550  0.00  0.00    +0.000 S 
ATOM     26  C   UNL     1      -1.484  15.556  26.125  0.00  0.00    +0.000 C 
ATOM     27  O   UNL     1       0.631  16.364  24.578  0.00  0.00    +0.000 OA
ENDBRANCH   4  25
TORSDOF 3
ENDMDL
MODEL 3
REMARK VINA RESULT:      -7.6      1.102      1.102
REMARK  Name = 
REMARK  6 active torsions:
REMARK  status: ('A' for Active; 'I' for Inactive)
REMARK    1  A    between atoms: C_1  and  C_2
REMARK    2  A    between atoms: C_7  and  C_8
REMARK    3  A    between atoms: C_9  and  C_10
REMARK    4  A    between atoms: C_18  and  S_19
REMARK    5  A    between atoms: S_19  and  C_20
REMARK    6  A    between atoms: N_22  and  C_23
REMARK                            x       y       z     vdW  Elec       q    Type
REMARK                         _______ _______ _______ _____ _____    ______ ____
ROOT
ATOM      1  C   UNL     1       3.828   5.377  18.777  0.00  0.00    +0.000 A 
ATOM      2  C   UNL     1       2.692   6.076  19.187  0.00  0.00    +0.000 A 
ATOM      3  N   UNL     1       1.862   5.273  19.935  0.00  0.00    +0.000 NA
ATOM      4  C   UNL     1       2.466   4.110  20.049  0.00  0.00    +0.000 A 
ATOM      5  N   UNL     1       3.666   4.118  19.368  0.00  0.00    +0.000 N 
ATOM      6  C   UNL     1       4.613   3.023  19.311  0.00  0.00    +0.000 C 
ENDROOT
BRANCH   1  13
ATOM      7  C   UNL     1       6.596   3.658  12.837  0.00  0.00    +0.000 C 
ATOM      8  C   UNL     1       5.975   4.311  14.040  0.00  0.00    +0.000 C 
ATOM      9  O   UNL     1       4.756   4.412  14.148  0.00  0.00    +0.000 OA
ATOM     10  N   UNL     1       6.904   4.747  14.967  0.00  0.00    +0.000 N 
ATOM     11  C   UNL     1       6.526   5.423  16.131  0.00  0.00    +0.000 A 
ATOM     12  C   UNL     1       5.425   5.015  16.875  0.00  0.00    +0.000 A 
ATOM     13  C   UNL     1       4.971   5.795  17.937  0.00  0.00    +0.000 A 
ATOM     14  C   UNL     1       5.681   6.969  18.198  0.00  0.00    +0.000 A 
ATOM     15  C   UNL     1       6.834   7.243  17.471  0.00  0.00    +0.000 A 
ATOM     16  N   UNL     1       7.288   6.478  16.458  0.00  0.00    +0.000 NA
ATOM     17  H   UNL     1       7.822   5.005  14.631  0.00  0.00    +0.000 HD
ENDBRANCH   1  13
BRANCH   2  18
ATOM     18  C   UNL     1       2.344   7.466  18.925  0.00  0.00    +0.000 A 
ATOM     19  C   UNL     1       1.771   8.243  19.944  0.00  0.00    +0.000 A 
ATOM     20  C   UNL     1       1.424   9.578  19.715  0.00  0.00    +0.000 A 
ATOM     21  C   UNL     1       1.646  10.138  18.463  0.00  0.00    +0.000 A 
ATOM     22  F   UNL     1       1.298  11.407  18.236  0.00  0.00    +0.000 F 
ATOM     23  C   UNL     1       2.230   9.396  17.445  0.00  0.00    +0.000 A 
ATOM     24  C   UNL     1       2.597   8.069  17.682  0.00  0.00    +0.000 A 
ENDBRANCH   2  18
BRANCH   4  25
ATOM     25  S   UNL     1       1.819   2.832  21.055  0.00  0.00    +0.000 S 
ATOM     26  C   UNL     1       1.483   1.605  19.778  0.00  0.00    +0.000 C 
ATOM     27  O   UNL     1       2.969   2.293  21.977  0.00  0.00    +0.000 OA
ENDBRANCH   4  25
TORSDOF 3
ENDMDL
MODEL 4
REMARK VINA RESULT:      -7.4      8.740     10.494
REMARK  Name = 
REMARK  6 active torsions:
REMARK  status: ('A' for Active; 'I' for Inactive)
REMARK    1  A    between atoms: C_1  and  C_2
REMARK    2  A    between atoms: C_7  and  C_8
REMARK    3  A    between atoms: C_9  and  C_10
REMARK    4  A    between atoms: C_18  and  S_19
REMARK    5  A    between atoms: S_19  and  C_20
REMARK    6  A    between atoms: N_22  and  C_23
REMARK                            x       y       z     vdW  Elec       q    Type
REMARK                         _______ _______ _______ _____ _____    ______ ____
ROOT
ATOM      1  C   UNL     1      -2.776  12.504  20.166  0.00  0.00    +0.000 A 
ATOM      2  C   UNL     1      -3.694  11.967  19.262  0.00  0.00    +0.000 A 
ATOM      3  N   UNL     1      -4.979  12.077  19.740  0.00  0.00    +0.000 NA
ATOM      4  C   UNL     1      -4.899  12.711  20.890  0.00  0.00    +0.000 A 
ATOM      5  N   UNL     1      -3.585  12.997  21.197  0.00  0.00    +0.000 N 
ATOM      6  C   UNL     1      -3.128  13.721  22.365  0.00  0.00    +0.000 C 
ENDROOT
BRANCH   1  13
ATOM      7  C   UNL     1       1.965  16.894  18.127  0.00  0.00    +0.000 C 
ATOM      8  C   UNL     1       1.059  15.926  18.836  0.00  0.00    +0.000 C 
ATOM      9  O   UNL     1       0.083  16.320  19.469  0.00  0.00    +0.000 OA
ATOM     10  N   UNL     1       1.437  14.606  18.677  0.00  0.00    +0.000 N 
ATOM     11  C   UNL     1       0.748  13.560  19.300  0.00  0.00    +0.000 A 
ATOM     12  C   UNL     1      -0.641  13.543  19.353  0.00  0.00    +0.000 A 
ATOM     13  C   UNL     1      -1.299  12.581  20.115  0.00  0.00    +0.000 A 
ATOM     14  C   UNL     1      -0.495  11.660  20.790  0.00  0.00    +0.000 A 
ATOM     15  C   UNL     1       0.881  11.686  20.594  0.00  0.00    +0.000 A 
ATOM     16  N   UNL     1       1.519  12.602  19.838  0.00  0.00    +0.000 NA
ATOM     17  H   UNL     1       2.416  14.409  18.526  0.00  0.00    +0.000 HD
ENDBRANCH   1  13
BRANCH   2  18
ATOM     18  C   UNL     1      -3.432  11.363  17.962  0.00  0.00    +0.000 A 
ATOM     19  C   UNL     1      -2.349  10.483  17.812  0.00  0.00    +0.000 A 
ATOM     20  C   UNL     1      -2.074   9.894  16.573  0.00  0.00    +0.000 A 
ATOM     21  C   UNL     1      -2.880  10.190  15.481  0.00  0.00    +0.000 A 
ATOM     22  F   UNL     1      -2.608   9.645  14.293  0.00  0.00    +0.000 F 
ATOM     23  C   UNL     1      -3.969  11.042  15.609  0.00  0.00    +0.000 A 
ATOM     24  C   UNL     1      -4.256  11.611  16.853  0.00  0.00    +0.000 A 
ENDBRANCH   2  18
BRANCH   4  25
ATOM     25  S   UNL     1      -6.330  13.194  21.775  0.00  0.00    +0.000 S 
ATOM     26  C   UNL     1      -7.589  12.619  20.620  0.00  0.00    +0.000 C 
ATOM     27  O   UNL     1      -6.422  12.333  23.084  0.00  0.00    +0.000 OA
ENDBRANCH   4  25
TORSDOF 3
ENDMDL
MODEL 5
REMARK VINA RESULT:      -7.2      9.336     12.165
REMARK  Name = 
REMARK  6 active torsions:
REMARK  status: ('A' for Active; 'I' for Inactive)
REMARK    1  A    between atoms: C_1  and  C_2
REMARK    2  A    between atoms: C_7  and  C_8
REMARK    3  A    between atoms: C_9  and  C_10
REMARK    4  A    between atoms: C_18  and  S_19
REMARK    5  A    between atoms: S_19  and  C_20
REMARK    6  A    between atoms: N_22  and  C_23
REMARK                            x       y       z     vdW  Elec       q    Type
REMARK                         _______ _______ _______ _____ _____    ______ ____
ROOT
ATOM      1  C   UNL     1      -4.592  13.595  21.033  0.00  0.00    +0.000 A 
ATOM      2  C   UNL     1      -3.377  13.597  21.720  0.00  0.00    +0.000 A 
ATOM      3  N   UNL     1      -3.175  14.796  22.362  0.00  0.00    +0.000 NA
ATOM      4  C   UNL     1      -4.247  15.527  22.141  0.00  0.00    +0.000 A 
ATOM      5  N   UNL     1      -5.142  14.846  21.342  0.00  0.00    +0.000 N 
ATOM      6  C   UNL     1      -6.445  15.328  20.930  0.00  0.00    +0.000 C 
ENDROOT
BRANCH   1  13
ATOM      7  C   UNL     1      -3.395  10.594  15.078  0.00  0.00    +0.000 C 
ATOM      8  C   UNL     1      -3.672  10.984  16.503  0.00  0.00    +0.000 C 
ATOM      9  O   UNL     1      -2.755  11.164  17.300  0.00  0.00    +0.000 OA
ATOM     10  N   UNL     1      -5.019  11.122  16.781  0.00  0.00    +0.000 N 
ATOM     11  C   UNL     1      -5.481  11.432  18.064  0.00  0.00    +0.000 A 
ATOM     12  C   UNL     1      -4.843  12.387  18.848  0.00  0.00    +0.000 A 
ATOM     13  C   UNL     1      -5.219  12.564  20.177  0.00  0.00    +0.000 A 
ATOM     14  C   UNL     1      -6.254  11.753  20.648  0.00  0.00    +0.000 A 
ATOM     15  C   UNL     1      -6.907  10.902  19.764  0.00  0.00    +0.000 A 
ATOM     16  N   UNL     1      -6.559  10.745  18.471  0.00  0.00    +0.000 NA
ATOM     17  H   UNL     1      -5.673  10.572  16.240  0.00  0.00    +0.000 HD
ENDBRANCH   1  13
BRANCH   2  18
ATOM     18  C   UNL     1      -2.395  12.525  21.818  0.00  0.00    +0.000 A 
ATOM     19  C   UNL     1      -1.652  12.160  20.683  0.00  0.00    +0.000 A 
ATOM     20  C   UNL     1      -0.707  11.132  20.750  0.00  0.00    +0.000 A 
ATOM     21  C   UNL     1      -0.507  10.463  21.951  0.00  0.00    +0.000 A 
ATOM     22  F   UNL     1       0.381   9.467  22.013  0.00  0.00    +0.000 F 
ATOM     23  C   UNL     1      -1.216  10.818  23.091  0.00  0.00    +0.000 A 
ATOM     24  C   UNL     1      -2.143  11.862  23.029  0.00  0.00    +0.000 A 
ENDBRANCH   2  18
BRANCH   4  25
ATOM     25  S   UNL     1      -4.471  17.085  22.905  0.00  0.00    +0.000 S 
ATOM     26  C   UNL     1      -5.082  16.533  24.509  0.00  0.00    +0.000 C 
ATOM     27  O   UNL     1      -3.063  17.749  23.108  0.00  0.00    +0.000 OA
ENDBRANCH   4  25
TORSDOF 3
ENDMDL
MODEL 6
REMARK VINA RESULT:      -7.1      7.144      9.279
REMARK  Name = 
REMARK  6 active torsions:
REMARK  status: ('A' for Active; 'I' for Inactive)
REMARK    1  A    between atoms: C_1  and  C_2
REMARK    2  A    between atoms: C_7  and  C_8
REMARK    3  A    between atoms: C_9  and  C_10
REMARK    4  A    between atoms: C_18  and  S_19
REMARK    5  A    between atoms: S_19  and  C_20
REMARK    6  A    between atoms: N_22  and  C_23
REMARK                            x       y       z     vdW  Elec       q    Type
REMARK                         _______ _______ _______ _____ _____    ______ ____
ROOT
ATOM      1  C   UNL     1      -1.305  11.921  19.909  0.00  0.00    +0.000 A 
ATOM      2  C   UNL     1      -2.587  11.778  19.376  0.00  0.00    +0.000 A 
ATOM      3  N   UNL     1      -3.546  12.144  20.292  0.00  0.00    +0.000 NA
ATOM      4  C   UNL     1      -2.904  12.559  21.363  0.00  0.00    +0.000 A 
ATOM      5  N   UNL     1      -1.541  12.449  21.185  0.00  0.00    +0.000 N 
ATOM      6  C   UNL     1      -0.527  12.850  22.139  0.00  0.00    +0.000 C 
ENDROOT
BRANCH   1  13
ATOM      7  C   UNL     1       4.116  15.348  17.722  0.00  0.00    +0.000 C 
ATOM      8  C   UNL     1       3.108  14.445  18.377  0.00  0.00    +0.000 C 
ATOM      9  O   UNL     1       2.551  14.770  19.423  0.00  0.00    +0.000 OA
ATOM     10  N   UNL     1       2.889  13.271  17.680  0.00  0.00    +0.000 N 
ATOM     11  C   UNL     1       2.023  12.281  18.154  0.00  0.00    +0.000 A 
ATOM     12  C   UNL     1       0.796  12.608  18.720  0.00  0.00    +0.000 A 
ATOM     13  C   UNL     1       0.023  11.622  19.330  0.00  0.00    +0.000 A 
ATOM     14  C   UNL     1       0.543  10.326  19.322  0.00  0.00    +0.000 A 
ATOM     15  C   UNL     1       1.726  10.072  18.638  0.00  0.00    +0.000 A 
ATOM     16  N   UNL     1       2.465  11.020  18.028  0.00  0.00    +0.000 NA
ATOM     17  H   UNL     1       3.645  12.909  17.115  0.00  0.00    +0.000 HD
ENDBRANCH   1  13
BRANCH   2  18
ATOM     18  C   UNL     1      -2.965  11.326  18.044  0.00  0.00    +0.000 A 
ATOM     19  C   UNL     1      -4.174  11.764  17.479  0.00  0.00    +0.000 A 
ATOM     20  C   UNL     1      -4.560  11.340  16.203  0.00  0.00    +0.000 A 
ATOM     21  C   UNL     1      -3.740  10.473  15.492  0.00  0.00    +0.000 A 
ATOM     22  F   UNL     1      -4.116  10.052  14.283  0.00  0.00    +0.000 F 
ATOM     23  C   UNL     1      -2.530  10.042  16.021  0.00  0.00    +0.000 A 
ATOM     24  C   UNL     1      -2.135  10.485  17.286  0.00  0.00    +0.000 A 
ENDBRANCH   2  18
BRANCH   4  25
ATOM     25  S   UNL     1      -3.748  13.258  22.728  0.00  0.00    +0.000 S 
ATOM     26  C   UNL     1      -5.368  13.490  21.974  0.00  0.00    +0.000 C 
ATOM     27  O   UNL     1      -3.870  12.168  23.850  0.00  0.00    +0.000 OA
ENDBRANCH   4  25
TORSDOF 3
ENDMDL
MODEL 7
REMARK VINA RESULT:      -7.1      7.516     10.396
REMARK  Name = 
REMARK  6 active torsions:
REMARK  status: ('A' for Active; 'I' for Inactive)
REMARK    1  A    between atoms: C_1  and  C_2
REMARK    2  A    between atoms: C_7  and  C_8
REMARK    3  A    between atoms: C_9  and  C_10
REMARK    4  A    between atoms: C_18  and  S_19
REMARK    5  A    between atoms: S_19  and  C_20
REMARK    6  A    between atoms: N_22  and  C_23
REMARK                            x       y       z     vdW  Elec       q    Type
REMARK                         _______ _______ _______ _____ _____    ______ ____
ROOT
ATOM      1  C   UNL     1      -1.223  13.217  20.712  0.00  0.00    +0.000 A 
ATOM      2  C   UNL     1      -0.081  12.556  21.169  0.00  0.00    +0.000 A 
ATOM      3  N   UNL     1       0.830  13.446  21.687  0.00  0.00    +0.000 NA
ATOM      4  C   UNL     1       0.276  14.638  21.615  0.00  0.00    +0.000 A 
ATOM      5  N   UNL     1      -0.973  14.557  21.035  0.00  0.00    +0.000 N 
ATOM      6  C   UNL     1      -1.884  15.665  20.832  0.00  0.00    +0.000 C 
ENDROOT
BRANCH   1  13
ATOM      7  C   UNL     1      -2.816   9.730  15.126  0.00  0.00    +0.000 C 
ATOM      8  C   UNL     1      -2.616  10.294  16.505  0.00  0.00    +0.000 C 
ATOM      9  O   UNL     1      -1.662   9.950  17.198  0.00  0.00    +0.000 OA
ATOM     10  N   UNL     1      -3.584  11.213  16.867  0.00  0.00    +0.000 N 
ATOM     11  C   UNL     1      -3.598  11.813  18.130  0.00  0.00    +0.000 A 
ATOM     12  C   UNL     1      -2.425  12.256  18.730  0.00  0.00    +0.000 A 
ATOM     13  C   UNL     1      -2.441  12.701  20.050  0.00  0.00    +0.000 A 
ATOM     14  C   UNL     1      -3.675  12.682  20.701  0.00  0.00    +0.000 A 
ATOM     15  C   UNL     1      -4.815  12.325  19.990  0.00  0.00    +0.000 A 
ATOM     16  N   UNL     1      -4.806  11.915  18.706  0.00  0.00    +0.000 NA
ATOM     17  H   UNL     1      -4.502  11.120  16.454  0.00  0.00    +0.000 HD
ENDBRANCH   1  13
BRANCH   2  18
ATOM     18  C   UNL     1       0.198  11.127  21.157  0.00  0.00    +0.000 A 
ATOM     19  C   UNL     1      -0.145  10.343  22.272  0.00  0.00    +0.000 A 
ATOM     20  C   UNL     1       0.117   8.970  22.286  0.00  0.00    +0.000 A 
ATOM     21  C   UNL     1       0.728   8.377  21.188  0.00  0.00    +0.000 A 
ATOM     22  F   UNL     1       0.997   7.070  21.207  0.00  0.00    +0.000 F 
ATOM     23  C   UNL     1       1.059   9.127  20.067  0.00  0.00    +0.000 A 
ATOM     24  C   UNL     1       0.775  10.495  20.044  0.00  0.00    +0.000 A 
ENDBRANCH   2  18
BRANCH   4  25
ATOM     25  S   UNL     1       1.042  16.051  22.306  0.00  0.00    +0.000 S 
ATOM     26  C   UNL     1      -0.034  16.291  23.732  0.00  0.00    +0.000 C 
ATOM     27  O   UNL     1       2.469  15.645  22.819  0.00  0.00    +0.000 OA
ENDBRANCH   4  25
TORSDOF 3
ENDMDL
MODEL 8
REMARK VINA RESULT:      -7.1      7.164      9.344
REMARK  Name = 
REMARK  6 active torsions:
REMARK  status: ('A' for Active; 'I' for Inactive)
REMARK    1  A    between atoms: C_1  and  C_2
REMARK    2  A    between atoms: C_7  and  C_8
REMARK    3  A    between atoms: C_9  and  C_10
REMARK    4  A    between atoms: C_18  and  S_19
REMARK    5  A    between atoms: S_19  and  C_20
REMARK    6  A    between atoms: N_22  and  C_23
REMARK                            x       y       z     vdW  Elec       q    Type
REMARK                         _______ _______ _______ _____ _____    ______ ____
ROOT
ATOM      1  C   UNL     1      -1.287  11.967  19.932  0.00  0.00    +0.000 A 
ATOM      2  C   UNL     1      -2.577  11.844  19.413  0.00  0.00    +0.000 A 
ATOM      3  N   UNL     1      -3.519  12.235  20.335  0.00  0.00    +0.000 NA
ATOM      4  C   UNL     1      -2.859  12.646  21.397  0.00  0.00    +0.000 A 
ATOM      5  N   UNL     1      -1.500  12.508  21.205  0.00  0.00    +0.000 N 
ATOM      6  C   UNL     1      -0.470  12.898  22.147  0.00  0.00    +0.000 C 
ENDROOT
BRANCH   1  13
ATOM      7  C   UNL     1       4.216  15.268  17.759  0.00  0.00    +0.000 C 
ATOM      8  C   UNL     1       3.187  14.386  18.408  0.00  0.00    +0.000 C 
ATOM      9  O   UNL     1       2.644  14.714  19.460  0.00  0.00    +0.000 OA
ATOM     10  N   UNL     1       2.932  13.228  17.698  0.00  0.00    +0.000 N 
ATOM     11  C   UNL     1       2.041  12.256  18.163  0.00  0.00    +0.000 A 
ATOM     12  C   UNL     1       0.826  12.610  18.741  0.00  0.00    +0.000 A 
ATOM     13  C   UNL     1       0.029  11.638  19.342  0.00  0.00    +0.000 A 
ATOM     14  C   UNL     1       0.512  10.329  19.314  0.00  0.00    +0.000 A 
ATOM     15  C   UNL     1       1.684  10.050  18.621  0.00  0.00    +0.000 A 
ATOM     16  N   UNL     1       2.446  10.985  18.019  0.00  0.00    +0.000 NA
ATOM     17  H   UNL     1       3.674  12.852  17.124  0.00  0.00    +0.000 HD
ENDBRANCH   1  13
BRANCH   2  18
ATOM     18  C   UNL     1      -2.976  11.389  18.088  0.00  0.00    +0.000 A 
ATOM     19  C   UNL     1      -2.141  10.515  17.373  0.00  0.00    +0.000 A 
ATOM     20  C   UNL     1      -2.500  10.068  16.097  0.00  0.00    +0.000 A 
ATOM     21  C   UNL     1      -3.693  10.498  15.532  0.00  0.00    +0.000 A 
ATOM     22  F   UNL     1      -4.029  10.088  14.307  0.00  0.00    +0.000 F 
ATOM     23  C   UNL     1      -4.546  11.347  16.226  0.00  0.00    +0.000 A 
ATOM     24  C   UNL     1      -4.197  11.774  17.510  0.00  0.00    +0.000 A 
ENDBRANCH   2  18
BRANCH   4  25
ATOM     25  S   UNL     1      -3.676  13.371  22.764  0.00  0.00    +0.000 S 
ATOM     26  C   UNL     1      -4.277  14.875  21.973  0.00  0.00    +0.000 C 
ATOM     27  O   UNL     1      -4.910  12.476  23.140  0.00  0.00    +0.000 OA
ENDBRANCH   4  25
TORSDOF 3
ENDMDL
MODEL 9
REMARK VINA RESULT:      -7.0      9.272     12.080
REMARK  Name = 
REMARK  6 active torsions:
REMARK  status: ('A' for Active; 'I' for Inactive)
REMARK    1  A    between atoms: C_1  and  C_2
REMARK    2  A    between atoms: C_7  and  C_8
REMARK    3  A    between atoms: C_9  and  C_10
REMARK    4  A    between atoms: C_18  and  S_19
REMARK    5  A    between atoms: S_19  and  C_20
REMARK    6  A    between atoms: N_22  and  C_23
REMARK                            x       y       z     vdW  Elec       q    Type
REMARK                         _______ _______ _______ _____ _____    ______ ____
ROOT
ATOM      1  C   UNL     1      -4.506  13.590  20.966  0.00  0.00    +0.000 A 
ATOM      2  C   UNL     1      -3.288  13.572  21.647  0.00  0.00    +0.000 A 
ATOM      3  N   UNL     1      -3.064  14.768  22.290  0.00  0.00    +0.000 NA
ATOM      4  C   UNL     1      -4.126  15.514  22.076  0.00  0.00    +0.000 A 
ATOM      5  N   UNL     1      -5.035  14.848  21.281  0.00  0.00    +0.000 N 
ATOM      6  C   UNL     1      -6.333  15.350  20.876  0.00  0.00    +0.000 C 
ENDROOT
BRANCH   1  13
ATOM      7  C   UNL     1      -3.359  10.544  15.024  0.00  0.00    +0.000 C 
ATOM      8  C   UNL     1      -3.631  10.944  16.447  0.00  0.00    +0.000 C 
ATOM      9  O   UNL     1      -2.712  11.107  17.246  0.00  0.00    +0.000 OA
ATOM     10  N   UNL     1      -4.976  11.112  16.722  0.00  0.00    +0.000 N 
ATOM     11  C   UNL     1      -5.434  11.437  18.002  0.00  0.00    +0.000 A 
ATOM     12  C   UNL     1      -4.777  12.380  18.785  0.00  0.00    +0.000 A 
ATOM     13  C   UNL     1      -5.153  12.570  20.113  0.00  0.00    +0.000 A 
ATOM     14  C   UNL     1      -6.206  11.783  20.583  0.00  0.00    +0.000 A 
ATOM     15  C   UNL     1      -6.875  10.943  19.700  0.00  0.00    +0.000 A 
ATOM     16  N   UNL     1      -6.528  10.774  18.409  0.00  0.00    +0.000 NA
ATOM     17  H   UNL     1      -5.639  10.575  16.181  0.00  0.00    +0.000 HD
ENDBRANCH   1  13
BRANCH   2  18
ATOM     18  C   UNL     1      -2.321  12.486  21.738  0.00  0.00    +0.000 A 
ATOM     19  C   UNL     1      -2.102  11.853  22.972  0.00  0.00    +0.000 A 
ATOM     20  C   UNL     1      -1.176  10.812  23.085  0.00  0.00    +0.000 A 
ATOM     21  C   UNL     1      -0.463  10.404  21.965  0.00  0.00    +0.000 A 
ATOM     22  F   UNL     1       0.435   9.423  22.074  0.00  0.00    +0.000 F 
ATOM     23  C   UNL     1      -0.676  11.001  20.729  0.00  0.00    +0.000 A 
ATOM     24  C   UNL     1      -1.619  12.026  20.612  0.00  0.00    +0.000 A 
ENDBRANCH   2  18
BRANCH   4  25
ATOM     25  S   UNL     1      -4.323  17.075  22.844  0.00  0.00    +0.000 S 
ATOM     26  C   UNL     1      -2.724  17.193  23.667  0.00  0.00    +0.000 C 
ATOM     27  O   UNL     1      -4.393  18.175  21.726  0.00  0.00    +0.000 OA
ENDBRANCH   4  25
TORSDOF 3
ENDMDL
