MODEL 1
REMARK VINA RESULT:      -6.5      0.000      0.000
REMARK  Name = 
REMARK  9 active torsions:
REMARK  status: ('A' for Active; 'I' for Inactive)
REMARK    1  A    between atoms: C_1  and  C_2
REMARK    2  A    between atoms: C_2  and  O_3
REMARK    3  A    between atoms: O_3  and  C_4
REMARK    4  A    between atoms: C_4  and  C_6
REMARK    5  A    between atoms: C_6  and  C_7
REMARK    6  A    between atoms: C_14  and  C_15
REMARK    7  A    between atoms: N_21  and  C_22
REMARK    8  A    between atoms: C_22  and  C_23
REMARK    9  A    between atoms: C_29  and  C_30
REMARK                            x       y       z     vdW  Elec       q    Type
REMARK                         _______ _______ _______ _____ _____    ______ ____
ROOT
ATOM      1  C   UNL     1      -0.118  13.675  21.150  0.00  0.00    +0.000 C 
ATOM      2  N   UNL     1       0.603  12.330  21.093  0.00  0.00    +0.000 NA
ATOM      3  C   UNL     1       0.474  11.919  19.853  0.00  0.00    +0.000 C 
ATOM      4  N   UNL     1      -0.077  12.819  18.971  0.00  0.00    +0.000 N 
ATOM      5  C   UNL     1      -0.178  14.119  19.638  0.00  0.00    +0.000 C 
ENDROOT
BRANCH   1   6
ATOM      6  C   UNL     1      -1.489  13.449  21.829  0.00  0.00    +0.000 A 
ATOM      7  C   UNL     1      -1.579  12.525  22.889  0.00  0.00    +0.000 A 
ATOM      8  C   UNL     1      -2.800  12.226  23.493  0.00  0.00    +0.000 A 
ATOM      9  C   UNL     1      -3.960  12.858  23.062  0.00  0.00    +0.000 A 
ATOM     10  C   UNL     1      -3.889  13.816  22.055  0.00  0.00    +0.000 A 
ATOM     11  C   UNL     1      -2.662  14.128  21.459  0.00  0.00    +0.000 A 
ENDBRANCH   1   6
BRANCH   3  12
ATOM     12  C   UNL     1       1.001  10.580  19.495  0.00  0.00    +0.000 A 
ATOM     13  C   UNL     1       0.902   9.542  20.427  0.00  0.00    +0.000 A 
ATOM     14  C   UNL     1       1.442   8.291  20.135  0.00  0.00    +0.000 A 
ATOM     15  C   UNL     1       2.081   8.075  18.915  0.00  0.00    +0.000 A 
ATOM     16  C   UNL     1       2.197   9.116  17.991  0.00  0.00    +0.000 A 
ATOM     17  C   UNL     1       1.672  10.373  18.288  0.00  0.00    +0.000 A 
ENDBRANCH   3  12
BRANCH   5  18
ATOM     18  C   UNL     1       0.953  15.028  19.148  0.00  0.00    +0.000 A 
ATOM     19  C   UNL     1       2.188  14.476  18.783  0.00  0.00    +0.000 A 
ATOM     20  C   UNL     1       3.181  15.312  18.292  0.00  0.00    +0.000 A 
ATOM     21  N   UNL     1       3.041  16.647  18.149  0.00  0.00    +0.000 NA
ATOM     22  C   UNL     1       1.849  17.166  18.497  0.00  0.00    +0.000 A 
ATOM     23  C   UNL     1       0.793  16.411  18.986  0.00  0.00    +0.000 A 
ENDBRANCH   5  18
BRANCH   1  24
ATOM     24  C   UNL     1       0.695  14.689  21.982  0.00  0.00    +0.000 C 
ATOM     25  O   UNL     1       1.872  14.528  22.296  0.00  0.00    +0.000 OA
BRANCH  24  26
ATOM     26  O   UNL     1      -0.052  15.775  22.339  0.00  0.00    +0.000 OA
BRANCH  26  28
ATOM     27  C   UNL     1      -1.023  15.838  24.551  0.00  0.00    +0.000 C 
ATOM     28  C   UNL     1       0.124  16.283  23.666  0.00  0.00    +0.000 C 
ENDBRANCH  26  28
ENDBRANCH  24  26
ENDBRANCH   1  24
BRANCH   4  29
ATOM     29  C   UNL     1      -0.762  12.565  17.720  0.00  0.00    +0.000 C 
BRANCH  29  30
ATOM     30  C   UNL     1      -1.980  11.679  17.864  0.00  0.00    +0.000 A 
ATOM     31  C   UNL     1      -3.131  12.142  18.516  0.00  0.00    +0.000 A 
ATOM     32  C   UNL     1      -4.279  11.352  18.594  0.00  0.00    +0.000 A 
ATOM     33  C   UNL     1      -4.297  10.088  18.010  0.00  0.00    +0.000 A 
ATOM     34  C   UNL     1      -3.161   9.609  17.364  0.00  0.00    +0.000 A 
ATOM     35  C   UNL     1      -2.008  10.397  17.296  0.00  0.00    +0.000 A 
ENDBRANCH  29  30
ENDBRANCH   4  29
TORSDOF 8
ENDMDL
MODEL 2
REMARK VINA RESULT:      -6.5      0.811      1.537
REMARK  Name = 
REMARK  9 active torsions:
REMARK  status: ('A' for Active; 'I' for Inactive)
REMARK    1  A    between atoms: C_1  and  C_2
REMARK    2  A    between atoms: C_2  and  O_3
REMARK    3  A    between atoms: O_3  and  C_4
REMARK    4  A    between atoms: C_4  and  C_6
REMARK    5  A    between atoms: C_6  and  C_7
REMARK    6  A    between atoms: C_14  and  C_15
REMARK    7  A    between atoms: N_21  and  C_22
REMARK    8  A    between atoms: C_22  and  C_23
REMARK    9  A    between atoms: C_29  and  C_30
REMARK                            x       y       z     vdW  Elec       q    Type
REMARK                         _______ _______ _______ _____ _____    ______ ____
ROOT
ATOM      1  C   UNL     1       0.045  13.552  21.128  0.00  0.00    +0.000 C 
ATOM      2  N   UNL     1       0.749  12.200  21.035  0.00  0.00    +0.000 NA
ATOM      3  C   UNL     1       0.588  11.809  19.792  0.00  0.00    +0.000 C 
ATOM      4  N   UNL     1       0.028  12.729  18.936  0.00  0.00    +0.000 N 
ATOM      5  C   UNL     1      -0.044  14.019  19.625  0.00  0.00    +0.000 C 
ENDROOT
BRANCH   1   6
ATOM      6  C   UNL     1      -1.313  13.331  21.835  0.00  0.00    +0.000 A 
ATOM      7  C   UNL     1      -1.408  12.338  22.830  0.00  0.00    +0.000 A 
ATOM      8  C   UNL     1      -2.622  12.043  23.451  0.00  0.00    +0.000 A 
ATOM      9  C   UNL     1      -3.768  12.748  23.104  0.00  0.00    +0.000 A 
ATOM     10  C   UNL     1      -3.689  13.772  22.164  0.00  0.00    +0.000 A 
ATOM     11  C   UNL     1      -2.468  14.078  21.551  0.00  0.00    +0.000 A 
ENDBRANCH   1   6
BRANCH   3  12
ATOM     12  C   UNL     1       1.091  10.471  19.402  0.00  0.00    +0.000 A 
ATOM     13  C   UNL     1       1.012   9.422  20.325  0.00  0.00    +0.000 A 
ATOM     14  C   UNL     1       1.531   8.170  20.002  0.00  0.00    +0.000 A 
ATOM     15  C   UNL     1       2.130   7.963  18.760  0.00  0.00    +0.000 A 
ATOM     16  C   UNL     1       2.228   9.014  17.846  0.00  0.00    +0.000 A 
ATOM     17  C   UNL     1       1.724  10.272  18.174  0.00  0.00    +0.000 A 
ENDBRANCH   3  12
BRANCH   5  18
ATOM     18  C   UNL     1       1.086  14.923  19.123  0.00  0.00    +0.000 A 
ATOM     19  C   UNL     1       0.949  16.316  19.180  0.00  0.00    +0.000 A 
ATOM     20  C   UNL     1       2.006  17.115  18.769  0.00  0.00    +0.000 A 
ATOM     21  N   UNL     1       3.176  16.635  18.297  0.00  0.00    +0.000 NA
ATOM     22  C   UNL     1       3.299  15.295  18.251  0.00  0.00    +0.000 A 
ATOM     23  C   UNL     1       2.305  14.416  18.650  0.00  0.00    +0.000 A 
ENDBRANCH   5  18
BRANCH   1  24
ATOM     24  C   UNL     1       0.888  14.544  21.957  0.00  0.00    +0.000 C 
ATOM     25  O   UNL     1       0.430  15.557  22.482  0.00  0.00    +0.000 OA
BRANCH  24  26
ATOM     26  O   UNL     1       2.199  14.172  22.024  0.00  0.00    +0.000 OA
BRANCH  26  28
ATOM     27  C   UNL     1       4.510  14.654  22.544  0.00  0.00    +0.000 C 
ATOM     28  C   UNL     1       3.174  15.219  22.104  0.00  0.00    +0.000 C 
ENDBRANCH  26  28
ENDBRANCH  24  26
ENDBRANCH   1  24
BRANCH   4  29
ATOM     29  C   UNL     1      -0.688  12.502  17.697  0.00  0.00    +0.000 C 
BRANCH  29  30
ATOM     30  C   UNL     1      -1.929  11.652  17.860  0.00  0.00    +0.000 A 
ATOM     31  C   UNL     1      -3.055  12.147  18.532  0.00  0.00    +0.000 A 
ATOM     32  C   UNL     1      -4.225  11.392  18.627  0.00  0.00    +0.000 A 
ATOM     33  C   UNL     1      -4.289  10.129  18.042  0.00  0.00    +0.000 A 
ATOM     34  C   UNL     1      -3.178   9.617  17.378  0.00  0.00    +0.000 A 
ATOM     35  C   UNL     1      -2.004  10.371  17.292  0.00  0.00    +0.000 A 
ENDBRANCH  29  30
ENDBRANCH   4  29
TORSDOF 8
ENDMDL
MODEL 3
REMARK VINA RESULT:      -6.5      0.229      1.175
REMARK  Name = 
REMARK  9 active torsions:
REMARK  status: ('A' for Active; 'I' for Inactive)
REMARK    1  A    between atoms: C_1  and  C_2
REMARK    2  A    between atoms: C_2  and  O_3
REMARK    3  A    between atoms: O_3  and  C_4
REMARK    4  A    between atoms: C_4  and  C_6
REMARK    5  A    between atoms: C_6  and  C_7
REMARK    6  A    between atoms: C_14  and  C_15
REMARK    7  A    between atoms: N_21  and  C_22
REMARK    8  A    between atoms: C_22  and  C_23
REMARK    9  A    between atoms: C_29  and  C_30
REMARK                            x       y       z     vdW  Elec       q    Type
REMARK                         _______ _______ _______ _____ _____    ______ ____
ROOT
ATOM      1  C   UNL     1      -0.281  13.605  21.235  0.00  0.00    +0.000 C 
ATOM      2  N   UNL     1       0.516  12.304  21.169  0.00  0.00    +0.000 NA
ATOM      3  C   UNL     1       0.421  11.901  19.923  0.00  0.00    +0.000 C 
ATOM      4  N   UNL     1      -0.173  12.779  19.047  0.00  0.00    +0.000 N 
ATOM      5  C   UNL     1      -0.355  14.063  19.728  0.00  0.00    +0.000 C 
ENDROOT
BRANCH   1   6
ATOM      6  C   UNL     1      -1.643  13.292  21.900  0.00  0.00    +0.000 A 
ATOM      7  C   UNL     1      -2.795  13.953  21.433  0.00  0.00    +0.000 A 
ATOM      8  C   UNL     1      -4.038  13.767  22.039  0.00  0.00    +0.000 A 
ATOM      9  C   UNL     1      -4.160  12.899  23.117  0.00  0.00    +0.000 A 
ATOM     10  C   UNL     1      -3.047  12.191  23.562  0.00  0.00    +0.000 A 
ATOM     11  C   UNL     1      -1.804  12.367  22.945  0.00  0.00    +0.000 A 
ENDBRANCH   1   6
BRANCH   3  12
ATOM     12  C   UNL     1       1.026  10.600  19.554  0.00  0.00    +0.000 A 
ATOM     13  C   UNL     1       1.628  10.465  18.299  0.00  0.00    +0.000 A 
ATOM     14  C   UNL     1       2.153   9.235  17.907  0.00  0.00    +0.000 A 
ATOM     15  C   UNL     1       2.077   8.140  18.766  0.00  0.00    +0.000 A 
ATOM     16  C   UNL     1       1.460   8.268  20.011  0.00  0.00    +0.000 A 
ATOM     17  C   UNL     1       0.920   9.493  20.399  0.00  0.00    +0.000 A 
ENDBRANCH   3  12
BRANCH   5  18
ATOM     18  C   UNL     1       0.726  15.041  19.258  0.00  0.00    +0.000 A 
ATOM     19  C   UNL     1       1.977  14.560  18.849  0.00  0.00    +0.000 A 
ATOM     20  C   UNL     1       2.923  15.460  18.377  0.00  0.00    +0.000 A 
ATOM     21  N   UNL     1       2.723  16.792  18.295  0.00  0.00    +0.000 NA
ATOM     22  C   UNL     1       1.515  17.242  18.686  0.00  0.00    +0.000 A 
ATOM     23  C   UNL     1       0.503  16.422  19.160  0.00  0.00    +0.000 A 
ENDBRANCH   5  18
BRANCH   1  24
ATOM     24  C   UNL     1       0.465  14.654  22.086  0.00  0.00    +0.000 C 
ATOM     25  O   UNL     1       1.654  14.571  22.385  0.00  0.00    +0.000 OA
BRANCH  24  26
ATOM     26  O   UNL     1      -0.354  15.673  22.479  0.00  0.00    +0.000 OA
BRANCH  26  28
ATOM     27  C   UNL     1      -1.335  15.675  24.688  0.00  0.00    +0.000 C 
ATOM     28  C   UNL     1      -0.196  16.163  23.815  0.00  0.00    +0.000 C 
ENDBRANCH  26  28
ENDBRANCH  24  26
ENDBRANCH   1  24
BRANCH   4  29
ATOM     29  C   UNL     1      -0.834  12.502  17.787  0.00  0.00    +0.000 C 
BRANCH  29  30
ATOM     30  C   UNL     1      -2.065  11.634  17.925  0.00  0.00    +0.000 A 
ATOM     31  C   UNL     1      -3.252  12.152  18.460  0.00  0.00    +0.000 A 
ATOM     32  C   UNL     1      -4.409  11.375  18.529  0.00  0.00    +0.000 A 
ATOM     33  C   UNL     1      -4.399  10.066  18.052  0.00  0.00    +0.000 A 
ATOM     34  C   UNL     1      -3.227   9.531  17.524  0.00  0.00    +0.000 A 
ATOM     35  C   UNL     1      -2.066  10.308  17.466  0.00  0.00    +0.000 A 
ENDBRANCH  29  30
ENDBRANCH   4  29
TORSDOF 8
ENDMDL
MODEL 4
REMARK VINA RESULT:      -6.4      0.768      1.765
REMARK  Name = 
REMARK  9 active torsions:
REMARK  status: ('A' for Active; 'I' for Inactive)
REMARK    1  A    between atoms: C_1  and  C_2
REMARK    2  A    between atoms: C_2  and  O_3
REMARK    3  A    between atoms: O_3  and  C_4
REMARK    4  A    between atoms: C_4  and  C_6
REMARK    5  A    between atoms: C_6  and  C_7
REMARK    6  A    between atoms: C_14  and  C_15
REMARK    7  A    between atoms: N_21  and  C_22
REMARK    8  A    between atoms: C_22  and  C_23
REMARK    9  A    between atoms: C_29  and  C_30
REMARK                            x       y       z     vdW  Elec       q    Type
REMARK                         _______ _______ _______ _____ _____    ______ ____
ROOT
ATOM      1  C   UNL     1      -0.067  13.467  21.108  0.00  0.00    +0.000 C 
ATOM      2  N   UNL     1       0.653  12.123  21.028  0.00  0.00    +0.000 NA
ATOM      3  C   UNL     1       0.526  11.734  19.780  0.00  0.00    +0.000 C 
ATOM      4  N   UNL     1      -0.022  12.652  18.914  0.00  0.00    +0.000 N 
ATOM      5  C   UNL     1      -0.124  13.939  19.605  0.00  0.00    +0.000 C 
ENDROOT
BRANCH   1   6
ATOM      6  C   UNL     1      -1.440  13.230  21.781  0.00  0.00    +0.000 A 
ATOM      7  C   UNL     1      -2.545  13.995  21.360  0.00  0.00    +0.000 A 
ATOM      8  C   UNL     1      -3.790  13.877  21.977  0.00  0.00    +0.000 A 
ATOM      9  C   UNL     1      -3.964  12.975  23.020  0.00  0.00    +0.000 A 
ATOM     10  C   UNL     1      -2.903  12.167  23.417  0.00  0.00    +0.000 A 
ATOM     11  C   UNL     1      -1.657  12.275  22.788  0.00  0.00    +0.000 A 
ENDBRANCH   1   6
BRANCH   3  12
ATOM     12  C   UNL     1       1.053  10.403  19.399  0.00  0.00    +0.000 A 
ATOM     13  C   UNL     1       1.009   9.364  20.334  0.00  0.00    +0.000 A 
ATOM     14  C   UNL     1       1.551   8.119  20.018  0.00  0.00    +0.000 A 
ATOM     15  C   UNL     1       2.136   7.911  18.770  0.00  0.00    +0.000 A 
ATOM     16  C   UNL     1       2.198   8.952  17.843  0.00  0.00    +0.000 A 
ATOM     17  C   UNL     1       1.672  10.203  18.163  0.00  0.00    +0.000 A 
ENDBRANCH   3  12
BRANCH   5  18
ATOM     18  C   UNL     1       1.009  14.856  19.133  0.00  0.00    +0.000 A 
ATOM     19  C   UNL     1       2.180  14.305  18.597  0.00  0.00    +0.000 A 
ATOM     20  C   UNL     1       3.172  15.155  18.128  0.00  0.00    +0.000 A 
ATOM     21  N   UNL     1       3.090  16.502  18.164  0.00  0.00    +0.000 NA
ATOM     22  C   UNL     1       1.958  17.020  18.676  0.00  0.00    +0.000 A 
ATOM     23  C   UNL     1       0.908  16.254  19.158  0.00  0.00    +0.000 A 
ENDBRANCH   5  18
BRANCH   1  24
ATOM     24  C   UNL     1       0.745  14.465  21.961  0.00  0.00    +0.000 C 
ATOM     25  O   UNL     1       0.265  15.472  22.476  0.00  0.00    +0.000 OA
BRANCH  24  26
ATOM     26  O   UNL     1       2.058  14.105  22.060  0.00  0.00    +0.000 OA
BRANCH  26  28
ATOM     27  C   UNL     1       4.382  14.654  21.685  0.00  0.00    +0.000 C 
ATOM     28  C   UNL     1       3.023  15.161  22.128  0.00  0.00    +0.000 C 
ENDBRANCH  26  28
ENDBRANCH  24  26
ENDBRANCH   1  24
BRANCH   4  29
ATOM     29  C   UNL     1      -0.705  12.421  17.657  0.00  0.00    +0.000 C 
BRANCH  29  30
ATOM     30  C   UNL     1      -1.983  11.625  17.798  0.00  0.00    +0.000 A 
ATOM     31  C   UNL     1      -2.054  10.297  17.355  0.00  0.00    +0.000 A 
ATOM     32  C   UNL     1      -3.210   9.537  17.542  0.00  0.00    +0.000 A 
ATOM     33  C   UNL     1      -4.313  10.093  18.185  0.00  0.00    +0.000 A 
ATOM     34  C   UNL     1      -4.265  11.413  18.625  0.00  0.00    +0.000 A 
ATOM     35  C   UNL     1      -3.110  12.176  18.428  0.00  0.00    +0.000 A 
ENDBRANCH  29  30
ENDBRANCH   4  29
TORSDOF 8
ENDMDL
MODEL 5
REMARK VINA RESULT:      -6.4      0.181      1.148
REMARK  Name = 
REMARK  9 active torsions:
REMARK  status: ('A' for Active; 'I' for Inactive)
REMARK    1  A    between atoms: C_1  and  C_2
REMARK    2  A    between atoms: C_2  and  O_3
REMARK    3  A    between atoms: O_3  and  C_4
REMARK    4  A    between atoms: C_4  and  C_6
REMARK    5  A    between atoms: C_6  and  C_7
REMARK    6  A    between atoms: C_14  and  C_15
REMARK    7  A    between atoms: N_21  and  C_22
REMARK    8  A    between atoms: C_22  and  C_23
REMARK    9  A    between atoms: C_29  and  C_30
REMARK                            x       y       z     vdW  Elec       q    Type
REMARK                         _______ _______ _______ _____ _____    ______ ____
ROOT
ATOM      1  C   UNL     1      -0.173  13.671  21.155  0.00  0.00    +0.000 C 
ATOM      2  N   UNL     1       0.566  12.337  21.082  0.00  0.00    +0.000 NA
ATOM      3  C   UNL     1       0.446  11.940  19.837  0.00  0.00    +0.000 C 
ATOM      4  N   UNL     1      -0.115  12.844  18.966  0.00  0.00    +0.000 N 
ATOM      5  C   UNL     1      -0.236  14.133  19.649  0.00  0.00    +0.000 C 
ENDROOT
BRANCH   1   6
ATOM      6  C   UNL     1      -1.543  13.417  21.828  0.00  0.00    +0.000 A 
ATOM      7  C   UNL     1      -2.677  14.097  21.341  0.00  0.00    +0.000 A 
ATOM      8  C   UNL     1      -3.924  13.963  21.951  0.00  0.00    +0.000 A 
ATOM      9  C   UNL     1      -4.071  13.132  23.055  0.00  0.00    +0.000 A 
ATOM     10  C   UNL     1      -2.978  12.406  23.521  0.00  0.00    +0.000 A 
ATOM     11  C   UNL     1      -1.730  12.527  22.899  0.00  0.00    +0.000 A 
ENDBRANCH   1   6
BRANCH   3  12
ATOM     12  C   UNL     1       0.992  10.614  19.463  0.00  0.00    +0.000 A 
ATOM     13  C   UNL     1       0.934   9.571  20.393  0.00  0.00    +0.000 A 
ATOM     14  C   UNL     1       1.493   8.332  20.085  0.00  0.00    +0.000 A 
ATOM     15  C   UNL     1       2.110   8.133  18.851  0.00  0.00    +0.000 A 
ATOM     16  C   UNL     1       2.187   9.179  17.930  0.00  0.00    +0.000 A 
ATOM     17  C   UNL     1       1.642  10.424  18.242  0.00  0.00    +0.000 A 
ENDBRANCH   3  12
BRANCH   5  18
ATOM     18  C   UNL     1       0.883  15.064  19.173  0.00  0.00    +0.000 A 
ATOM     19  C   UNL     1       0.655  16.443  19.076  0.00  0.00    +0.000 A 
ATOM     20  C   UNL     1       1.699  17.274  18.693  0.00  0.00    +0.000 A 
ATOM     21  N   UNL     1       2.939  16.836  18.390  0.00  0.00    +0.000 NA
ATOM     22  C   UNL     1       3.149  15.510  18.492  0.00  0.00    +0.000 A 
ATOM     23  C   UNL     1       2.174  14.603  18.877  0.00  0.00    +0.000 A 
ENDBRANCH   5  18
BRANCH   1  24
ATOM     24  C   UNL     1       0.623  14.685  22.002  0.00  0.00    +0.000 C 
ATOM     25  O   UNL     1       1.799  14.533  22.324  0.00  0.00    +0.000 OA
BRANCH  24  26
ATOM     26  O   UNL     1      -0.136  15.761  22.362  0.00  0.00    +0.000 OA
BRANCH  26  28
ATOM     27  C   UNL     1      -1.527  16.177  24.295  0.00  0.00    +0.000 C 
ATOM     28  C   UNL     1      -0.116  16.145  23.742  0.00  0.00    +0.000 C 
ENDBRANCH  26  28
ENDBRANCH  24  26
ENDBRANCH   1  24
BRANCH   4  29
ATOM     29  C   UNL     1      -0.794  12.597  17.710  0.00  0.00    +0.000 C 
BRANCH  29  30
ATOM     30  C   UNL     1      -1.995  11.686  17.837  0.00  0.00    +0.000 A 
ATOM     31  C   UNL     1      -3.167  12.128  18.466  0.00  0.00    +0.000 A 
ATOM     32  C   UNL     1      -4.300  11.315  18.529  0.00  0.00    +0.000 A 
ATOM     33  C   UNL     1      -4.281  10.047  17.953  0.00  0.00    +0.000 A 
ATOM     34  C   UNL     1      -3.124   9.588  17.330  0.00  0.00    +0.000 A 
ATOM     35  C   UNL     1      -1.986  10.400  17.278  0.00  0.00    +0.000 A 
ENDBRANCH  29  30
ENDBRANCH   4  29
TORSDOF 8
ENDMDL
MODEL 6
REMARK VINA RESULT:      -6.3      0.110      1.159
REMARK  Name = 
REMARK  9 active torsions:
REMARK  status: ('A' for Active; 'I' for Inactive)
REMARK    1  A    between atoms: C_1  and  C_2
REMARK    2  A    between atoms: C_2  and  O_3
REMARK    3  A    between atoms: O_3  and  C_4
REMARK    4  A    between atoms: C_4  and  C_6
REMARK    5  A    between atoms: C_6  and  C_7
REMARK    6  A    between atoms: C_14  and  C_15
REMARK    7  A    between atoms: N_21  and  C_22
REMARK    8  A    between atoms: C_22  and  C_23
REMARK    9  A    between atoms: C_29  and  C_30
REMARK                            x       y       z     vdW  Elec       q    Type
REMARK                         _______ _______ _______ _____ _____    ______ ____
ROOT
ATOM      1  C   UNL     1      -0.152  13.637  21.117  0.00  0.00    +0.000 C 
ATOM      2  N   UNL     1       0.593  12.304  21.086  0.00  0.00    +0.000 NA
ATOM      3  C   UNL     1       0.509  11.887  19.844  0.00  0.00    +0.000 C 
ATOM      4  N   UNL     1      -0.029  12.776  18.943  0.00  0.00    +0.000 N 
ATOM      5  C   UNL     1      -0.174  14.075  19.603  0.00  0.00    +0.000 C 
ENDROOT
BRANCH   1   6
ATOM      6  C   UNL     1      -1.539  13.388  21.755  0.00  0.00    +0.000 A 
ATOM      7  C   UNL     1      -1.643  12.476  22.824  0.00  0.00    +0.000 A 
ATOM      8  C   UNL     1      -2.876  12.157  23.392  0.00  0.00    +0.000 A 
ATOM      9  C   UNL     1      -4.035  12.757  22.916  0.00  0.00    +0.000 A 
ATOM     10  C   UNL     1      -3.953  13.704  21.898  0.00  0.00    +0.000 A 
ATOM     11  C   UNL     1      -2.714  14.035  21.338  0.00  0.00    +0.000 A 
ENDBRANCH   1   6
BRANCH   3  12
ATOM     12  C   UNL     1       1.070  10.558  19.506  0.00  0.00    +0.000 A 
ATOM     13  C   UNL     1       1.650  10.368  18.248  0.00  0.00    +0.000 A 
ATOM     14  C   UNL     1       2.132   9.111  17.886  0.00  0.00    +0.000 A 
ATOM     15  C   UNL     1       2.035   8.044  18.778  0.00  0.00    +0.000 A 
ATOM     16  C   UNL     1       1.439   8.228  20.027  0.00  0.00    +0.000 A 
ATOM     17  C   UNL     1       0.941   9.480  20.384  0.00  0.00    +0.000 A 
ENDBRANCH   3  12
BRANCH   5  18
ATOM     18  C   UNL     1       0.956  15.003  19.144  0.00  0.00    +0.000 A 
ATOM     19  C   UNL     1       2.212  14.472  18.824  0.00  0.00    +0.000 A 
ATOM     20  C   UNL     1       3.205  15.324  18.360  0.00  0.00    +0.000 A 
ATOM     21  N   UNL     1       3.046  16.655  18.205  0.00  0.00    +0.000 NA
ATOM     22  C   UNL     1       1.833  17.153  18.510  0.00  0.00    +0.000 A 
ATOM     23  C   UNL     1       0.776  16.382  18.969  0.00  0.00    +0.000 A 
ENDBRANCH   5  18
BRANCH   1  24
ATOM     24  C   UNL     1       0.617  14.667  21.970  0.00  0.00    +0.000 C 
ATOM     25  O   UNL     1       1.787  14.528  22.319  0.00  0.00    +0.000 OA
BRANCH  24  26
ATOM     26  O   UNL     1      -0.159  15.739  22.303  0.00  0.00    +0.000 OA
BRANCH  26  28
ATOM     27  C   UNL     1      -1.214  15.821  24.476  0.00  0.00    +0.000 C 
ATOM     28  C   UNL     1      -0.031  16.254  23.633  0.00  0.00    +0.000 C 
ENDBRANCH  26  28
ENDBRANCH  24  26
ENDBRANCH   1  24
BRANCH   4  29
ATOM     29  C   UNL     1      -0.672  12.507  17.672  0.00  0.00    +0.000 C 
BRANCH  29  30
ATOM     30  C   UNL     1      -1.928  11.672  17.791  0.00  0.00    +0.000 A 
ATOM     31  C   UNL     1      -1.970  10.363  17.291  0.00  0.00    +0.000 A 
ATOM     32  C   UNL     1      -3.103   9.566  17.456  0.00  0.00    +0.000 A 
ATOM     33  C   UNL     1      -4.213  10.065  18.135  0.00  0.00    +0.000 A 
ATOM     34  C   UNL     1      -4.193  11.365  18.632  0.00  0.00    +0.000 A 
ATOM     35  C   UNL     1      -3.060  12.165  18.457  0.00  0.00    +0.000 A 
ENDBRANCH  29  30
ENDBRANCH   4  29
TORSDOF 8
ENDMDL
MODEL 7
REMARK VINA RESULT:      -6.3      2.605      6.229
REMARK  Name = 
REMARK  9 active torsions:
REMARK  status: ('A' for Active; 'I' for Inactive)
REMARK    1  A    between atoms: C_1  and  C_2
REMARK    2  A    between atoms: C_2  and  O_3
REMARK    3  A    between atoms: O_3  and  C_4
REMARK    4  A    between atoms: C_4  and  C_6
REMARK    5  A    between atoms: C_6  and  C_7
REMARK    6  A    between atoms: C_14  and  C_15
REMARK    7  A    between atoms: N_21  and  C_22
REMARK    8  A    between atoms: C_22  and  C_23
REMARK    9  A    between atoms: C_29  and  C_30
REMARK                            x       y       z     vdW  Elec       q    Type
REMARK                         _______ _______ _______ _____ _____    ______ ____
ROOT
ATOM      1  C   UNL     1      -1.270  12.877  21.617  0.00  0.00    +0.000 C 
ATOM      2  N   UNL     1      -2.433  12.979  20.632  0.00  0.00    +0.000 NA
ATOM      3  C   UNL     1      -3.513  13.050  21.375  0.00  0.00    +0.000 C 
ATOM      4  N   UNL     1      -3.308  13.181  22.729  0.00  0.00    +0.000 N 
ATOM      5  C   UNL     1      -1.883  13.428  22.961  0.00  0.00    +0.000 C 
ENDROOT
BRANCH   1   6
ATOM      6  C   UNL     1      -0.811  11.400  21.655  0.00  0.00    +0.000 A 
ATOM      7  C   UNL     1      -0.773  10.731  22.894  0.00  0.00    +0.000 A 
ATOM      8  C   UNL     1      -0.300   9.423  23.002  0.00  0.00    +0.000 A 
ATOM      9  C   UNL     1       0.130   8.745  21.867  0.00  0.00    +0.000 A 
ATOM     10  C   UNL     1       0.049   9.364  20.623  0.00  0.00    +0.000 A 
ATOM     11  C   UNL     1      -0.439  10.671  20.512  0.00  0.00    +0.000 A 
ENDBRANCH   1   6
BRANCH   3  12
ATOM     12  C   UNL     1      -4.833  13.071  20.702  0.00  0.00    +0.000 A 
ATOM     13  C   UNL     1      -5.378  14.301  20.319  0.00  0.00    +0.000 A 
ATOM     14  C   UNL     1      -6.644  14.351  19.737  0.00  0.00    +0.000 A 
ATOM     15  C   UNL     1      -7.365  13.175  19.537  0.00  0.00    +0.000 A 
ATOM     16  C   UNL     1      -6.830  11.948  19.936  0.00  0.00    +0.000 A 
ATOM     17  C   UNL     1      -5.572  11.898  20.534  0.00  0.00    +0.000 A 
ENDBRANCH   3  12
BRANCH   5  18
ATOM     18  C   UNL     1      -1.669  14.917  23.248  0.00  0.00    +0.000 A 
ATOM     19  C   UNL     1      -0.865  15.315  24.324  0.00  0.00    +0.000 A 
ATOM     20  C   UNL     1      -0.642  16.669  24.534  0.00  0.00    +0.000 A 
ATOM     21  N   UNL     1      -1.166  17.648  23.767  0.00  0.00    +0.000 NA
ATOM     22  C   UNL     1      -1.933  17.254  22.733  0.00  0.00    +0.000 A 
ATOM     23  C   UNL     1      -2.203  15.927  22.435  0.00  0.00    +0.000 A 
ENDBRANCH   5  18
BRANCH   1  24
ATOM     24  C   UNL     1      -0.091  13.758  21.155  0.00  0.00    +0.000 C 
ATOM     25  O   UNL     1       0.976  13.844  21.759  0.00  0.00    +0.000 OA
BRANCH  24  26
ATOM     26  O   UNL     1      -0.379  14.440  20.008  0.00  0.00    +0.000 OA
BRANCH  26  28
ATOM     27  C   UNL     1      -0.462  16.579  18.886  0.00  0.00    +0.000 C 
ATOM     28  C   UNL     1       0.351  15.647  19.762  0.00  0.00    +0.000 C 
ENDBRANCH  26  28
ENDBRANCH  24  26
ENDBRANCH   1  24
BRANCH   4  29
ATOM     29  C   UNL     1      -4.194  12.833  23.822  0.00  0.00    +0.000 C 
BRANCH  29  30
ATOM     30  C   UNL     1      -5.483  13.625  23.834  0.00  0.00    +0.000 A 
ATOM     31  C   UNL     1      -5.465  15.026  23.794  0.00  0.00    +0.000 A 
ATOM     32  C   UNL     1      -6.652  15.758  23.740  0.00  0.00    +0.000 A 
ATOM     33  C   UNL     1      -7.878  15.098  23.714  0.00  0.00    +0.000 A 
ATOM     34  C   UNL     1      -7.916  13.707  23.761  0.00  0.00    +0.000 A 
ATOM     35  C   UNL     1      -6.726  12.976  23.826  0.00  0.00    +0.000 A 
ENDBRANCH  29  30
ENDBRANCH   4  29
TORSDOF 8
ENDMDL
MODEL 8
REMARK VINA RESULT:      -6.2      0.721      2.054
REMARK  Name = 
REMARK  9 active torsions:
REMARK  status: ('A' for Active; 'I' for Inactive)
REMARK    1  A    between atoms: C_1  and  C_2
REMARK    2  A    between atoms: C_2  and  O_3
REMARK    3  A    between atoms: O_3  and  C_4
REMARK    4  A    between atoms: C_4  and  C_6
REMARK    5  A    between atoms: C_6  and  C_7
REMARK    6  A    between atoms: C_14  and  C_15
REMARK    7  A    between atoms: N_21  and  C_22
REMARK    8  A    between atoms: C_22  and  C_23
REMARK    9  A    between atoms: C_29  and  C_30
REMARK                            x       y       z     vdW  Elec       q    Type
REMARK                         _______ _______ _______ _____ _____    ______ ____
ROOT
ATOM      1  C   UNL     1      -0.257  13.667  21.105  0.00  0.00    +0.000 C 
ATOM      2  N   UNL     1       0.527  12.358  21.049  0.00  0.00    +0.000 NA
ATOM      3  C   UNL     1       0.443  11.954  19.803  0.00  0.00    +0.000 C 
ATOM      4  N   UNL     1      -0.131  12.838  18.919  0.00  0.00    +0.000 N 
ATOM      5  C   UNL     1      -0.308  14.124  19.597  0.00  0.00    +0.000 C 
ENDROOT
BRANCH   1   6
ATOM      6  C   UNL     1      -1.630  13.368  21.753  0.00  0.00    +0.000 A 
ATOM      7  C   UNL     1      -2.765  14.060  21.289  0.00  0.00    +0.000 A 
ATOM      8  C   UNL     1      -4.016  13.887  21.882  0.00  0.00    +0.000 A 
ATOM      9  C   UNL     1      -4.164  13.003  22.943  0.00  0.00    +0.000 A 
ATOM     10  C   UNL     1      -3.069  12.265  23.384  0.00  0.00    +0.000 A 
ATOM     11  C   UNL     1      -1.817  12.427  22.779  0.00  0.00    +0.000 A 
ENDBRANCH   1   6
BRANCH   3  12
ATOM     12  C   UNL     1       1.040  10.646  19.442  0.00  0.00    +0.000 A 
ATOM     13  C   UNL     1       1.649  10.502  18.191  0.00  0.00    +0.000 A 
ATOM     14  C   UNL     1       2.165   9.266  17.807  0.00  0.00    +0.000 A 
ATOM     15  C   UNL     1       2.075   8.175  18.669  0.00  0.00    +0.000 A 
ATOM     16  C   UNL     1       1.451   8.312  19.910  0.00  0.00    +0.000 A 
ATOM     17  C   UNL     1       0.919   9.544  20.290  0.00  0.00    +0.000 A 
ENDBRANCH   3  12
BRANCH   5  18
ATOM     18  C   UNL     1       0.789  15.090  19.139  0.00  0.00    +0.000 A 
ATOM     19  C   UNL     1       0.542  16.469  19.111  0.00  0.00    +0.000 A 
ATOM     20  C   UNL     1       1.567  17.330  18.743  0.00  0.00    +0.000 A 
ATOM     21  N   UNL     1       2.805  16.923  18.393  0.00  0.00    +0.000 NA
ATOM     22  C   UNL     1       3.033  15.597  18.429  0.00  0.00    +0.000 A 
ATOM     23  C   UNL     1       2.078  14.660  18.793  0.00  0.00    +0.000 A 
ENDBRANCH   5  18
BRANCH   1  24
ATOM     24  C   UNL     1       0.490  14.708  21.964  0.00  0.00    +0.000 C 
ATOM     25  O   UNL     1      -0.019  15.751  22.370  0.00  0.00    +0.000 OA
BRANCH  24  26
ATOM     26  O   UNL     1       1.782  14.342  22.206  0.00  0.00    +0.000 OA
BRANCH  26  28
ATOM     27  C   UNL     1       4.145  14.802  21.985  0.00  0.00    +0.000 C 
ATOM     28  C   UNL     1       2.765  15.383  22.226  0.00  0.00    +0.000 C 
ENDBRANCH  26  28
ENDBRANCH  24  26
ENDBRANCH   1  24
BRANCH   4  29
ATOM     29  C   UNL     1      -0.778  12.566  17.651  0.00  0.00    +0.000 C 
BRANCH  29  30
ATOM     30  C   UNL     1      -2.005  11.688  17.771  0.00  0.00    +0.000 A 
ATOM     31  C   UNL     1      -2.009  10.385  17.254  0.00  0.00    +0.000 A 
ATOM     32  C   UNL     1      -3.114   9.550  17.420  0.00  0.00    +0.000 A 
ATOM     33  C   UNL     1      -4.232  10.002  18.116  0.00  0.00    +0.000 A 
ATOM     34  C   UNL     1      -4.250  11.296  18.630  0.00  0.00    +0.000 A 
ATOM     35  C   UNL     1      -3.146  12.135  18.454  0.00  0.00    +0.000 A 
ENDBRANCH  29  30
ENDBRANCH   4  29
TORSDOF 8
ENDMDL
MODEL 9
REMARK VINA RESULT:      -6.2      0.378      1.197
REMARK  Name = 
REMARK  9 active torsions:
REMARK  status: ('A' for Active; 'I' for Inactive)
REMARK    1  A    between atoms: C_1  and  C_2
REMARK    2  A    between atoms: C_2  and  O_3
REMARK    3  A    between atoms: O_3  and  C_4
REMARK    4  A    between atoms: C_4  and  C_6
REMARK    5  A    between atoms: C_6  and  C_7
REMARK    6  A    between atoms: C_14  and  C_15
REMARK    7  A    between atoms: N_21  and  C_22
REMARK    8  A    between atoms: C_22  and  C_23
REMARK    9  A    between atoms: C_29  and  C_30
REMARK                            x       y       z     vdW  Elec       q    Type
REMARK                         _______ _______ _______ _____ _____    ______ ____
ROOT
ATOM      1  C   UNL     1      -0.113  13.556  21.138  0.00  0.00    +0.000 C 
ATOM      2  N   UNL     1       0.603  12.209  21.071  0.00  0.00    +0.000 NA
ATOM      3  C   UNL     1       0.493  11.819  19.823  0.00  0.00    +0.000 C 
ATOM      4  N   UNL     1      -0.039  12.736  18.947  0.00  0.00    +0.000 N 
ATOM      5  C   UNL     1      -0.146  14.025  19.633  0.00  0.00    +0.000 C 
ENDROOT
BRANCH   1   6
ATOM      6  C   UNL     1      -1.497  13.325  21.791  0.00  0.00    +0.000 A 
ATOM      7  C   UNL     1      -1.603  12.403  22.850  0.00  0.00    +0.000 A 
ATOM      8  C   UNL     1      -2.835  12.099  23.431  0.00  0.00    +0.000 A 
ATOM      9  C   UNL     1      -3.989  12.724  22.975  0.00  0.00    +0.000 A 
ATOM     10  C   UNL     1      -3.903  13.681  21.967  0.00  0.00    +0.000 A 
ATOM     11  C   UNL     1      -2.665  13.997  21.396  0.00  0.00    +0.000 A 
ENDBRANCH   1   6
BRANCH   3  12
ATOM     12  C   UNL     1       1.021  10.484  19.451  0.00  0.00    +0.000 A 
ATOM     13  C   UNL     1       0.961   9.448  20.389  0.00  0.00    +0.000 A 
ATOM     14  C   UNL     1       1.503   8.201  20.083  0.00  0.00    +0.000 A 
ATOM     15  C   UNL     1       2.104   7.987  18.843  0.00  0.00    +0.000 A 
ATOM     16  C   UNL     1       2.181   9.026  17.914  0.00  0.00    +0.000 A 
ATOM     17  C   UNL     1       1.655  10.279  18.224  0.00  0.00    +0.000 A 
ENDBRANCH   3  12
BRANCH   5  18
ATOM     18  C   UNL     1       0.997  14.937  19.177  0.00  0.00    +0.000 A 
ATOM     19  C   UNL     1       0.818  16.326  19.151  0.00  0.00    +0.000 A 
ATOM     20  C   UNL     1       1.884  17.136  18.784  0.00  0.00    +0.000 A 
ATOM     21  N   UNL     1       3.100  16.669  18.433  0.00  0.00    +0.000 NA
ATOM     22  C   UNL     1       3.263  15.333  18.467  0.00  0.00    +0.000 A 
ATOM     23  C   UNL     1       2.263  14.444  18.830  0.00  0.00    +0.000 A 
ENDBRANCH   5  18
BRANCH   1  24
ATOM     24  C   UNL     1       0.689  14.553  22.001  0.00  0.00    +0.000 C 
ATOM     25  O   UNL     1       1.882  14.421  22.267  0.00  0.00    +0.000 OA
BRANCH  24  26
ATOM     26  O   UNL     1      -0.084  15.587  22.443  0.00  0.00    +0.000 OA
BRANCH  26  28
ATOM     27  C   UNL     1       0.366  16.992  24.358  0.00  0.00    +0.000 C 
ATOM     28  C   UNL     1       0.592  16.773  22.875  0.00  0.00    +0.000 C 
ENDBRANCH  26  28
ENDBRANCH  24  26
ENDBRANCH   1  24
BRANCH   4  29
ATOM     29  C   UNL     1      -0.704  12.506  17.680  0.00  0.00    +0.000 C 
BRANCH  29  30
ATOM     30  C   UNL     1      -1.964  11.676  17.798  0.00  0.00    +0.000 A 
ATOM     31  C   UNL     1      -2.015  10.373  17.285  0.00  0.00    +0.000 A 
ATOM     32  C   UNL     1      -3.152   9.580  17.448  0.00  0.00    +0.000 A 
ATOM     33  C   UNL     1      -4.255  10.077  18.138  0.00  0.00    +0.000 A 
ATOM     34  C   UNL     1      -4.226  11.373  18.648  0.00  0.00    +0.000 A 
ATOM     35  C   UNL     1      -3.090  12.169  18.474  0.00  0.00    +0.000 A 
ENDBRANCH  29  30
ENDBRANCH   4  29
TORSDOF 8
ENDMDL
