MODEL 1
REMARK VINA RESULT:      -8.5      0.000      0.000
REMARK  Name = 
REMARK  8 active torsions:
REMARK  status: ('A' for Active; 'I' for Inactive)
REMARK    1  A    between atoms: C_1  and  O_2
REMARK    2  A    between atoms: O_2  and  C_3
REMARK    3  A    between atoms: C_6  and  C_7
REMARK    4  A    between atoms: C_9  and  C_10
REMARK    5  A    between atoms: N_12  and  C_13
REMARK    6  A    between atoms: C_15  and  N_16
REMARK    7  A    between atoms: C_31  and  O_32
REMARK    8  A    between atoms: O_32  and  C_33
REMARK                            x       y       z     vdW  Elec       q    Type
REMARK                         _______ _______ _______ _____ _____    ______ ____
ROOT
ATOM      1  C   UNL     1       4.125   4.261  17.805  0.00  0.00    +0.000 A 
ATOM      2  C   UNL     1       2.946   4.986  17.751  0.00  0.00    +0.000 A 
ATOM      3  C   UNL     1       2.219   5.115  18.916  0.00  0.00    +0.000 A 
ATOM      4  C   UNL     1       2.268   4.076  19.832  0.00  0.00    +0.000 A 
ATOM      5  C   UNL     1       1.215   3.873  20.744  0.00  0.00    +0.000 A 
ATOM      6  C   UNL     1       1.278   2.832  21.655  0.00  0.00    +0.000 A 
ATOM      7  C   UNL     1       2.418   2.039  21.684  0.00  0.00    +0.000 A 
ATOM      8  C   UNL     1       3.466   2.259  20.769  0.00  0.00    +0.000 A 
ATOM      9  C   UNL     1       3.400   3.246  19.786  0.00  0.00    +0.000 A 
ATOM     10  N   UNL     1       4.366   3.408  18.836  0.00  0.00    +0.000 NA
ENDROOT
BRANCH   1  14
ATOM     11  C   UNL     1       7.136   5.151  14.791  0.00  0.00    +0.000 A 
ATOM     12  C   UNL     1       6.229   4.083  14.618  0.00  0.00    +0.000 A 
ATOM     13  C   UNL     1       5.268   3.756  15.587  0.00  0.00    +0.000 A 
ATOM     14  C   UNL     1       5.166   4.485  16.763  0.00  0.00    +0.000 A 
ATOM     15  C   UNL     1       6.139   5.493  16.953  0.00  0.00    +0.000 A 
ATOM     16  C   UNL     1       7.108   5.846  15.992  0.00  0.00    +0.000 A 
BRANCH  11  18
ATOM     17  C   UNL     1       7.752   5.155  12.488  0.00  0.00    +0.000 C 
ATOM     18  O   UNL     1       8.052   5.525  13.839  0.00  0.00    +0.000 OA
ENDBRANCH  11  18
BRANCH  16  19
ATOM     19  O   UNL     1       7.856   6.906  16.431  0.00  0.00    +0.000 OA
ATOM     20  C   UNL     1       7.623   7.455  17.717  0.00  0.00    +0.000 C 
ENDBRANCH  16  19
ENDBRANCH   1  14
BRANCH   3  21
ATOM     21  C   UNL     1       2.208   6.495  19.527  0.00  0.00    +0.000 C 
ATOM     22  O   UNL     1       3.258   7.012  19.901  0.00  0.00    +0.000 OA
ATOM     23  N   UNL     1       0.987   7.147  19.589  0.00  0.00    +0.000 N 
ATOM     24  H   UNL     1       0.171   6.570  19.758  0.00  0.00    +0.000 HD
BRANCH  23  25
ATOM     25  C   UNL     1       0.896   8.505  19.986  0.00  0.00    +0.000 A 
ATOM     26  C   UNL     1       0.424   8.859  21.261  0.00  0.00    +0.000 A 
ATOM     27  C   UNL     1       0.353  10.212  21.627  0.00  0.00    +0.000 A 
ATOM     28  C   UNL     1       0.728  11.213  20.723  0.00  0.00    +0.000 A 
ATOM     29  C   UNL     1       1.195  10.859  19.454  0.00  0.00    +0.000 A 
ATOM     30  C   UNL     1       1.300   9.513  19.096  0.00  0.00    +0.000 A 
ATOM     31 CL   UNL     1       1.839   9.120  17.502  0.00  0.00    +0.000 Cl
BRANCH  27  32
ATOM     32  N   UNL     1      -0.106  10.591  22.975  0.00  0.00    +0.000 N 
ATOM     33  O   UNL     1      -0.685  11.676  23.103  0.00  0.00    +0.000 OA
ATOM     34  O   UNL     1       0.100   9.789  23.895  0.00  0.00    +0.000 OA
ENDBRANCH  27  32
ENDBRANCH  23  25
ENDBRANCH   3  21
TORSDOF 6
ENDMDL
MODEL 2
REMARK VINA RESULT:      -8.1      2.546      8.555
REMARK  Name = 
REMARK  8 active torsions:
REMARK  status: ('A' for Active; 'I' for Inactive)
REMARK    1  A    between atoms: C_1  and  O_2
REMARK    2  A    between atoms: O_2  and  C_3
REMARK    3  A    between atoms: C_6  and  C_7
REMARK    4  A    between atoms: C_9  and  C_10
REMARK    5  A    between atoms: N_12  and  C_13
REMARK    6  A    between atoms: C_15  and  N_16
REMARK    7  A    between atoms: C_31  and  O_32
REMARK    8  A    between atoms: O_32  and  C_33
REMARK                            x       y       z     vdW  Elec       q    Type
REMARK                         _______ _______ _______ _____ _____    ______ ____
ROOT
ATOM      1  C   UNL     1       2.334   6.620  19.483  0.00  0.00    +0.000 A 
ATOM      2  C   UNL     1       3.672   6.391  19.208  0.00  0.00    +0.000 A 
ATOM      3  C   UNL     1       4.006   5.199  18.598  0.00  0.00    +0.000 A 
ATOM      4  C   UNL     1       3.230   4.085  18.877  0.00  0.00    +0.000 A 
ATOM      5  C   UNL     1       3.762   2.789  18.748  0.00  0.00    +0.000 A 
ATOM      6  C   UNL     1       2.974   1.685  19.028  0.00  0.00    +0.000 A 
ATOM      7  C   UNL     1       1.645   1.885  19.379  0.00  0.00    +0.000 A 
ATOM      8  C   UNL     1       1.125   3.189  19.498  0.00  0.00    +0.000 A 
ATOM      9  C   UNL     1       1.913   4.324  19.303  0.00  0.00    +0.000 A 
ATOM     10  N   UNL     1       1.446   5.590  19.506  0.00  0.00    +0.000 NA
ENDROOT
BRANCH   1  14
ATOM     11  C   UNL     1       0.787  10.626  20.192  0.00  0.00    +0.000 A 
ATOM     12  C   UNL     1       1.158  10.210  18.896  0.00  0.00    +0.000 A 
ATOM     13  C   UNL     1       1.687   8.934  18.644  0.00  0.00    +0.000 A 
ATOM     14  C   UNL     1       1.859   8.019  19.673  0.00  0.00    +0.000 A 
ATOM     15  C   UNL     1       1.562   8.487  20.973  0.00  0.00    +0.000 A 
ATOM     16  C   UNL     1       1.023   9.759  21.251  0.00  0.00    +0.000 A 
BRANCH  11  18
ATOM     17  C   UNL     1      -1.193  11.952  20.250  0.00  0.00    +0.000 C 
ATOM     18  O   UNL     1       0.220  11.847  20.460  0.00  0.00    +0.000 OA
ENDBRANCH  11  18
BRANCH  16  19
ATOM     19  O   UNL     1       0.771   9.892  22.591  0.00  0.00    +0.000 OA
ATOM     20  C   UNL     1      -0.518   9.602  23.103  0.00  0.00    +0.000 C 
ENDBRANCH  16  19
ENDBRANCH   1  14
BRANCH   3  21
ATOM     21  C   UNL     1       4.462   5.307  17.163  0.00  0.00    +0.000 C 
ATOM     22  O   UNL     1       4.291   6.351  16.539  0.00  0.00    +0.000 OA
ATOM     23  N   UNL     1       5.115   4.209  16.625  0.00  0.00    +0.000 N 
ATOM     24  H   UNL     1       4.800   3.297  16.933  0.00  0.00    +0.000 HD
BRANCH  23  25
ATOM     25  C   UNL     1       5.730   4.271  15.349  0.00  0.00    +0.000 A 
ATOM     26  C   UNL     1       5.201   3.567  14.254  0.00  0.00    +0.000 A 
ATOM     27  C   UNL     1       5.829   3.654  13.002  0.00  0.00    +0.000 A 
ATOM     28  C   UNL     1       6.991   4.418  12.841  0.00  0.00    +0.000 A 
ATOM     29  C   UNL     1       7.516   5.115  13.932  0.00  0.00    +0.000 A 
ATOM     30  C   UNL     1       6.877   5.060  15.173  0.00  0.00    +0.000 A 
ATOM     31 CL   UNL     1       7.585   5.900  16.507  0.00  0.00    +0.000 Cl
BRANCH  27  32
ATOM     32  N   UNL     1       5.262   2.948  11.840  0.00  0.00    +0.000 N 
ATOM     33  O   UNL     1       4.266   3.441  11.296  0.00  0.00    +0.000 OA
ATOM     34  O   UNL     1       5.828   1.913  11.466  0.00  0.00    +0.000 OA
ENDBRANCH  27  32
ENDBRANCH  23  25
ENDBRANCH   3  21
TORSDOF 6
ENDMDL
MODEL 3
REMARK VINA RESULT:      -8.0      4.058      7.018
REMARK  Name = 
REMARK  8 active torsions:
REMARK  status: ('A' for Active; 'I' for Inactive)
REMARK    1  A    between atoms: C_1  and  O_2
REMARK    2  A    between atoms: O_2  and  C_3
REMARK    3  A    between atoms: C_6  and  C_7
REMARK    4  A    between atoms: C_9  and  C_10
REMARK    5  A    between atoms: N_12  and  C_13
REMARK    6  A    between atoms: C_15  and  N_16
REMARK    7  A    between atoms: C_31  and  O_32
REMARK    8  A    between atoms: O_32  and  C_33
REMARK                            x       y       z     vdW  Elec       q    Type
REMARK                         _______ _______ _______ _____ _____    ______ ____
ROOT
ATOM      1  C   UNL     1       1.259   9.126  19.724  0.00  0.00    +0.000 A 
ATOM      2  C   UNL     1       0.929  10.272  19.019  0.00  0.00    +0.000 A 
ATOM      3  C   UNL     1       0.523  11.375  19.742  0.00  0.00    +0.000 A 
ATOM      4  C   UNL     1      -0.157  11.159  20.930  0.00  0.00    +0.000 A 
ATOM      5  C   UNL     1      -1.032  12.133  21.444  0.00  0.00    +0.000 A 
ATOM      6  C   UNL     1      -1.704  11.906  22.633  0.00  0.00    +0.000 A 
ATOM      7  C   UNL     1      -1.450  10.730  23.328  0.00  0.00    +0.000 A 
ATOM      8  C   UNL     1      -0.565   9.766  22.804  0.00  0.00    +0.000 A 
ATOM      9  C   UNL     1       0.064   9.928  21.570  0.00  0.00    +0.000 A 
ATOM     10  N   UNL     1       0.848   8.962  21.010  0.00  0.00    +0.000 NA
ENDROOT
BRANCH   1  14
ATOM     11  C   UNL     1       3.925   6.107  18.074  0.00  0.00    +0.000 A 
ATOM     12  C   UNL     1       3.658   7.302  17.372  0.00  0.00    +0.000 A 
ATOM     13  C   UNL     1       2.780   8.279  17.867  0.00  0.00    +0.000 A 
ATOM     14  C   UNL     1       2.139   8.107  19.086  0.00  0.00    +0.000 A 
ATOM     15  C   UNL     1       2.354   6.867  19.729  0.00  0.00    +0.000 A 
ATOM     16  C   UNL     1       3.237   5.875  19.257  0.00  0.00    +0.000 A 
BRANCH  11  18
ATOM     17  C   UNL     1       4.273   4.073  16.880  0.00  0.00    +0.000 C 
ATOM     18  O   UNL     1       4.818   5.159  17.639  0.00  0.00    +0.000 OA
ENDBRANCH  11  18
BRANCH  16  19
ATOM     19  O   UNL     1       3.290   4.823  20.133  0.00  0.00    +0.000 OA
ATOM     20  C   UNL     1       2.185   4.544  20.975  0.00  0.00    +0.000 C 
ENDBRANCH  16  19
ENDBRANCH   1  14
BRANCH   3  21
ATOM     21  C   UNL     1       1.496  12.528  19.771  0.00  0.00    +0.000 C 
ATOM     22  O   UNL     1       2.202  12.714  20.759  0.00  0.00    +0.000 OA
ATOM     23  N   UNL     1       1.580  13.310  18.630  0.00  0.00    +0.000 N 
ATOM     24  H   UNL     1       0.721  13.454  18.113  0.00  0.00    +0.000 HD
BRANCH  23  25
ATOM     25  C   UNL     1       2.578  14.307  18.493  0.00  0.00    +0.000 A 
ATOM     26  C   UNL     1       3.915  13.964  18.229  0.00  0.00    +0.000 A 
ATOM     27  C   UNL     1       4.879  14.975  18.091  0.00  0.00    +0.000 A 
ATOM     28  C   UNL     1       4.524  16.321  18.237  0.00  0.00    +0.000 A 
ATOM     29  C   UNL     1       3.193  16.660  18.502  0.00  0.00    +0.000 A 
ATOM     30  C   UNL     1       2.223  15.660  18.607  0.00  0.00    +0.000 A 
ATOM     31 CL   UNL     1       0.599  16.119  18.981  0.00  0.00    +0.000 Cl
BRANCH  27  32
ATOM     32  N   UNL     1       6.276  14.627  17.778  0.00  0.00    +0.000 N 
ATOM     33  O   UNL     1       7.132  15.511  17.901  0.00  0.00    +0.000 OA
ATOM     34  O   UNL     1       6.511  13.464  17.427  0.00  0.00    +0.000 OA
ENDBRANCH  27  32
ENDBRANCH  23  25
ENDBRANCH   3  21
TORSDOF 6
ENDMDL
MODEL 4
REMARK VINA RESULT:      -7.9      2.544      8.055
REMARK  Name = 
REMARK  8 active torsions:
REMARK  status: ('A' for Active; 'I' for Inactive)
REMARK    1  A    between atoms: C_1  and  O_2
REMARK    2  A    between atoms: O_2  and  C_3
REMARK    3  A    between atoms: C_6  and  C_7
REMARK    4  A    between atoms: C_9  and  C_10
REMARK    5  A    between atoms: N_12  and  C_13
REMARK    6  A    between atoms: C_15  and  N_16
REMARK    7  A    between atoms: C_31  and  O_32
REMARK    8  A    between atoms: O_32  and  C_33
REMARK                            x       y       z     vdW  Elec       q    Type
REMARK                         _______ _______ _______ _____ _____    ______ ____
ROOT
ATOM      1  C   UNL     1       2.423   6.320  19.136  0.00  0.00    +0.000 A 
ATOM      2  C   UNL     1       3.705   5.940  19.503  0.00  0.00    +0.000 A 
ATOM      3  C   UNL     1       4.125   4.675  19.147  0.00  0.00    +0.000 A 
ATOM      4  C   UNL     1       3.174   3.669  19.081  0.00  0.00    +0.000 A 
ATOM      5  C   UNL     1       3.542   2.321  19.246  0.00  0.00    +0.000 A 
ATOM      6  C   UNL     1       2.582   1.325  19.175  0.00  0.00    +0.000 A 
ATOM      7  C   UNL     1       1.272   1.681  18.881  0.00  0.00    +0.000 A 
ATOM      8  C   UNL     1       0.920   3.035  18.711  0.00  0.00    +0.000 A 
ATOM      9  C   UNL     1       1.846   4.068  18.857  0.00  0.00    +0.000 A 
ATOM     10  N   UNL     1       1.498   5.386  18.788  0.00  0.00    +0.000 NA
ENDROOT
BRANCH   1  14
ATOM     11  C   UNL     1       1.250  10.508  18.985  0.00  0.00    +0.000 A 
ATOM     12  C   UNL     1       1.902   9.897  17.893  0.00  0.00    +0.000 A 
ATOM     13  C   UNL     1       2.318   8.556  17.926  0.00  0.00    +0.000 A 
ATOM     14  C   UNL     1       2.091   7.769  19.046  0.00  0.00    +0.000 A 
ATOM     15  C   UNL     1       1.515   8.425  20.158  0.00  0.00    +0.000 A 
ATOM     16  C   UNL     1       1.082   9.766  20.147  0.00  0.00    +0.000 A 
BRANCH  11  18
ATOM     17  C   UNL     1       1.759  12.819  18.701  0.00  0.00    +0.000 C 
ATOM     18  O   UNL     1       0.787  11.800  18.961  0.00  0.00    +0.000 OA
ENDBRANCH  11  18
BRANCH  16  19
ATOM     19  O   UNL     1       0.497  10.092  21.341  0.00  0.00    +0.000 OA
ATOM     20  C   UNL     1       0.725   9.288  22.486  0.00  0.00    +0.000 C 
ENDBRANCH  16  19
ENDBRANCH   1  14
BRANCH   3  21
ATOM     21  C   UNL     1       5.181   4.618  18.072  0.00  0.00    +0.000 C 
ATOM     22  O   UNL     1       6.239   4.028  18.277  0.00  0.00    +0.000 OA
ATOM     23  N   UNL     1       4.874   5.206  16.855  0.00  0.00    +0.000 N 
ATOM     24  H   UNL     1       4.302   6.042  16.886  0.00  0.00    +0.000 HD
BRANCH  23  25
ATOM     25  C   UNL     1       5.725   5.060  15.730  0.00  0.00    +0.000 A 
ATOM     26  C   UNL     1       5.356   4.250  14.642  0.00  0.00    +0.000 A 
ATOM     27  C   UNL     1       6.217   4.131  13.540  0.00  0.00    +0.000 A 
ATOM     28  C   UNL     1       7.449   4.795  13.525  0.00  0.00    +0.000 A 
ATOM     29  C   UNL     1       7.814   5.598  14.610  0.00  0.00    +0.000 A 
ATOM     30  C   UNL     1       6.948   5.747  15.695  0.00  0.00    +0.000 A 
ATOM     31 CL   UNL     1       7.457   6.713  17.035  0.00  0.00    +0.000 Cl
BRANCH  27  32
ATOM     32  N   UNL     1       5.824   3.314  12.379  0.00  0.00    +0.000 N 
ATOM     33  O   UNL     1       6.709   2.676  11.796  0.00  0.00    +0.000 OA
ATOM     34  O   UNL     1       4.625   3.300  12.069  0.00  0.00    +0.000 OA
ENDBRANCH  27  32
ENDBRANCH  23  25
ENDBRANCH   3  21
TORSDOF 6
ENDMDL
MODEL 5
REMARK VINA RESULT:      -7.8      1.904      2.254
REMARK  Name = 
REMARK  8 active torsions:
REMARK  status: ('A' for Active; 'I' for Inactive)
REMARK    1  A    between atoms: C_1  and  O_2
REMARK    2  A    between atoms: O_2  and  C_3
REMARK    3  A    between atoms: C_6  and  C_7
REMARK    4  A    between atoms: C_9  and  C_10
REMARK    5  A    between atoms: N_12  and  C_13
REMARK    6  A    between atoms: C_15  and  N_16
REMARK    7  A    between atoms: C_31  and  O_32
REMARK    8  A    between atoms: O_32  and  C_33
REMARK                            x       y       z     vdW  Elec       q    Type
REMARK                         _______ _______ _______ _____ _____    ______ ____
ROOT
ATOM      1  C   UNL     1       4.039   4.453  17.740  0.00  0.00    +0.000 A 
ATOM      2  C   UNL     1       2.875   5.202  17.665  0.00  0.00    +0.000 A 
ATOM      3  C   UNL     1       2.138   5.357  18.820  0.00  0.00    +0.000 A 
ATOM      4  C   UNL     1       2.155   4.326  19.746  0.00  0.00    +0.000 A 
ATOM      5  C   UNL     1       1.088   4.153  20.648  0.00  0.00    +0.000 A 
ATOM      6  C   UNL     1       1.119   3.119  21.569  0.00  0.00    +0.000 A 
ATOM      7  C   UNL     1       2.242   2.304  21.620  0.00  0.00    +0.000 A 
ATOM      8  C   UNL     1       3.305   2.494  20.715  0.00  0.00    +0.000 A 
ATOM      9  C   UNL     1       3.270   3.473  19.721  0.00  0.00    +0.000 A 
ATOM     10  N   UNL     1       4.250   3.605  18.782  0.00  0.00    +0.000 NA
ENDROOT
BRANCH   1  14
ATOM     11  C   UNL     1       7.110   5.252  14.761  0.00  0.00    +0.000 A 
ATOM     12  C   UNL     1       6.150   4.238  14.560  0.00  0.00    +0.000 A 
ATOM     13  C   UNL     1       5.167   3.940  15.517  0.00  0.00    +0.000 A 
ATOM     14  C   UNL     1       5.096   4.647  16.708  0.00  0.00    +0.000 A 
ATOM     15  C   UNL     1       6.119   5.598  16.926  0.00  0.00    +0.000 A 
ATOM     16  C   UNL     1       7.111   5.921  15.978  0.00  0.00    +0.000 A 
BRANCH  11  18
ATOM     17  C   UNL     1       7.772   5.213  12.471  0.00  0.00    +0.000 C 
ATOM     18  O   UNL     1       8.049   5.600  13.822  0.00  0.00    +0.000 OA
ENDBRANCH  11  18
BRANCH  16  19
ATOM     19  O   UNL     1       7.910   6.931  16.445  0.00  0.00    +0.000 OA
ATOM     20  C   UNL     1       7.506   7.694  17.568  0.00  0.00    +0.000 C 
ENDBRANCH  16  19
ENDBRANCH   1  14
BRANCH   3  21
ATOM     21  C   UNL     1       2.148   6.742  19.418  0.00  0.00    +0.000 C 
ATOM     22  O   UNL     1       3.125   7.134  20.051  0.00  0.00    +0.000 OA
ATOM     23  N   UNL     1       1.044   7.543  19.172  0.00  0.00    +0.000 N 
ATOM     24  H   UNL     1       0.145   7.076  19.123  0.00  0.00    +0.000 HD
BRANCH  23  25
ATOM     25  C   UNL     1       1.029   8.911  19.542  0.00  0.00    +0.000 A 
ATOM     26  C   UNL     1       1.590   9.895  18.709  0.00  0.00    +0.000 A 
ATOM     27  C   UNL     1       1.553  11.242  19.100  0.00  0.00    +0.000 A 
ATOM     28  C   UNL     1       0.981  11.612  20.323  0.00  0.00    +0.000 A 
ATOM     29  C   UNL     1       0.426  10.632  21.151  0.00  0.00    +0.000 A 
ATOM     30  C   UNL     1       0.430   9.293  20.752  0.00  0.00    +0.000 A 
ATOM     31 CL   UNL     1      -0.226   8.108  21.825  0.00  0.00    +0.000 Cl
BRANCH  27  32
ATOM     32  N   UNL     1       2.106  12.283  18.217  0.00  0.00    +0.000 N 
ATOM     33  O   UNL     1       1.555  13.391  18.215  0.00  0.00    +0.000 OA
ATOM     34  O   UNL     1       3.102  11.992  17.542  0.00  0.00    +0.000 OA
ENDBRANCH  27  32
ENDBRANCH  23  25
ENDBRANCH   3  21
TORSDOF 6
ENDMDL
MODEL 6
REMARK VINA RESULT:      -7.8      4.117      7.024
REMARK  Name = 
REMARK  8 active torsions:
REMARK  status: ('A' for Active; 'I' for Inactive)
REMARK    1  A    between atoms: C_1  and  O_2
REMARK    2  A    between atoms: O_2  and  C_3
REMARK    3  A    between atoms: C_6  and  C_7
REMARK    4  A    between atoms: C_9  and  C_10
REMARK    5  A    between atoms: N_12  and  C_13
REMARK    6  A    between atoms: C_15  and  N_16
REMARK    7  A    between atoms: C_31  and  O_32
REMARK    8  A    between atoms: O_32  and  C_33
REMARK                            x       y       z     vdW  Elec       q    Type
REMARK                         _______ _______ _______ _____ _____    ______ ____
ROOT
ATOM      1  C   UNL     1       1.087   9.169  19.662  0.00  0.00    +0.000 A 
ATOM      2  C   UNL     1       0.582  10.168  18.845  0.00  0.00    +0.000 A 
ATOM      3  C   UNL     1       0.120  11.318  19.451  0.00  0.00    +0.000 A 
ATOM      4  C   UNL     1      -0.436  11.209  20.716  0.00  0.00    +0.000 A 
ATOM      5  C   UNL     1      -1.366  12.160  21.175  0.00  0.00    +0.000 A 
ATOM      6  C   UNL     1      -1.912  12.041  22.442  0.00  0.00    +0.000 A 
ATOM      7  C   UNL     1      -1.480  11.005  23.260  0.00  0.00    +0.000 A 
ATOM      8  C   UNL     1      -0.542  10.065  22.788  0.00  0.00    +0.000 A 
ATOM      9  C   UNL     1      -0.034  10.108  21.490  0.00  0.00    +0.000 A 
ATOM     10  N   UNL     1       0.801   9.151  20.991  0.00  0.00    +0.000 NA
ENDROOT
BRANCH   1  14
ATOM     11  C   UNL     1       3.891   6.182  18.195  0.00  0.00    +0.000 A 
ATOM     12  C   UNL     1       3.615   7.347  17.448  0.00  0.00    +0.000 A 
ATOM     13  C   UNL     1       2.694   8.312  17.884  0.00  0.00    +0.000 A 
ATOM     14  C   UNL     1       2.017   8.158  19.085  0.00  0.00    +0.000 A 
ATOM     15  C   UNL     1       2.244   6.944  19.773  0.00  0.00    +0.000 A 
ATOM     16  C   UNL     1       3.170   5.964  19.361  0.00  0.00    +0.000 A 
BRANCH  11  18
ATOM     17  C   UNL     1       4.360   4.190  16.970  0.00  0.00    +0.000 C 
ATOM     18  O   UNL     1       4.824   5.247  17.819  0.00  0.00    +0.000 OA
ENDBRANCH  11  18
BRANCH  16  19
ATOM     19  O   UNL     1       3.223   4.941  20.270  0.00  0.00    +0.000 OA
ATOM     20  C   UNL     1       2.044   4.519  20.933  0.00  0.00    +0.000 C 
ENDBRANCH  16  19
ENDBRANCH   1  14
BRANCH   3  21
ATOM     21  C   UNL     1       0.964  12.551  19.235  0.00  0.00    +0.000 C 
ATOM     22  O   UNL     1       0.766  13.271  18.261  0.00  0.00    +0.000 OA
ATOM     23  N   UNL     1       1.912  12.842  20.203  0.00  0.00    +0.000 N 
ATOM     24  H   UNL     1       2.367  12.052  20.647  0.00  0.00    +0.000 HD
BRANCH  23  25
ATOM     25  C   UNL     1       2.635  14.061  20.183  0.00  0.00    +0.000 A 
ATOM     26  C   UNL     1       3.758  14.225  19.354  0.00  0.00    +0.000 A 
ATOM     27  C   UNL     1       4.449  15.447  19.351  0.00  0.00    +0.000 A 
ATOM     28  C   UNL     1       4.041  16.497  20.183  0.00  0.00    +0.000 A 
ATOM     29  C   UNL     1       2.924  16.330  21.008  0.00  0.00    +0.000 A 
ATOM     30  C   UNL     1       2.213  15.128  20.991  0.00  0.00    +0.000 A 
ATOM     31 CL   UNL     1       0.866  14.948  22.059  0.00  0.00    +0.000 Cl
BRANCH  27  32
ATOM     32  N   UNL     1       5.606  15.641  18.460  0.00  0.00    +0.000 N 
ATOM     33  O   UNL     1       6.275  16.671  18.598  0.00  0.00    +0.000 OA
ATOM     34  O   UNL     1       5.849  14.749  17.636  0.00  0.00    +0.000 OA
ENDBRANCH  27  32
ENDBRANCH  23  25
ENDBRANCH   3  21
TORSDOF 6
ENDMDL
MODEL 7
REMARK VINA RESULT:      -7.8      3.930      6.098
REMARK  Name = 
REMARK  8 active torsions:
REMARK  status: ('A' for Active; 'I' for Inactive)
REMARK    1  A    between atoms: C_1  and  O_2
REMARK    2  A    between atoms: O_2  and  C_3
REMARK    3  A    between atoms: C_6  and  C_7
REMARK    4  A    between atoms: C_9  and  C_10
REMARK    5  A    between atoms: N_12  and  C_13
REMARK    6  A    between atoms: C_15  and  N_16
REMARK    7  A    between atoms: C_31  and  O_32
REMARK    8  A    between atoms: O_32  and  C_33
REMARK                            x       y       z     vdW  Elec       q    Type
REMARK                         _______ _______ _______ _____ _____    ______ ____
ROOT
ATOM      1  C   UNL     1       1.991   8.065  18.899  0.00  0.00    +0.000 A 
ATOM      2  C   UNL     1       1.367   9.062  18.166  0.00  0.00    +0.000 A 
ATOM      3  C   UNL     1       0.967  10.198  18.838  0.00  0.00    +0.000 A 
ATOM      4  C   UNL     1       0.582  10.068  20.163  0.00  0.00    +0.000 A 
ATOM      5  C   UNL     1      -0.297  10.997  20.749  0.00  0.00    +0.000 A 
ATOM      6  C   UNL     1      -0.672  10.857  22.075  0.00  0.00    +0.000 A 
ATOM      7  C   UNL     1      -0.120   9.822  22.819  0.00  0.00    +0.000 A 
ATOM      8  C   UNL     1       0.765   8.903  22.219  0.00  0.00    +0.000 A 
ATOM      9  C   UNL     1       1.099   8.968  20.867  0.00  0.00    +0.000 A 
ATOM     10  N   UNL     1       1.879   8.031  20.254  0.00  0.00    +0.000 NA
ENDROOT
BRANCH   1  14
ATOM     11  C   UNL     1       4.516   5.047  17.042  0.00  0.00    +0.000 A 
ATOM     12  C   UNL     1       4.741   6.421  16.814  0.00  0.00    +0.000 A 
ATOM     13  C   UNL     1       3.924   7.414  17.377  0.00  0.00    +0.000 A 
ATOM     14  C   UNL     1       2.856   7.077  18.196  0.00  0.00    +0.000 A 
ATOM     15  C   UNL     1       2.598   5.695  18.339  0.00  0.00    +0.000 A 
ATOM     16  C   UNL     1       3.407   4.679  17.792  0.00  0.00    +0.000 A 
BRANCH  11  18
ATOM     17  C   UNL     1       5.665   4.145  15.157  0.00  0.00    +0.000 C 
ATOM     18  O   UNL     1       5.329   4.057  16.547  0.00  0.00    +0.000 OA
ENDBRANCH  11  18
BRANCH  16  19
ATOM     19  O   UNL     1       2.948   3.444  18.166  0.00  0.00    +0.000 OA
ATOM     20  C   UNL     1       1.554   3.200  18.245  0.00  0.00    +0.000 C 
ENDBRANCH  16  19
ENDBRANCH   1  14
BRANCH   3  21
ATOM     21  C   UNL     1       1.754  11.448  18.529  0.00  0.00    +0.000 C 
ATOM     22  O   UNL     1       2.538  11.465  17.583  0.00  0.00    +0.000 OA
ATOM     23  N   UNL     1       1.508  12.559  19.319  0.00  0.00    +0.000 N 
ATOM     24  H   UNL     1       1.297  12.386  20.295  0.00  0.00    +0.000 HD
BRANCH  23  25
ATOM     25  C   UNL     1       2.065  13.824  19.006  0.00  0.00    +0.000 A 
ATOM     26  C   UNL     1       3.449  13.981  18.819  0.00  0.00    +0.000 A 
ATOM     27  C   UNL     1       3.970  15.245  18.502  0.00  0.00    +0.000 A 
ATOM     28  C   UNL     1       3.125  16.356  18.393  0.00  0.00    +0.000 A 
ATOM     29  C   UNL     1       1.749  16.198  18.582  0.00  0.00    +0.000 A 
ATOM     30  C   UNL     1       1.220  14.936  18.865  0.00  0.00    +0.000 A 
ATOM     31 CL   UNL     1      -0.481  14.793  19.135  0.00  0.00    +0.000 Cl
BRANCH  27  32
ATOM     32  N   UNL     1       5.415  15.412  18.269  0.00  0.00    +0.000 N 
ATOM     33  O   UNL     1       5.942  16.468  18.640  0.00  0.00    +0.000 OA
ATOM     34  O   UNL     1       6.020  14.476  17.730  0.00  0.00    +0.000 OA
ENDBRANCH  27  32
ENDBRANCH  23  25
ENDBRANCH   3  21
TORSDOF 6
ENDMDL
MODEL 8
REMARK VINA RESULT:      -7.8      3.787      5.723
REMARK  Name = 
REMARK  8 active torsions:
REMARK  status: ('A' for Active; 'I' for Inactive)
REMARK    1  A    between atoms: C_1  and  O_2
REMARK    2  A    between atoms: O_2  and  C_3
REMARK    3  A    between atoms: C_6  and  C_7
REMARK    4  A    between atoms: C_9  and  C_10
REMARK    5  A    between atoms: N_12  and  C_13
REMARK    6  A    between atoms: C_15  and  N_16
REMARK    7  A    between atoms: C_31  and  O_32
REMARK    8  A    between atoms: O_32  and  C_33
REMARK                            x       y       z     vdW  Elec       q    Type
REMARK                         _______ _______ _______ _____ _____    ______ ____
ROOT
ATOM      1  C   UNL     1       2.059   7.924  18.891  0.00  0.00    +0.000 A 
ATOM      2  C   UNL     1       1.472   8.905  18.108  0.00  0.00    +0.000 A 
ATOM      3  C   UNL     1       1.052  10.060  18.735  0.00  0.00    +0.000 A 
ATOM      4  C   UNL     1       0.612   9.965  20.046  0.00  0.00    +0.000 A 
ATOM      5  C   UNL     1      -0.284  10.913  20.573  0.00  0.00    +0.000 A 
ATOM      6  C   UNL     1      -0.714  10.808  21.885  0.00  0.00    +0.000 A 
ATOM      7  C   UNL     1      -0.199   9.790  22.676  0.00  0.00    +0.000 A 
ATOM      8  C   UNL     1       0.704   8.852  22.136  0.00  0.00    +0.000 A 
ATOM      9  C   UNL     1       1.094   8.881  20.797  0.00  0.00    +0.000 A 
ATOM     10  N   UNL     1       1.892   7.924  20.241  0.00  0.00    +0.000 NA
ENDROOT
BRANCH   1  14
ATOM     11  C   UNL     1       4.700   5.133  16.848  0.00  0.00    +0.000 A 
ATOM     12  C   UNL     1       3.482   4.699  17.413  0.00  0.00    +0.000 A 
ATOM     13  C   UNL     1       2.626   5.572  18.102  0.00  0.00    +0.000 A 
ATOM     14  C   UNL     1       2.946   6.914  18.249  0.00  0.00    +0.000 A 
ATOM     15  C   UNL     1       4.209   7.307  17.752  0.00  0.00    +0.000 A 
ATOM     16  C   UNL     1       5.082   6.453  17.049  0.00  0.00    +0.000 A 
BRANCH  11  18
ATOM     17  C   UNL     1       5.469   4.443  14.699  0.00  0.00    +0.000 C 
ATOM     18  O   UNL     1       5.532   4.314  16.125  0.00  0.00    +0.000 OA
ENDBRANCH  11  18
BRANCH  16  19
ATOM     19  O   UNL     1       6.190   7.140  16.627  0.00  0.00    +0.000 OA
ATOM     20  C   UNL     1       7.360   7.157  17.426  0.00  0.00    +0.000 C 
ENDBRANCH  16  19
ENDBRANCH   1  14
BRANCH   3  21
ATOM     21  C   UNL     1       1.859  11.297  18.428  0.00  0.00    +0.000 C 
ATOM     22  O   UNL     1       2.590  11.328  17.441  0.00  0.00    +0.000 OA
ATOM     23  N   UNL     1       1.690  12.385  19.270  0.00  0.00    +0.000 N 
ATOM     24  H   UNL     1       1.528  12.181  20.249  0.00  0.00    +0.000 HD
BRANCH  23  25
ATOM     25  C   UNL     1       2.269  13.645  18.971  0.00  0.00    +0.000 A 
ATOM     26  C   UNL     1       3.663  13.812  18.934  0.00  0.00    +0.000 A 
ATOM     27  C   UNL     1       4.206  15.070  18.628  0.00  0.00    +0.000 A 
ATOM     28  C   UNL     1       3.368  16.164  18.381  0.00  0.00    +0.000 A 
ATOM     29  C   UNL     1       1.981  15.995  18.421  0.00  0.00    +0.000 A 
ATOM     30  C   UNL     1       1.435  14.739  18.692  0.00  0.00    +0.000 A 
ATOM     31 CL   UNL     1      -0.284  14.584  18.776  0.00  0.00    +0.000 Cl
BRANCH  27  32
ATOM     32  N   UNL     1       5.666  15.247  18.551  0.00  0.00    +0.000 N 
ATOM     33  O   UNL     1       6.219  15.880  19.459  0.00  0.00    +0.000 OA
ATOM     34  O   UNL     1       6.255  14.734  17.591  0.00  0.00    +0.000 OA
ENDBRANCH  27  32
ENDBRANCH  23  25
ENDBRANCH   3  21
TORSDOF 6
ENDMDL
MODEL 9
REMARK VINA RESULT:      -7.7      3.890      6.374
REMARK  Name = 
REMARK  8 active torsions:
REMARK  status: ('A' for Active; 'I' for Inactive)
REMARK    1  A    between atoms: C_1  and  O_2
REMARK    2  A    between atoms: O_2  and  C_3
REMARK    3  A    between atoms: C_6  and  C_7
REMARK    4  A    between atoms: C_9  and  C_10
REMARK    5  A    between atoms: N_12  and  C_13
REMARK    6  A    between atoms: C_15  and  N_16
REMARK    7  A    between atoms: C_31  and  O_32
REMARK    8  A    between atoms: O_32  and  C_33
REMARK                            x       y       z     vdW  Elec       q    Type
REMARK                         _______ _______ _______ _____ _____    ______ ____
ROOT
ATOM      1  C   UNL     1       1.616   8.355  19.536  0.00  0.00    +0.000 A 
ATOM      2  C   UNL     1       1.128   9.341  18.693  0.00  0.00    +0.000 A 
ATOM      3  C   UNL     1       0.721  10.529  19.265  0.00  0.00    +0.000 A 
ATOM      4  C   UNL     1       0.191  10.487  20.544  0.00  0.00    +0.000 A 
ATOM      5  C   UNL     1      -0.694  11.488  20.987  0.00  0.00    +0.000 A 
ATOM      6  C   UNL     1      -1.215  11.435  22.270  0.00  0.00    +0.000 A 
ATOM      7  C   UNL     1      -0.801  10.415  23.116  0.00  0.00    +0.000 A 
ATOM      8  C   UNL     1       0.092   9.425  22.660  0.00  0.00    +0.000 A 
ATOM      9  C   UNL     1       0.571   9.402  21.351  0.00  0.00    +0.000 A 
ATOM     10  N   UNL     1       1.360   8.397  20.871  0.00  0.00    +0.000 NA
ENDROOT
BRANCH   1  14
ATOM     11  C   UNL     1       4.251   5.191  18.128  0.00  0.00    +0.000 A 
ATOM     12  C   UNL     1       4.154   6.416  17.435  0.00  0.00    +0.000 A 
ATOM     13  C   UNL     1       3.290   7.442  17.851  0.00  0.00    +0.000 A 
ATOM     14  C   UNL     1       2.496   7.291  18.978  0.00  0.00    +0.000 A 
ATOM     15  C   UNL     1       2.546   6.024  19.605  0.00  0.00    +0.000 A 
ATOM     16  C   UNL     1       3.410   4.983  19.213  0.00  0.00    +0.000 A 
BRANCH  11  18
ATOM     17  C   UNL     1       5.516   4.147  16.398  0.00  0.00    +0.000 C 
ATOM     18  O   UNL     1       5.123   4.191  17.775  0.00  0.00    +0.000 OA
ENDBRANCH  11  18
BRANCH  16  19
ATOM     19  O   UNL     1       3.285   3.911  20.057  0.00  0.00    +0.000 OA
ATOM     20  C   UNL     1       2.280   3.908  21.055  0.00  0.00    +0.000 C 
ENDBRANCH  16  19
ENDBRANCH   1  14
BRANCH   3  21
ATOM     21  C   UNL     1       1.603  11.721  18.984  0.00  0.00    +0.000 C 
ATOM     22  O   UNL     1       2.307  11.745  17.978  0.00  0.00    +0.000 OA
ATOM     23  N   UNL     1       1.532  12.780  19.875  0.00  0.00    +0.000 N 
ATOM     24  H   UNL     1       1.382  12.546  20.850  0.00  0.00    +0.000 HD
BRANCH  23  25
ATOM     25  C   UNL     1       2.187  14.009  19.612  0.00  0.00    +0.000 A 
ATOM     26  C   UNL     1       3.553  14.180  19.899  0.00  0.00    +0.000 A 
ATOM     27  C   UNL     1       4.175  15.406  19.620  0.00  0.00    +0.000 A 
ATOM     28  C   UNL     1       3.441  16.469  19.079  0.00  0.00    +0.000 A 
ATOM     29  C   UNL     1       2.083  16.298  18.798  0.00  0.00    +0.000 A 
ATOM     30  C   UNL     1       1.465  15.069  19.042  0.00  0.00    +0.000 A 
ATOM     31 CL   UNL     1      -0.226  14.914  18.722  0.00  0.00    +0.000 Cl
BRANCH  27  32
ATOM     32  N   UNL     1       5.614  15.582  19.883  0.00  0.00    +0.000 N 
ATOM     33  O   UNL     1       6.302  16.109  19.000  0.00  0.00    +0.000 OA
ATOM     34  O   UNL     1       6.044  15.209  20.982  0.00  0.00    +0.000 OA
ENDBRANCH  27  32
ENDBRANCH  23  25
ENDBRANCH   3  21
TORSDOF 6
ENDMDL
