MODEL 1
REMARK VINA RESULT:      -6.5      0.000      0.000
REMARK  Name = 
REMARK  2 active torsions:
REMARK  status: ('A' for Active; 'I' for Inactive)
REMARK    1  A    between atoms: C_1  and  N_2
REMARK    2  A    between atoms: N_2  and  C_3
REMARK                            x       y       z     vdW  Elec       q    Type
REMARK                         _______ _______ _______ _____ _____    ______ ____
ROOT
ATOM      1  C   UNL     1       5.022   4.812  17.797  0.00  0.00    +0.000 C 
ATOM      2  C   UNL     1       5.995   3.969  16.891  0.00  0.00    +0.000 C 
ATOM      3  C   UNL     1       5.595   4.017  15.420  0.00  0.00    +0.000 C 
ATOM      4  C   UNL     1       5.836   5.431  14.883  0.00  0.00    +0.000 C 
ATOM      5  C   UNL     1       5.510   6.523  15.923  0.00  0.00    +0.000 C 
ATOM      6  C   UNL     1       4.460   5.987  16.904  0.00  0.00    +0.000 C 
ATOM      7  C   UNL     1       3.792   7.062  17.752  0.00  0.00    +0.000 C 
ATOM      8  S   UNL     1       2.221   6.419  18.413  0.00  0.00    +0.000 S 
ATOM      9  C   UNL     1       2.536   4.649  18.490  0.00  0.00    +0.000 A 
ATOM     10  C   UNL     1       1.398   3.858  18.741  0.00  0.00    +0.000 A 
ATOM     11  C   UNL     1       1.491   2.474  18.860  0.00  0.00    +0.000 A 
ATOM     12  C   UNL     1       2.733   1.865  18.782  0.00  0.00    +0.000 A 
ATOM     13  C   UNL     1       3.865   2.634  18.515  0.00  0.00    +0.000 A 
ATOM     14  C   UNL     1       3.789   4.027  18.293  0.00  0.00    +0.000 A 
ENDROOT
BRANCH   1  16
ATOM     15  C   UNL     1       7.252   5.410  18.761  0.00  0.00    +0.000 C 
ATOM     16  N   UNL     1       5.809   5.376  18.925  0.00  0.00    +0.000 NA
ATOM     17  H   UNL     1       5.484   6.324  19.119  0.00  0.00    +0.000 HD
ENDBRANCH   1  16
TORSDOF 1
ENDMDL
MODEL 2
REMARK VINA RESULT:      -6.5      1.870      4.628
REMARK  Name = 
REMARK  2 active torsions:
REMARK  status: ('A' for Active; 'I' for Inactive)
REMARK    1  A    between atoms: C_1  and  N_2
REMARK    2  A    between atoms: N_2  and  C_3
REMARK                            x       y       z     vdW  Elec       q    Type
REMARK                         _______ _______ _______ _____ _____    ______ ____
ROOT
ATOM      1  C   UNL     1       2.749   3.601  18.566  0.00  0.00    +0.000 C 
ATOM      2  C   UNL     1       3.390   2.172  18.734  0.00  0.00    +0.000 C 
ATOM      3  C   UNL     1       4.392   2.126  19.884  0.00  0.00    +0.000 C 
ATOM      4  C   UNL     1       3.639   2.273  21.209  0.00  0.00    +0.000 C 
ATOM      5  C   UNL     1       2.455   3.257  21.110  0.00  0.00    +0.000 C 
ATOM      6  C   UNL     1       2.733   4.273  19.995  0.00  0.00    +0.000 C 
ATOM      7  C   UNL     1       1.829   5.498  20.026  0.00  0.00    +0.000 C 
ATOM      8  S   UNL     1       2.606   6.844  19.077  0.00  0.00    +0.000 S 
ATOM      9  C   UNL     1       3.607   5.943  17.884  0.00  0.00    +0.000 A 
ATOM     10  C   UNL     1       4.520   6.735  17.162  0.00  0.00    +0.000 A 
ATOM     11  C   UNL     1       5.340   6.183  16.182  0.00  0.00    +0.000 A 
ATOM     12  C   UNL     1       5.221   4.838  15.872  0.00  0.00    +0.000 A 
ATOM     13  C   UNL     1       4.335   4.037  16.593  0.00  0.00    +0.000 A 
ATOM     14  C   UNL     1       3.560   4.549  17.658  0.00  0.00    +0.000 A 
ENDROOT
BRANCH   1  16
ATOM     15  C   UNL     1       0.626   2.276  18.581  0.00  0.00    +0.000 C 
ATOM     16  N   UNL     1       1.354   3.429  18.081  0.00  0.00    +0.000 NA
ATOM     17  H   UNL     1       0.818   4.269  18.300  0.00  0.00    +0.000 HD
ENDBRANCH   1  16
TORSDOF 1
ENDMDL
MODEL 3
REMARK VINA RESULT:      -6.4      2.026      4.669
REMARK  Name = 
REMARK  2 active torsions:
REMARK  status: ('A' for Active; 'I' for Inactive)
REMARK    1  A    between atoms: C_1  and  N_2
REMARK    2  A    between atoms: N_2  and  C_3
REMARK                            x       y       z     vdW  Elec       q    Type
REMARK                         _______ _______ _______ _____ _____    ______ ____
ROOT
ATOM      1  C   UNL     1       4.194   4.522  17.545  0.00  0.00    +0.000 C 
ATOM      2  C   UNL     1       3.066   3.445  17.325  0.00  0.00    +0.000 C 
ATOM      3  C   UNL     1       3.505   2.055  17.774  0.00  0.00    +0.000 C 
ATOM      4  C   UNL     1       3.637   2.041  19.300  0.00  0.00    +0.000 C 
ATOM      5  C   UNL     1       4.197   3.366  19.857  0.00  0.00    +0.000 C 
ATOM      6  C   UNL     1       5.054   4.044  18.781  0.00  0.00    +0.000 C 
ATOM      7  C   UNL     1       5.946   5.162  19.306  0.00  0.00    +0.000 C 
ATOM      8  S   UNL     1       7.289   5.472  18.115  0.00  0.00    +0.000 S 
ATOM      9  C   UNL     1       6.542   4.968  16.558  0.00  0.00    +0.000 A 
ATOM     10  C   UNL     1       7.440   4.868  15.478  0.00  0.00    +0.000 A 
ATOM     11  C   UNL     1       7.003   4.520  14.202  0.00  0.00    +0.000 A 
ATOM     12  C   UNL     1       5.651   4.317  13.977  0.00  0.00    +0.000 A 
ATOM     13  C   UNL     1       4.753   4.393  15.042  0.00  0.00    +0.000 A 
ATOM     14  C   UNL     1       5.179   4.649  16.364  0.00  0.00    +0.000 A 
ENDROOT
BRANCH   1  16
ATOM     15  C   UNL     1       2.125   5.777  18.182  0.00  0.00    +0.000 C 
ATOM     16  N   UNL     1       3.542   5.819  17.864  0.00  0.00    +0.000 NA
ATOM     17  H   UNL     1       4.035   6.259  18.642  0.00  0.00    +0.000 HD
ENDBRANCH   1  16
TORSDOF 1
ENDMDL
MODEL 4
REMARK VINA RESULT:      -6.1      1.963      3.826
REMARK  Name = 
REMARK  2 active torsions:
REMARK  status: ('A' for Active; 'I' for Inactive)
REMARK    1  A    between atoms: C_1  and  N_2
REMARK    2  A    between atoms: N_2  and  C_3
REMARK                            x       y       z     vdW  Elec       q    Type
REMARK                         _______ _______ _______ _____ _____    ______ ____
ROOT
ATOM      1  C   UNL     1       4.872   5.796  17.458  0.00  0.00    +0.000 C 
ATOM      2  C   UNL     1       5.966   6.671  16.739  0.00  0.00    +0.000 C 
ATOM      3  C   UNL     1       7.012   7.198  17.717  0.00  0.00    +0.000 C 
ATOM      4  C   UNL     1       7.855   6.025  18.226  0.00  0.00    +0.000 C 
ATOM      5  C   UNL     1       7.022   4.742  18.430  0.00  0.00    +0.000 C 
ATOM      6  C   UNL     1       5.564   5.126  18.711  0.00  0.00    +0.000 C 
ATOM      7  C   UNL     1       4.718   3.994  19.277  0.00  0.00    +0.000 C 
ATOM      8  S   UNL     1       3.247   4.691  20.093  0.00  0.00    +0.000 S 
ATOM      9  C   UNL     1       3.003   6.230  19.192  0.00  0.00    +0.000 A 
ATOM     10  C   UNL     1       2.067   7.109  19.769  0.00  0.00    +0.000 A 
ATOM     11  C   UNL     1       1.750   8.325  19.168  0.00  0.00    +0.000 A 
ATOM     12  C   UNL     1       2.326   8.654  17.952  0.00  0.00    +0.000 A 
ATOM     13  C   UNL     1       3.269   7.801  17.379  0.00  0.00    +0.000 A 
ATOM     14  C   UNL     1       3.683   6.608  18.012  0.00  0.00    +0.000 A 
ENDROOT
BRANCH   1  16
ATOM     15  C   UNL     1       5.251   4.527  15.335  0.00  0.00    +0.000 C 
ATOM     16  N   UNL     1       4.427   4.739  16.512  0.00  0.00    +0.000 NA
ATOM     17  H   UNL     1       4.345   3.854  17.013  0.00  0.00    +0.000 HD
ENDBRANCH   1  16
TORSDOF 1
ENDMDL
MODEL 5
REMARK VINA RESULT:      -6.0      2.091      4.742
REMARK  Name = 
REMARK  2 active torsions:
REMARK  status: ('A' for Active; 'I' for Inactive)
REMARK    1  A    between atoms: C_1  and  N_2
REMARK    2  A    between atoms: N_2  and  C_3
REMARK                            x       y       z     vdW  Elec       q    Type
REMARK                         _______ _______ _______ _____ _____    ______ ____
ROOT
ATOM      1  C   UNL     1       4.533   4.040  18.831  0.00  0.00    +0.000 C 
ATOM      2  C   UNL     1       3.840   4.555  20.148  0.00  0.00    +0.000 C 
ATOM      3  C   UNL     1       2.801   5.635  19.863  0.00  0.00    +0.000 C 
ATOM      4  C   UNL     1       1.614   5.005  19.128  0.00  0.00    +0.000 C 
ATOM      5  C   UNL     1       2.050   3.914  18.128  0.00  0.00    +0.000 C 
ATOM      6  C   UNL     1       3.483   4.199  17.662  0.00  0.00    +0.000 C 
ATOM      7  C   UNL     1       3.904   3.419  16.423  0.00  0.00    +0.000 C 
ATOM      8  S   UNL     1       5.332   4.242  15.649  0.00  0.00    +0.000 S 
ATOM      9  C   UNL     1       6.110   5.058  17.052  0.00  0.00    +0.000 A 
ATOM     10  C   UNL     1       7.117   5.982  16.713  0.00  0.00    +0.000 A 
ATOM     11  C   UNL     1       7.830   6.667  17.693  0.00  0.00    +0.000 A 
ATOM     12  C   UNL     1       7.582   6.398  19.029  0.00  0.00    +0.000 A 
ATOM     13  C   UNL     1       6.574   5.500  19.379  0.00  0.00    +0.000 A 
ATOM     14  C   UNL     1       5.769   4.863  18.409  0.00  0.00    +0.000 A 
ENDROOT
BRANCH   1  16
ATOM     15  C   UNL     1       4.503   2.004  20.286  0.00  0.00    +0.000 C 
ATOM     16  N   UNL     1       4.862   2.601  19.011  0.00  0.00    +0.000 NA
ATOM     17  H   UNL     1       4.422   2.061  18.266  0.00  0.00    +0.000 HD
ENDBRANCH   1  16
TORSDOF 1
ENDMDL
MODEL 6
REMARK VINA RESULT:      -6.0     10.054     12.185
REMARK  Name = 
REMARK  2 active torsions:
REMARK  status: ('A' for Active; 'I' for Inactive)
REMARK    1  A    between atoms: C_1  and  N_2
REMARK    2  A    between atoms: N_2  and  C_3
REMARK                            x       y       z     vdW  Elec       q    Type
REMARK                         _______ _______ _______ _____ _____    ______ ____
ROOT
ATOM      1  C   UNL     1      -5.470  12.001  18.570  0.00  0.00    +0.000 C 
ATOM      2  C   UNL     1      -6.691  11.074  18.208  0.00  0.00    +0.000 C 
ATOM      3  C   UNL     1      -6.951  10.024  19.284  0.00  0.00    +0.000 C 
ATOM      4  C   UNL     1      -7.469  10.719  20.546  0.00  0.00    +0.000 C 
ATOM      5  C   UNL     1      -6.791  12.084  20.790  0.00  0.00    +0.000 C 
ATOM      6  C   UNL     1      -5.399  12.078  20.146  0.00  0.00    +0.000 C 
ATOM      7  C   UNL     1      -4.492  13.211  20.609  0.00  0.00    +0.000 C 
ATOM      8  S   UNL     1      -2.759  12.777  20.257  0.00  0.00    +0.000 S 
ATOM      9  C   UNL     1      -2.919  11.678  18.842  0.00  0.00    +0.000 A 
ATOM     10  C   UNL     1      -1.743  10.986  18.496  0.00  0.00    +0.000 A 
ATOM     11  C   UNL     1      -1.705  10.123  17.403  0.00  0.00    +0.000 A 
ATOM     12  C   UNL     1      -2.831   9.982  16.608  0.00  0.00    +0.000 A 
ATOM     13  C   UNL     1      -4.009  10.646  16.951  0.00  0.00    +0.000 A 
ATOM     14  C   UNL     1      -4.105  11.451  18.108  0.00  0.00    +0.000 A 
ENDROOT
BRANCH   1  16
ATOM     15  C   UNL     1      -6.769  13.454  17.001  0.00  0.00    +0.000 C 
ATOM     16  N   UNL     1      -5.737  13.355  18.018  0.00  0.00    +0.000 NA
ATOM     17  H   UNL     1      -5.974  13.988  18.782  0.00  0.00    +0.000 HD
ENDBRANCH   1  16
TORSDOF 1
ENDMDL
MODEL 7
REMARK VINA RESULT:      -5.7      2.005      3.110
REMARK  Name = 
REMARK  2 active torsions:
REMARK  status: ('A' for Active; 'I' for Inactive)
REMARK    1  A    between atoms: C_1  and  N_2
REMARK    2  A    between atoms: N_2  and  C_3
REMARK                            x       y       z     vdW  Elec       q    Type
REMARK                         _______ _______ _______ _____ _____    ______ ____
ROOT
ATOM      1  C   UNL     1       3.932   5.106  18.455  0.00  0.00    +0.000 C 
ATOM      2  C   UNL     1       5.026   5.976  19.180  0.00  0.00    +0.000 C 
ATOM      3  C   UNL     1       6.314   5.195  19.417  0.00  0.00    +0.000 C 
ATOM      4  C   UNL     1       6.991   4.927  18.069  0.00  0.00    +0.000 C 
ATOM      5  C   UNL     1       5.976   4.634  16.946  0.00  0.00    +0.000 C 
ATOM      6  C   UNL     1       4.696   4.053  17.560  0.00  0.00    +0.000 C 
ATOM      7  C   UNL     1       3.763   3.395  16.552  0.00  0.00    +0.000 C 
ATOM      8  S   UNL     1       2.629   2.270  17.426  0.00  0.00    +0.000 S 
ATOM      9  C   UNL     1       2.530   3.019  19.059  0.00  0.00    +0.000 A 
ATOM     10  C   UNL     1       1.904   2.222  20.037  0.00  0.00    +0.000 A 
ATOM     11  C   UNL     1       1.726   2.682  21.340  0.00  0.00    +0.000 A 
ATOM     12  C   UNL     1       2.125   3.967  21.669  0.00  0.00    +0.000 A 
ATOM     13  C   UNL     1       2.763   4.760  20.716  0.00  0.00    +0.000 A 
ATOM     14  C   UNL     1       3.045   4.286  19.415  0.00  0.00    +0.000 A 
ENDROOT
BRANCH   1  16
ATOM     15  C   UNL     1       3.076   7.406  17.964  0.00  0.00    +0.000 C 
ATOM     16  N   UNL     1       3.125   6.004  17.587  0.00  0.00    +0.000 NA
ATOM     17  H   UNL     1       3.467   5.939  16.628  0.00  0.00    +0.000 HD
ENDBRANCH   1  16
TORSDOF 1
ENDMDL
MODEL 8
REMARK VINA RESULT:      -5.7      2.041      4.517
REMARK  Name = 
REMARK  2 active torsions:
REMARK  status: ('A' for Active; 'I' for Inactive)
REMARK    1  A    between atoms: C_1  and  N_2
REMARK    2  A    between atoms: N_2  and  C_3
REMARK                            x       y       z     vdW  Elec       q    Type
REMARK                         _______ _______ _______ _____ _____    ______ ____
ROOT
ATOM      1  C   UNL     1       3.085   4.066  19.337  0.00  0.00    +0.000 C 
ATOM      2  C   UNL     1       1.874   3.443  20.127  0.00  0.00    +0.000 C 
ATOM      3  C   UNL     1       0.737   3.030  19.199  0.00  0.00    +0.000 C 
ATOM      4  C   UNL     1       1.190   1.834  18.355  0.00  0.00    +0.000 C 
ATOM      5  C   UNL     1       2.674   1.928  17.945  0.00  0.00    +0.000 C 
ATOM      6  C   UNL     1       3.094   3.403  17.903  0.00  0.00    +0.000 C 
ATOM      7  C   UNL     1       4.409   3.657  17.178  0.00  0.00    +0.000 C 
ATOM      8  S   UNL     1       4.498   5.410  16.691  0.00  0.00    +0.000 S 
ATOM      9  C   UNL     1       3.476   6.206  17.940  0.00  0.00    +0.000 A 
ATOM     10  C   UNL     1       3.162   7.553  17.673  0.00  0.00    +0.000 A 
ATOM     11  C   UNL     1       2.405   8.310  18.565  0.00  0.00    +0.000 A 
ATOM     12  C   UNL     1       1.997   7.744  19.762  0.00  0.00    +0.000 A 
ATOM     13  C   UNL     1       2.284   6.406  20.029  0.00  0.00    +0.000 A 
ATOM     14  C   UNL     1       2.966   5.586  19.102  0.00  0.00    +0.000 A 
ENDROOT
BRANCH   1  16
ATOM     15  C   UNL     1       4.397   2.393  20.657  0.00  0.00    +0.000 C 
ATOM     16  N   UNL     1       4.339   3.714  20.055  0.00  0.00    +0.000 NA
ATOM     17  H   UNL     1       5.129   3.814  19.418  0.00  0.00    +0.000 HD
ENDBRANCH   1  16
TORSDOF 1
ENDMDL
MODEL 9
REMARK VINA RESULT:      -5.4      9.135     11.450
REMARK  Name = 
REMARK  2 active torsions:
REMARK  status: ('A' for Active; 'I' for Inactive)
REMARK    1  A    between atoms: C_1  and  N_2
REMARK    2  A    between atoms: N_2  and  C_3
REMARK                            x       y       z     vdW  Elec       q    Type
REMARK                         _______ _______ _______ _____ _____    ______ ____
ROOT
ATOM      1  C   UNL     1      10.250  13.298  18.303  0.00  0.00    +0.000 C 
ATOM      2  C   UNL     1      11.265  12.373  19.075  0.00  0.00    +0.000 C 
ATOM      3  C   UNL     1      10.576  11.539  20.150  0.00  0.00    +0.000 C 
ATOM      4  C   UNL     1       9.677  10.498  19.475  0.00  0.00    +0.000 C 
ATOM      5  C   UNL     1       8.990  11.043  18.206  0.00  0.00    +0.000 C 
ATOM      6  C   UNL     1       8.850  12.566  18.322  0.00  0.00    +0.000 C 
ATOM      7  C   UNL     1       7.884  13.183  17.319  0.00  0.00    +0.000 C 
ATOM      8  S   UNL     1       7.366  14.825  17.913  0.00  0.00    +0.000 S 
ATOM      9  C   UNL     1       8.776  15.334  18.908  0.00  0.00    +0.000 A 
ATOM     10  C   UNL     1       8.557  16.478  19.700  0.00  0.00    +0.000 A 
ATOM     11  C   UNL     1       9.566  17.009  20.499  0.00  0.00    +0.000 A 
ATOM     12  C   UNL     1      10.826  16.434  20.476  0.00  0.00    +0.000 A 
ATOM     13  C   UNL     1      11.052  15.289  19.712  0.00  0.00    +0.000 A 
ATOM     14  C   UNL     1      10.022  14.671  18.967  0.00  0.00    +0.000 A 
ENDROOT
BRANCH   1  16
ATOM     15  C   UNL     1      12.157  13.397  16.686  0.00  0.00    +0.000 C 
ATOM     16  N   UNL     1      10.721  13.433  16.899  0.00  0.00    +0.000 NA
ATOM     17  H   UNL     1      10.290  12.704  16.330  0.00  0.00    +0.000 HD
ENDBRANCH   1  16
TORSDOF 1
ENDMDL
