MODEL 1
REMARK VINA RESULT:      -8.4      0.000      0.000
REMARK  Name = 
REMARK  8 active torsions:
REMARK  status: ('A' for Active; 'I' for Inactive)
REMARK    1  A    between atoms: C_1  and  C_2
REMARK    2  A    between atoms: C_2  and  C_3
REMARK    3  A    between atoms: C_2  and  C_4
REMARK    4  A    between atoms: C_5  and  C_6
REMARK    5  A    between atoms: CA_17  and  C_18
REMARK    6  A    between atoms: C_18  and  OXT_20
REMARK    7  A    between atoms: C_21  and  C_22
REMARK    8  A    between atoms: C_28  and  C_29
REMARK                            x       y       z     vdW  Elec       q    Type
REMARK                         _______ _______ _______ _____ _____    ______ ____
ROOT
ATOM      1  C   UNL     1       1.474   8.229  19.522  0.00  0.00    +0.000 A 
ATOM      2  C   UNL     1       1.797   7.096  20.308  0.00  0.00    +0.000 A 
ATOM      3  N   UNL     1       1.487   7.600  21.574  0.00  0.00    +0.000 N 
ATOM      4  CA  UNL     1       0.792   8.814  21.636  0.00  0.00    +0.000 A 
ATOM      5  C   UNL     1       0.761   9.363  20.345  0.00  0.00    +0.000 A 
ATOM      6  H   UNL     1       1.704   7.112  22.432  0.00  0.00    +0.000 HD
ENDROOT
BRANCH   2   7
ATOM      7  C   UNL     1       2.408   5.647  20.153  0.00  0.00    +0.000 A 
ATOM      8  C   UNL     1       1.630   4.583  20.713  0.00  0.00    +0.000 A 
ATOM      9  C   UNL     1       2.098   3.280  20.836  0.00  0.00    +0.000 A 
ATOM     10  F   UNL     1       2.595   2.944  22.048  0.00  0.00    +0.000 F 
ATOM     11  C   UNL     1       2.814   2.804  19.775  0.00  0.00    +0.000 A 
ATOM     12  C   UNL     1       3.855   3.712  19.587  0.00  0.00    +0.000 A 
ATOM     13  N   UNL     1       5.158   3.381  19.322  0.00  0.00    +0.000 N 
ATOM     14  C   UNL     1       5.743   4.455  18.737  0.00  0.00    +0.000 A 
ATOM     15  C   UNL     1       4.873   5.531  18.896  0.00  0.00    +0.000 A 
ATOM     16  C   UNL     1       3.669   5.124  19.598  0.00  0.00    +0.000 A 
ATOM     17  H   UNL     1       5.550   2.456  19.415  0.00  0.00    +0.000 HD
ENDBRANCH   2   7
BRANCH   5  18
ATOM     18  C   UNL     1       0.482  10.859  19.889  0.00  0.00    +0.000 A 
ATOM     19  C   UNL     1      -0.848  11.252  20.178  0.00  0.00    +0.000 A 
ATOM     20  C   UNL     1      -1.170  12.536  20.617  0.00  0.00    +0.000 A 
ATOM     21  C   UNL     1      -0.733  13.520  19.780  0.00  0.00    +0.000 A 
ATOM     22  C   UNL     1       0.628  13.298  19.591  0.00  0.00    +0.000 A 
ATOM     23  N   UNL     1       1.619  14.215  19.799  0.00  0.00    +0.000 N 
ATOM     24  C   UNL     1       2.597  13.958  18.872  0.00  0.00    +0.000 A 
ATOM     25  C   UNL     1       2.492  12.554  18.706  0.00  0.00    +0.000 A 
ATOM     26  C   UNL     1       1.280  12.045  19.462  0.00  0.00    +0.000 A 
ATOM     27  H   UNL     1       1.498  15.138  20.170  0.00  0.00    +0.000 HD
BRANCH  24  28
ATOM     28  C   UNL     1       3.340  15.217  18.428  0.00  0.00    +0.000 A 
ATOM     29  C   UNL     1       3.281  16.047  17.284  0.00  0.00    +0.000 A 
ATOM     30  C   UNL     1       4.174  17.080  17.532  0.00  0.00    +0.000 A 
ATOM     31  N   UNL     1       4.708  16.836  18.759  0.00  0.00    +0.000 N 
ATOM     32  N   UNL     1       4.217  15.717  19.321  0.00  0.00    +0.000 NA
ATOM     33  H   UNL     1       5.395  17.380  19.280  0.00  0.00    +0.000 HD
ENDBRANCH  24  28
ENDBRANCH   5  18
BRANCH   1  35
ATOM     34  C   UNL     1       0.571   9.076  17.425  0.00  0.00    +0.000 C 
ATOM     35  C   UNL     1       1.678   8.232  18.043  0.00  0.00    +0.000 C 
ATOM     36  C   UNL     1       3.120   8.432  17.593  0.00  0.00    +0.000 C 
ENDBRANCH   1  35
BRANCH   4  37
ATOM     37  C   UNL     1       0.342   9.171  22.971  0.00  0.00    +0.000 C 
ATOM     38  O   UNL     1       1.079   9.592  23.851  0.00  0.00    +0.000 OA
BRANCH  37  39
ATOM     39  OXT UNL     1      -1.000   8.960  23.174  0.00  0.00    +0.000 OA
ATOM     40  HXT UNL     1      -1.151   8.165  23.685  0.00  0.00    +0.000 HD
ENDBRANCH  37  39
ENDBRANCH   4  37
TORSDOF 6
ENDMDL
MODEL 2
REMARK VINA RESULT:      -8.3      3.765      9.277
REMARK  Name = 
REMARK  8 active torsions:
REMARK  status: ('A' for Active; 'I' for Inactive)
REMARK    1  A    between atoms: C_1  and  C_2
REMARK    2  A    between atoms: C_2  and  C_3
REMARK    3  A    between atoms: C_2  and  C_4
REMARK    4  A    between atoms: C_5  and  C_6
REMARK    5  A    between atoms: CA_17  and  C_18
REMARK    6  A    between atoms: C_18  and  OXT_20
REMARK    7  A    between atoms: C_21  and  C_22
REMARK    8  A    between atoms: C_28  and  C_29
REMARK                            x       y       z     vdW  Elec       q    Type
REMARK                         _______ _______ _______ _____ _____    ______ ____
ROOT
ATOM      1  C   UNL     1      -0.711  11.126  19.961  0.00  0.00    +0.000 A 
ATOM      2  C   UNL     1      -1.332  11.780  21.052  0.00  0.00    +0.000 A 
ATOM      3  N   UNL     1      -0.796  11.032  22.103  0.00  0.00    +0.000 N 
ATOM      4  CA  UNL     1       0.258  10.159  21.806  0.00  0.00    +0.000 A 
ATOM      5  C   UNL     1       0.382  10.089  20.409  0.00  0.00    +0.000 A 
ATOM      6  H   UNL     1      -1.103  11.125  23.061  0.00  0.00    +0.000 HD
ENDROOT
BRANCH   2   7
ATOM      7  C   UNL     1      -2.389  12.920  21.341  0.00  0.00    +0.000 A 
ATOM      8  C   UNL     1      -1.946  13.971  22.206  0.00  0.00    +0.000 A 
ATOM      9  C   UNL     1      -2.794  14.947  22.716  0.00  0.00    +0.000 A 
ATOM     10  F   UNL     1      -3.257  14.730  23.968  0.00  0.00    +0.000 F 
ATOM     11  C   UNL     1      -3.722  15.441  21.844  0.00  0.00    +0.000 A 
ATOM     12  C   UNL     1      -4.428  14.334  21.379  0.00  0.00    +0.000 A 
ATOM     13  N   UNL     1      -5.787  14.271  21.216  0.00  0.00    +0.000 N 
ATOM     14  C   UNL     1      -6.048  13.281  20.326  0.00  0.00    +0.000 A 
ATOM     15  C   UNL     1      -4.867  12.563  20.157  0.00  0.00    +0.000 A 
ATOM     16  C   UNL     1      -3.798  13.127  20.960  0.00  0.00    +0.000 A 
ATOM     17  H   UNL     1      -6.446  14.942  21.582  0.00  0.00    +0.000 HD
ENDBRANCH   2   7
BRANCH   5  18
ATOM     18  C   UNL     1       1.102   8.993  19.513  0.00  0.00    +0.000 A 
ATOM     19  C   UNL     1       1.472   9.515  18.250  0.00  0.00    +0.000 A 
ATOM     20  C   UNL     1       2.664   9.163  17.615  0.00  0.00    +0.000 A 
ATOM     21  C   UNL     1       2.812   7.818  17.448  0.00  0.00    +0.000 A 
ATOM     22  C   UNL     1       2.635   7.246  18.705  0.00  0.00    +0.000 A 
ATOM     23  N   UNL     1       3.513   6.403  19.325  0.00  0.00    +0.000 N 
ATOM     24  C   UNL     1       2.763   5.522  20.062  0.00  0.00    +0.000 A 
ATOM     25  C   UNL     1       1.642   6.311  20.423  0.00  0.00    +0.000 A 
ATOM     26  C   UNL     1       1.710   7.644  19.703  0.00  0.00    +0.000 A 
ATOM     27  H   UNL     1       4.418   6.140  18.982  0.00  0.00    +0.000 HD
BRANCH  24  28
ATOM     28  C   UNL     1       3.407   4.141  20.173  0.00  0.00    +0.000 A 
ATOM     29  C   UNL     1       3.046   2.931  20.811  0.00  0.00    +0.000 A 
ATOM     30  C   UNL     1       4.033   2.021  20.462  0.00  0.00    +0.000 A 
ATOM     31  N   UNL     1       4.908   2.694  19.666  0.00  0.00    +0.000 N 
ATOM     32  N   UNL     1       4.548   3.976  19.475  0.00  0.00    +0.000 NA
ATOM     33  H   UNL     1       5.755   2.354  19.212  0.00  0.00    +0.000 HD
ENDBRANCH  24  28
ENDBRANCH   5  18
BRANCH   1  35
ATOM     34  C   UNL     1      -2.332  10.906  18.156  0.00  0.00    +0.000 C 
ATOM     35  C   UNL     1      -0.997  11.525  18.550  0.00  0.00    +0.000 C 
ATOM     36  C   UNL     1      -0.718  12.987  18.227  0.00  0.00    +0.000 C 
ENDBRANCH   1  35
BRANCH   4  37
ATOM     37  C   UNL     1       0.884   9.567  22.975  0.00  0.00    +0.000 C 
ATOM     38  O   UNL     1       0.335   9.459  24.063  0.00  0.00    +0.000 OA
BRANCH  37  39
ATOM     39  OXT UNL     1       2.178   9.159  22.761  0.00  0.00    +0.000 OA
ATOM     40  HXT UNL     1       2.615   8.951  23.587  0.00  0.00    +0.000 HD
ENDBRANCH  37  39
ENDBRANCH   4  37
TORSDOF 6
ENDMDL
MODEL 3
REMARK VINA RESULT:      -8.2      3.727      9.224
REMARK  Name = 
REMARK  8 active torsions:
REMARK  status: ('A' for Active; 'I' for Inactive)
REMARK    1  A    between atoms: C_1  and  C_2
REMARK    2  A    between atoms: C_2  and  C_3
REMARK    3  A    between atoms: C_2  and  C_4
REMARK    4  A    between atoms: C_5  and  C_6
REMARK    5  A    between atoms: CA_17  and  C_18
REMARK    6  A    between atoms: C_18  and  OXT_20
REMARK    7  A    between atoms: C_21  and  C_22
REMARK    8  A    between atoms: C_28  and  C_29
REMARK                            x       y       z     vdW  Elec       q    Type
REMARK                         _______ _______ _______ _____ _____    ______ ____
ROOT
ATOM      1  C   UNL     1      -0.807  11.240  20.136  0.00  0.00    +0.000 A 
ATOM      2  C   UNL     1      -1.401  11.854  21.264  0.00  0.00    +0.000 A 
ATOM      3  N   UNL     1      -0.834  11.074  22.275  0.00  0.00    +0.000 N 
ATOM      4  CA  UNL     1       0.214  10.216  21.921  0.00  0.00    +0.000 A 
ATOM      5  C   UNL     1       0.302  10.193  20.520  0.00  0.00    +0.000 A 
ATOM      6  H   UNL     1      -1.117  11.133  23.243  0.00  0.00    +0.000 HD
ENDROOT
BRANCH   2   7
ATOM      7  C   UNL     1      -2.454  12.979  21.619  0.00  0.00    +0.000 A 
ATOM      8  C   UNL     1      -3.583  12.550  22.387  0.00  0.00    +0.000 A 
ATOM      9  C   UNL     1      -4.692  13.353  22.626  0.00  0.00    +0.000 A 
ATOM     10  F   UNL     1      -5.750  13.159  21.806  0.00  0.00    +0.000 F 
ATOM     11  C   UNL     1      -4.426  14.662  22.909  0.00  0.00    +0.000 A 
ATOM     12  C   UNL     1      -3.668  15.132  21.838  0.00  0.00    +0.000 A 
ATOM     13  N   UNL     1      -3.829  16.346  21.224  0.00  0.00    +0.000 N 
ATOM     14  C   UNL     1      -2.664  16.648  20.599  0.00  0.00    +0.000 A 
ATOM     15  C   UNL     1      -1.887  15.492  20.605  0.00  0.00    +0.000 A 
ATOM     16  C   UNL     1      -2.576  14.407  21.279  0.00  0.00    +0.000 A 
ATOM     17  H   UNL     1      -4.623  16.957  21.349  0.00  0.00    +0.000 HD
ENDBRANCH   2   7
BRANCH   5  18
ATOM     18  C   UNL     1       1.001   9.131  19.568  0.00  0.00    +0.000 A 
ATOM     19  C   UNL     1       1.312   9.689  18.304  0.00  0.00    +0.000 A 
ATOM     20  C   UNL     1       2.483   9.373  17.614  0.00  0.00    +0.000 A 
ATOM     21  C   UNL     1       2.645   8.035  17.408  0.00  0.00    +0.000 A 
ATOM     22  C   UNL     1       2.528   7.430  18.657  0.00  0.00    +0.000 A 
ATOM     23  N   UNL     1       3.444   6.587  19.219  0.00  0.00    +0.000 N 
ATOM     24  C   UNL     1       2.738   5.676  19.964  0.00  0.00    +0.000 A 
ATOM     25  C   UNL     1       1.620   6.437  20.389  0.00  0.00    +0.000 A 
ATOM     26  C   UNL     1       1.638   7.788  19.701  0.00  0.00    +0.000 A 
ATOM     27  H   UNL     1       4.338   6.347  18.834  0.00  0.00    +0.000 HD
BRANCH  24  28
ATOM     28  C   UNL     1       3.407   4.304  20.015  0.00  0.00    +0.000 A 
ATOM     29  C   UNL     1       3.061   3.056  20.584  0.00  0.00    +0.000 A 
ATOM     30  C   UNL     1       4.071   2.184  20.205  0.00  0.00    +0.000 A 
ATOM     31  N   UNL     1       4.944   2.914  19.459  0.00  0.00    +0.000 N 
ATOM     32  N   UNL     1       4.562   4.196  19.328  0.00  0.00    +0.000 NA
ATOM     33  H   UNL     1       5.804   2.613  19.002  0.00  0.00    +0.000 HD
ENDBRANCH  24  28
ENDBRANCH   5  18
BRANCH   1  35
ATOM     34  C   UNL     1      -2.607  11.398  18.502  0.00  0.00    +0.000 C 
ATOM     35  C   UNL     1      -1.131  11.685  18.747  0.00  0.00    +0.000 C 
ATOM     36  C   UNL     1      -0.550  13.036  18.353  0.00  0.00    +0.000 C 
ENDBRANCH   1  35
BRANCH   4  37
ATOM     37  C   UNL     1       0.873   9.587  23.052  0.00  0.00    +0.000 C 
ATOM     38  O   UNL     1       0.336   9.392  24.134  0.00  0.00    +0.000 OA
BRANCH  37  39
ATOM     39  OXT UNL     1       2.183   9.254  22.812  0.00  0.00    +0.000 OA
ATOM     40  HXT UNL     1       2.285   8.860  21.945  0.00  0.00    +0.000 HD
ENDBRANCH  37  39
ENDBRANCH   4  37
TORSDOF 6
ENDMDL
MODEL 4
REMARK VINA RESULT:      -8.2      2.749      4.509
REMARK  Name = 
REMARK  8 active torsions:
REMARK  status: ('A' for Active; 'I' for Inactive)
REMARK    1  A    between atoms: C_1  and  C_2
REMARK    2  A    between atoms: C_2  and  C_3
REMARK    3  A    between atoms: C_2  and  C_4
REMARK    4  A    between atoms: C_5  and  C_6
REMARK    5  A    between atoms: CA_17  and  C_18
REMARK    6  A    between atoms: C_18  and  OXT_20
REMARK    7  A    between atoms: C_21  and  C_22
REMARK    8  A    between atoms: C_28  and  C_29
REMARK                            x       y       z     vdW  Elec       q    Type
REMARK                         _______ _______ _______ _____ _____    ______ ____
ROOT
ATOM      1  C   UNL     1       1.280   8.951  19.657  0.00  0.00    +0.000 A 
ATOM      2  C   UNL     1       1.784   7.737  20.183  0.00  0.00    +0.000 A 
ATOM      3  N   UNL     1       1.709   8.030  21.547  0.00  0.00    +0.000 N 
ATOM      4  CA  UNL     1       1.001   9.177  21.926  0.00  0.00    +0.000 A 
ATOM      5  C   UNL     1       0.703   9.907  20.764  0.00  0.00    +0.000 A 
ATOM      6  H   UNL     1       2.102   7.435  22.263  0.00  0.00    +0.000 HD
ENDROOT
BRANCH   2   7
ATOM      7  C   UNL     1       2.399   6.366  19.693  0.00  0.00    +0.000 A 
ATOM      8  C   UNL     1       3.578   6.468  18.889  0.00  0.00    +0.000 A 
ATOM      9  C   UNL     1       4.141   5.388  18.219  0.00  0.00    +0.000 A 
ATOM     10  F   UNL     1       3.811   5.265  16.914  0.00  0.00    +0.000 F 
ATOM     11  C   UNL     1       4.169   4.211  18.912  0.00  0.00    +0.000 A 
ATOM     12  C   UNL     1       2.849   3.960  19.281  0.00  0.00    +0.000 A 
ATOM     13  N   UNL     1       2.225   2.743  19.218  0.00  0.00    +0.000 N 
ATOM     14  C   UNL     1       1.176   2.773  20.077  0.00  0.00    +0.000 A 
ATOM     15  C   UNL     1       1.000   4.101  20.458  0.00  0.00    +0.000 A 
ATOM     16  C   UNL     1       1.991   4.956  19.830  0.00  0.00    +0.000 A 
ATOM     17  H   UNL     1       2.582   1.934  18.730  0.00  0.00    +0.000 HD
ENDBRANCH   2   7
BRANCH   5  18
ATOM     18  C   UNL     1       0.294  11.434  20.606  0.00  0.00    +0.000 A 
ATOM     19  C   UNL     1       1.315  12.184  19.974  0.00  0.00    +0.000 A 
ATOM     20  C   UNL     1       1.039  13.203  19.062  0.00  0.00    +0.000 A 
ATOM     21  C   UNL     1       0.212  14.165  19.559  0.00  0.00    +0.000 A 
ATOM     22  C   UNL     1      -0.913  13.503  20.044  0.00  0.00    +0.000 A 
ATOM     23  N   UNL     1      -2.206  13.776  19.698  0.00  0.00    +0.000 N 
ATOM     24  C   UNL     1      -2.973  13.531  20.809  0.00  0.00    +0.000 A 
ATOM     25  C   UNL     1      -2.261  12.480  21.440  0.00  0.00    +0.000 A 
ATOM     26  C   UNL     1      -0.947  12.255  20.717  0.00  0.00    +0.000 A 
ATOM     27  H   UNL     1      -2.504  14.442  19.010  0.00  0.00    +0.000 HD
BRANCH  24  28
ATOM     28  C   UNL     1      -4.196  14.442  20.899  0.00  0.00    +0.000 A 
ATOM     29  C   UNL     1      -4.389  15.843  20.866  0.00  0.00    +0.000 A 
ATOM     30  C   UNL     1      -5.762  16.027  20.921  0.00  0.00    +0.000 A 
ATOM     31  N   UNL     1      -6.312  14.784  20.985  0.00  0.00    +0.000 N 
ATOM     32  N   UNL     1      -5.384  13.811  20.970  0.00  0.00    +0.000 NA
ATOM     33  H   UNL     1      -7.295  14.519  21.029  0.00  0.00    +0.000 HD
ENDBRANCH  24  28
ENDBRANCH   5  18
BRANCH   1  35
ATOM     34  C   UNL     1      -0.203   9.710  17.879  0.00  0.00    +0.000 C 
ATOM     35  C   UNL     1       1.193   9.183  18.184  0.00  0.00    +0.000 C 
ATOM     36  C   UNL     1       2.408   9.866  17.569  0.00  0.00    +0.000 C 
ENDBRANCH   1  35
BRANCH   4  37
ATOM     37  C   UNL     1       0.805   9.306  23.359  0.00  0.00    +0.000 C 
ATOM     38  O   UNL     1       1.716   9.305  24.176  0.00  0.00    +0.000 OA
BRANCH  37  39
ATOM     39  OXT UNL     1      -0.514   9.400  23.730  0.00  0.00    +0.000 OA
ATOM     40  HXT UNL     1      -0.639  10.080  24.392  0.00  0.00    +0.000 HD
ENDBRANCH  37  39
ENDBRANCH   4  37
TORSDOF 6
ENDMDL
MODEL 5
REMARK VINA RESULT:      -8.1      1.399      1.472
REMARK  Name = 
REMARK  8 active torsions:
REMARK  status: ('A' for Active; 'I' for Inactive)
REMARK    1  A    between atoms: C_1  and  C_2
REMARK    2  A    between atoms: C_2  and  C_3
REMARK    3  A    between atoms: C_2  and  C_4
REMARK    4  A    between atoms: C_5  and  C_6
REMARK    5  A    between atoms: CA_17  and  C_18
REMARK    6  A    between atoms: C_18  and  OXT_20
REMARK    7  A    between atoms: C_21  and  C_22
REMARK    8  A    between atoms: C_28  and  C_29
REMARK                            x       y       z     vdW  Elec       q    Type
REMARK                         _______ _______ _______ _____ _____    ______ ____
ROOT
ATOM      1  C   UNL     1       1.243   8.985  19.692  0.00  0.00    +0.000 A 
ATOM      2  C   UNL     1       1.546   7.753  20.320  0.00  0.00    +0.000 A 
ATOM      3  N   UNL     1       1.284   8.103  21.648  0.00  0.00    +0.000 N 
ATOM      4  CA  UNL     1       0.632   9.320  21.881  0.00  0.00    +0.000 A 
ATOM      5  C   UNL     1       0.588  10.028  20.669  0.00  0.00    +0.000 A 
ATOM      6  H   UNL     1       1.505   7.504  22.431  0.00  0.00    +0.000 HD
ENDROOT
BRANCH   2   7
ATOM      7  C   UNL     1       2.104   6.317  19.968  0.00  0.00    +0.000 A 
ATOM      8  C   UNL     1       1.482   5.226  20.653  0.00  0.00    +0.000 A 
ATOM      9  C   UNL     1       1.967   3.923  20.611  0.00  0.00    +0.000 A 
ATOM     10  F   UNL     1       2.737   3.546  21.656  0.00  0.00    +0.000 F 
ATOM     11  C   UNL     1       2.412   3.496  19.393  0.00  0.00    +0.000 A 
ATOM     12  C   UNL     1       3.378   4.420  19.000  0.00  0.00    +0.000 A 
ATOM     13  N   UNL     1       4.580   4.113  18.421  0.00  0.00    +0.000 N 
ATOM     14  C   UNL     1       5.009   5.215  17.756  0.00  0.00    +0.000 A 
ATOM     15  C   UNL     1       4.201   6.275  18.159  0.00  0.00    +0.000 A 
ATOM     16  C   UNL     1       3.198   5.829  19.109  0.00  0.00    +0.000 A 
ATOM     17  H   UNL     1       4.984   3.189  18.381  0.00  0.00    +0.000 HD
ENDBRANCH   2   7
BRANCH   5  18
ATOM     18  C   UNL     1       0.348  11.577  20.413  0.00  0.00    +0.000 A 
ATOM     19  C   UNL     1      -1.032  11.883  20.328  0.00  0.00    +0.000 A 
ATOM     20  C   UNL     1      -1.572  13.056  20.855  0.00  0.00    +0.000 A 
ATOM     21  C   UNL     1      -0.976  14.187  20.382  0.00  0.00    +0.000 A 
ATOM     22  C   UNL     1       0.390  14.031  20.600  0.00  0.00    +0.000 A 
ATOM     23  N   UNL     1       1.194  14.912  21.266  0.00  0.00    +0.000 N 
ATOM     24  C   UNL     1       2.427  14.852  20.668  0.00  0.00    +0.000 A 
ATOM     25  C   UNL     1       2.488  13.502  20.239  0.00  0.00    +0.000 A 
ATOM     26  C   UNL     1       1.145  12.837  20.471  0.00  0.00    +0.000 A 
ATOM     27  H   UNL     1       0.893  15.747  21.732  0.00  0.00    +0.000 HD
BRANCH  24  28
ATOM     28  C   UNL     1       3.171  16.185  20.707  0.00  0.00    +0.000 A 
ATOM     29  C   UNL     1       2.929  17.434  21.326  0.00  0.00    +0.000 A 
ATOM     30  C   UNL     1       4.036  18.215  21.027  0.00  0.00    +0.000 A 
ATOM     31  N   UNL     1       4.859  17.437  20.272  0.00  0.00    +0.000 N 
ATOM     32  N   UNL     1       4.358  16.205  20.068  0.00  0.00    +0.000 NA
ATOM     33  H   UNL     1       5.769  17.664  19.873  0.00  0.00    +0.000 HD
ENDBRANCH  24  28
ENDBRANCH   5  18
BRANCH   1  35
ATOM     34  C   UNL     1       0.023   9.339  17.613  0.00  0.00    +0.000 C 
ATOM     35  C   UNL     1       1.410   9.169  18.219  0.00  0.00    +0.000 C 
ATOM     36  C   UNL     1       2.532  10.116  17.813  0.00  0.00    +0.000 C 
ENDBRANCH   1  35
BRANCH   4  37
ATOM     37  C   UNL     1       0.227   9.519  23.262  0.00  0.00    +0.000 C 
ATOM     38  O   UNL     1       0.991   9.454  24.214  0.00  0.00    +0.000 OA
BRANCH  37  39
ATOM     39  OXT UNL     1      -1.117   9.759  23.412  0.00  0.00    +0.000 OA
ATOM     40  HXT UNL     1      -1.594   9.568  22.604  0.00  0.00    +0.000 HD
ENDBRANCH  37  39
ENDBRANCH   4  37
TORSDOF 6
ENDMDL
MODEL 6
REMARK VINA RESULT:      -8.1      1.939      2.466
REMARK  Name = 
REMARK  8 active torsions:
REMARK  status: ('A' for Active; 'I' for Inactive)
REMARK    1  A    between atoms: C_1  and  C_2
REMARK    2  A    between atoms: C_2  and  C_3
REMARK    3  A    between atoms: C_2  and  C_4
REMARK    4  A    between atoms: C_5  and  C_6
REMARK    5  A    between atoms: CA_17  and  C_18
REMARK    6  A    between atoms: C_18  and  OXT_20
REMARK    7  A    between atoms: C_21  and  C_22
REMARK    8  A    between atoms: C_28  and  C_29
REMARK                            x       y       z     vdW  Elec       q    Type
REMARK                         _______ _______ _______ _____ _____    ______ ____
ROOT
ATOM      1  C   UNL     1       1.281   9.116  19.604  0.00  0.00    +0.000 A 
ATOM      2  C   UNL     1       1.690   7.879  20.157  0.00  0.00    +0.000 A 
ATOM      3  N   UNL     1       1.435   8.135  21.507  0.00  0.00    +0.000 N 
ATOM      4  CA  UNL     1       0.700   9.285  21.821  0.00  0.00    +0.000 A 
ATOM      5  C   UNL     1       0.575  10.052  20.652  0.00  0.00    +0.000 A 
ATOM      6  H   UNL     1       1.719   7.513  22.251  0.00  0.00    +0.000 HD
ENDROOT
BRANCH   2   7
ATOM      7  C   UNL     1       2.345   6.510  19.714  0.00  0.00    +0.000 A 
ATOM      8  C   UNL     1       3.508   6.619  18.888  0.00  0.00    +0.000 A 
ATOM      9  C   UNL     1       4.098   5.531  18.254  0.00  0.00    +0.000 A 
ATOM     10  F   UNL     1       3.754   5.344  16.960  0.00  0.00    +0.000 F 
ATOM     11  C   UNL     1       4.175   4.385  18.993  0.00  0.00    +0.000 A 
ATOM     12  C   UNL     1       2.869   4.106  19.392  0.00  0.00    +0.000 A 
ATOM     13  N   UNL     1       2.286   2.867  19.387  0.00  0.00    +0.000 N 
ATOM     14  C   UNL     1       1.249   2.898  20.260  0.00  0.00    +0.000 A 
ATOM     15  C   UNL     1       1.034   4.234  20.590  0.00  0.00    +0.000 A 
ATOM     16  C   UNL     1       1.986   5.094  19.913  0.00  0.00    +0.000 A 
ATOM     17  H   UNL     1       2.663   2.051  18.927  0.00  0.00    +0.000 HD
ENDBRANCH   2   7
BRANCH   5  18
ATOM     18  C   UNL     1       0.214  11.591  20.487  0.00  0.00    +0.000 A 
ATOM     19  C   UNL     1      -1.186  11.792  20.411  0.00  0.00    +0.000 A 
ATOM     20  C   UNL     1      -1.818  12.885  21.004  0.00  0.00    +0.000 A 
ATOM     21  C   UNL     1      -1.312  14.086  20.603  0.00  0.00    +0.000 A 
ATOM     22  C   UNL     1       0.063  14.024  20.821  0.00  0.00    +0.000 A 
ATOM     23  N   UNL     1       0.793  14.924  21.544  0.00  0.00    +0.000 N 
ATOM     24  C   UNL     1       2.028  14.997  20.952  0.00  0.00    +0.000 A 
ATOM     25  C   UNL     1       2.196  13.685  20.443  0.00  0.00    +0.000 A 
ATOM     26  C   UNL     1       0.909  12.903  20.626  0.00  0.00    +0.000 A 
ATOM     27  H   UNL     1       0.427  15.703  22.057  0.00  0.00    +0.000 HD
BRANCH  24  28
ATOM     28  C   UNL     1       2.665  16.380  21.075  0.00  0.00    +0.000 A 
ATOM     29  C   UNL     1       2.429  17.506  21.898  0.00  0.00    +0.000 A 
ATOM     30  C   UNL     1       3.412  18.424  21.558  0.00  0.00    +0.000 A 
ATOM     31  N   UNL     1       4.163  17.836  20.587  0.00  0.00    +0.000 N 
ATOM     32  N   UNL     1       3.732  16.599  20.282  0.00  0.00    +0.000 NA
ATOM     33  H   UNL     1       4.979  18.202  20.098  0.00  0.00    +0.000 HD
ENDBRANCH  24  28
ENDBRANCH   5  18
BRANCH   1  35
ATOM     34  C   UNL     1      -0.009   9.418  17.560  0.00  0.00    +0.000 C 
ATOM     35  C   UNL     1       1.398   9.391  18.141  0.00  0.00    +0.000 C 
ATOM     36  C   UNL     1       2.388  10.489  17.771  0.00  0.00    +0.000 C 
ENDBRANCH   1  35
BRANCH   4  37
ATOM     37  C   UNL     1       0.315   9.378  23.218  0.00  0.00    +0.000 C 
ATOM     38  O   UNL     1       1.112   9.453  24.143  0.00  0.00    +0.000 OA
BRANCH  37  39
ATOM     39  OXT UNL     1      -1.043   9.341  23.419  0.00  0.00    +0.000 OA
ATOM     40  HXT UNL     1      -1.252   9.099  24.321  0.00  0.00    +0.000 HD
ENDBRANCH  37  39
ENDBRANCH   4  37
TORSDOF 6
ENDMDL
MODEL 7
REMARK VINA RESULT:      -8.1      1.613      2.146
REMARK  Name = 
REMARK  8 active torsions:
REMARK  status: ('A' for Active; 'I' for Inactive)
REMARK    1  A    between atoms: C_1  and  C_2
REMARK    2  A    between atoms: C_2  and  C_3
REMARK    3  A    between atoms: C_2  and  C_4
REMARK    4  A    between atoms: C_5  and  C_6
REMARK    5  A    between atoms: CA_17  and  C_18
REMARK    6  A    between atoms: C_18  and  OXT_20
REMARK    7  A    between atoms: C_21  and  C_22
REMARK    8  A    between atoms: C_28  and  C_29
REMARK                            x       y       z     vdW  Elec       q    Type
REMARK                         _______ _______ _______ _____ _____    ______ ____
ROOT
ATOM      1  C   UNL     1       1.211   8.899  19.558  0.00  0.00    +0.000 A 
ATOM      2  C   UNL     1       1.775   7.755  20.171  0.00  0.00    +0.000 A 
ATOM      3  N   UNL     1       1.562   8.085  21.512  0.00  0.00    +0.000 N 
ATOM      4  CA  UNL     1       0.727   9.175  21.787  0.00  0.00    +0.000 A 
ATOM      5  C   UNL     1       0.463   9.835  20.576  0.00  0.00    +0.000 A 
ATOM      6  H   UNL     1       1.946   7.553  22.281  0.00  0.00    +0.000 HD
ENDROOT
BRANCH   2   7
ATOM      7  C   UNL     1       2.548   6.430  19.788  0.00  0.00    +0.000 A 
ATOM      8  C   UNL     1       3.490   6.550  18.717  0.00  0.00    +0.000 A 
ATOM      9  C   UNL     1       4.115   5.458  18.126  0.00  0.00    +0.000 A 
ATOM     10  F   UNL     1       3.558   5.009  16.979  0.00  0.00    +0.000 F 
ATOM     11  C   UNL     1       4.528   4.477  18.981  0.00  0.00    +0.000 A 
ATOM     12  C   UNL     1       3.392   4.098  19.695  0.00  0.00    +0.000 A 
ATOM     13  N   UNL     1       3.035   2.810  19.992  0.00  0.00    +0.000 N 
ATOM     14  C   UNL     1       2.201   2.851  21.061  0.00  0.00    +0.000 A 
ATOM     15  C   UNL     1       1.835   4.183  21.242  0.00  0.00    +0.000 A 
ATOM     16  C   UNL     1       2.477   5.035  20.257  0.00  0.00    +0.000 A 
ATOM     17  H   UNL     1       3.443   1.985  19.578  0.00  0.00    +0.000 HD
ENDBRANCH   2   7
BRANCH   5  18
ATOM     18  C   UNL     1      -0.066  11.312  20.325  0.00  0.00    +0.000 A 
ATOM     19  C   UNL     1      -1.229  11.585  21.085  0.00  0.00    +0.000 A 
ATOM     20  C   UNL     1      -1.464  12.827  21.673  0.00  0.00    +0.000 A 
ATOM     21  C   UNL     1      -1.425  13.862  20.787  0.00  0.00    +0.000 A 
ATOM     22  C   UNL     1      -0.208  13.760  20.118  0.00  0.00    +0.000 A 
ATOM     23  N   UNL     1       0.723  14.752  20.008  0.00  0.00    +0.000 N 
ATOM     24  C   UNL     1       1.322  14.599  18.784  0.00  0.00    +0.000 A 
ATOM     25  C   UNL     1       1.265  13.196  18.594  0.00  0.00    +0.000 A 
ATOM     26  C   UNL     1       0.442  12.570  19.703  0.00  0.00    +0.000 A 
ATOM     27  H   UNL     1       0.678  15.654  20.444  0.00  0.00    +0.000 HD
BRANCH  24  28
ATOM     28  C   UNL     1       1.768  15.925  18.170  0.00  0.00    +0.000 A 
ATOM     29  C   UNL     1       2.895  16.339  17.422  0.00  0.00    +0.000 A 
ATOM     30  C   UNL     1       2.657  17.667  17.101  0.00  0.00    +0.000 A 
ATOM     31  N   UNL     1       1.452  17.982  17.647  0.00  0.00    +0.000 N 
ATOM     32  N   UNL     1       0.894  16.944  18.296  0.00  0.00    +0.000 NA
ATOM     33  H   UNL     1       0.944  18.865  17.615  0.00  0.00    +0.000 HD
ENDBRANCH  24  28
ENDBRANCH   5  18
BRANCH   1  35
ATOM     34  C   UNL     1      -0.178   9.471  17.641  0.00  0.00    +0.000 C 
ATOM     35  C   UNL     1       1.226   9.074  18.075  0.00  0.00    +0.000 C 
ATOM     36  C   UNL     1       2.428   9.834  17.530  0.00  0.00    +0.000 C 
ENDBRANCH   1  35
BRANCH   4  37
ATOM     37  C   UNL     1       0.403   9.333  23.194  0.00  0.00    +0.000 C 
ATOM     38  O   UNL     1       1.238   9.493  24.073  0.00  0.00    +0.000 OA
BRANCH  37  39
ATOM     39  OXT UNL     1      -0.942   9.254  23.463  0.00  0.00    +0.000 OA
ATOM     40  HXT UNL     1      -1.184   8.375  23.754  0.00  0.00    +0.000 HD
ENDBRANCH  37  39
ENDBRANCH   4  37
TORSDOF 6
ENDMDL
MODEL 8
REMARK VINA RESULT:      -8.0      2.568      4.123
REMARK  Name = 
REMARK  8 active torsions:
REMARK  status: ('A' for Active; 'I' for Inactive)
REMARK    1  A    between atoms: C_1  and  C_2
REMARK    2  A    between atoms: C_2  and  C_3
REMARK    3  A    between atoms: C_2  and  C_4
REMARK    4  A    between atoms: C_5  and  C_6
REMARK    5  A    between atoms: CA_17  and  C_18
REMARK    6  A    between atoms: C_18  and  OXT_20
REMARK    7  A    between atoms: C_21  and  C_22
REMARK    8  A    between atoms: C_28  and  C_29
REMARK                            x       y       z     vdW  Elec       q    Type
REMARK                         _______ _______ _______ _____ _____    ______ ____
ROOT
ATOM      1  C   UNL     1       1.231   9.076  19.684  0.00  0.00    +0.000 A 
ATOM      2  C   UNL     1       1.707   7.834  20.168  0.00  0.00    +0.000 A 
ATOM      3  N   UNL     1       1.686   8.099  21.540  0.00  0.00    +0.000 N 
ATOM      4  CA  UNL     1       1.031   9.262  21.965  0.00  0.00    +0.000 A 
ATOM      5  C   UNL     1       0.724  10.027  20.829  0.00  0.00    +0.000 A 
ATOM      6  H   UNL     1       2.080   7.476  22.230  0.00  0.00    +0.000 HD
ENDROOT
BRANCH   2   7
ATOM      7  C   UNL     1       2.258   6.453  19.630  0.00  0.00    +0.000 A 
ATOM      8  C   UNL     1       1.738   5.286  20.276  0.00  0.00    +0.000 A 
ATOM      9  C   UNL     1       2.245   4.009  20.065  0.00  0.00    +0.000 A 
ATOM     10  F   UNL     1       3.132   3.567  20.985  0.00  0.00    +0.000 F 
ATOM     11  C   UNL     1       2.567   3.705  18.773  0.00  0.00    +0.000 A 
ATOM     12  C   UNL     1       3.464   4.691  18.366  0.00  0.00    +0.000 A 
ATOM     13  N   UNL     1       4.604   4.476  17.639  0.00  0.00    +0.000 N 
ATOM     14  C   UNL     1       4.934   5.644  17.036  0.00  0.00    +0.000 A 
ATOM     15  C   UNL     1       4.148   6.638  17.616  0.00  0.00    +0.000 A 
ATOM     16  C   UNL     1       3.264   6.078  18.621  0.00  0.00    +0.000 A 
ATOM     17  H   UNL     1       5.023   3.572  17.473  0.00  0.00    +0.000 HD
ENDBRANCH   2   7
BRANCH   5  18
ATOM     18  C   UNL     1       0.365  11.571  20.717  0.00  0.00    +0.000 A 
ATOM     19  C   UNL     1       1.445  12.320  20.190  0.00  0.00    +0.000 A 
ATOM     20  C   UNL     1       1.257  13.386  19.310  0.00  0.00    +0.000 A 
ATOM     21  C   UNL     1       0.422  14.348  19.796  0.00  0.00    +0.000 A 
ATOM     22  C   UNL     1      -0.749  13.697  20.174  0.00  0.00    +0.000 A 
ATOM     23  N   UNL     1      -2.008  14.022  19.756  0.00  0.00    +0.000 N 
ATOM     24  C   UNL     1      -2.854  13.748  20.801  0.00  0.00    +0.000 A 
ATOM     25  C   UNL     1      -2.213  12.650  21.427  0.00  0.00    +0.000 A 
ATOM     26  C   UNL     1      -0.859  12.421  20.784  0.00  0.00    +0.000 A 
ATOM     27  H   UNL     1      -2.242  14.726  19.082  0.00  0.00    +0.000 HD
BRANCH  24  28
ATOM     28  C   UNL     1      -4.057  14.688  20.853  0.00  0.00    +0.000 A 
ATOM     29  C   UNL     1      -4.216  16.078  21.062  0.00  0.00    +0.000 A 
ATOM     30  C   UNL     1      -5.574  16.321  20.911  0.00  0.00    +0.000 A 
ATOM     31  N   UNL     1      -6.147  15.119  20.633  0.00  0.00    +0.000 N 
ATOM     32  N   UNL     1      -5.250  14.119  20.589  0.00  0.00    +0.000 NA
ATOM     33  H   UNL     1      -7.127  14.902  20.452  0.00  0.00    +0.000 HD
ENDBRANCH  24  28
ENDBRANCH   5  18
BRANCH   1  35
ATOM     34  C   UNL     1      -0.295   9.881  17.965  0.00  0.00    +0.000 C 
ATOM     35  C   UNL     1       1.107   9.344  18.220  0.00  0.00    +0.000 C 
ATOM     36  C   UNL     1       2.307  10.039  17.590  0.00  0.00    +0.000 C 
ENDBRANCH   1  35
BRANCH   4  37
ATOM     37  C   UNL     1       0.886   9.366  23.407  0.00  0.00    +0.000 C 
ATOM     38  O   UNL     1       1.819   9.298  24.194  0.00  0.00    +0.000 OA
BRANCH  37  39
ATOM     39  OXT UNL     1      -0.415   9.518  23.820  0.00  0.00    +0.000 OA
ATOM     40  HXT UNL     1      -0.510  10.284  24.386  0.00  0.00    +0.000 HD
ENDBRANCH  37  39
ENDBRANCH   4  37
TORSDOF 6
ENDMDL
MODEL 9
REMARK VINA RESULT:      -8.0      1.155      1.209
REMARK  Name = 
REMARK  8 active torsions:
REMARK  status: ('A' for Active; 'I' for Inactive)
REMARK    1  A    between atoms: C_1  and  C_2
REMARK    2  A    between atoms: C_2  and  C_3
REMARK    3  A    between atoms: C_2  and  C_4
REMARK    4  A    between atoms: C_5  and  C_6
REMARK    5  A    between atoms: CA_17  and  C_18
REMARK    6  A    between atoms: C_18  and  OXT_20
REMARK    7  A    between atoms: C_21  and  C_22
REMARK    8  A    between atoms: C_28  and  C_29
REMARK                            x       y       z     vdW  Elec       q    Type
REMARK                         _______ _______ _______ _____ _____    ______ ____
ROOT
ATOM      1  C   UNL     1       1.477   8.307  19.528  0.00  0.00    +0.000 A 
ATOM      2  C   UNL     1       1.784   7.167  20.309  0.00  0.00    +0.000 A 
ATOM      3  N   UNL     1       1.467   7.664  21.575  0.00  0.00    +0.000 N 
ATOM      4  CA  UNL     1       0.780   8.883  21.640  0.00  0.00    +0.000 A 
ATOM      5  C   UNL     1       0.765   9.441  20.352  0.00  0.00    +0.000 A 
ATOM      6  H   UNL     1       1.672   7.168  22.432  0.00  0.00    +0.000 HD
ENDROOT
BRANCH   2   7
ATOM      7  C   UNL     1       2.386   5.714  20.149  0.00  0.00    +0.000 A 
ATOM      8  C   UNL     1       1.595   4.652  20.694  0.00  0.00    +0.000 A 
ATOM      9  C   UNL     1       2.052   3.345  20.812  0.00  0.00    +0.000 A 
ATOM     10  F   UNL     1       2.535   2.996  22.026  0.00  0.00    +0.000 F 
ATOM     11  C   UNL     1       2.774   2.871  19.755  0.00  0.00    +0.000 A 
ATOM     12  C   UNL     1       3.824   3.772  19.583  0.00  0.00    +0.000 A 
ATOM     13  N   UNL     1       5.126   3.433  19.327  0.00  0.00    +0.000 N 
ATOM     14  C   UNL     1       5.725   4.507  18.755  0.00  0.00    +0.000 A 
ATOM     15  C   UNL     1       4.861   5.588  18.914  0.00  0.00    +0.000 A 
ATOM     16  C   UNL     1       3.648   5.185  19.601  0.00  0.00    +0.000 A 
ATOM     17  H   UNL     1       5.511   2.505  19.417  0.00  0.00    +0.000 HD
ENDBRANCH   2   7
BRANCH   5  18
ATOM     18  C   UNL     1       0.501  10.942  19.905  0.00  0.00    +0.000 A 
ATOM     19  C   UNL     1      -0.816  11.116  19.415  0.00  0.00    +0.000 A 
ATOM     20  C   UNL     1      -1.563  12.266  19.669  0.00  0.00    +0.000 A 
ATOM     21  C   UNL     1      -0.937  13.414  19.281  0.00  0.00    +0.000 A 
ATOM     22  C   UNL     1       0.319  13.396  19.881  0.00  0.00    +0.000 A 
ATOM     23  N   UNL     1       0.840  14.388  20.663  0.00  0.00    +0.000 N 
ATOM     24  C   UNL     1       2.193  14.401  20.436  0.00  0.00    +0.000 A 
ATOM     25  C   UNL     1       2.465  13.038  20.161  0.00  0.00    +0.000 A 
ATOM     26  C   UNL     1       1.161  12.271  20.071  0.00  0.00    +0.000 A 
ATOM     27  H   UNL     1       0.363  15.221  20.953  0.00  0.00    +0.000 HD
BRANCH  24  28
ATOM     28  C   UNL     1       2.802  15.797  20.562  0.00  0.00    +0.000 A 
ATOM     29  C   UNL     1       3.796  16.508  19.850  0.00  0.00    +0.000 A 
ATOM     30  C   UNL     1       3.830  17.770  20.425  0.00  0.00    +0.000 A 
ATOM     31  N   UNL     1       2.897  17.763  21.416  0.00  0.00    +0.000 N 
ATOM     32  N   UNL     1       2.261  16.582  21.515  0.00  0.00    +0.000 NA
ATOM     33  H   UNL     1       2.630  18.514  22.052  0.00  0.00    +0.000 HD
ENDBRANCH  24  28
ENDBRANCH   5  18
BRANCH   1  35
ATOM     34  C   UNL     1       0.675   9.273  17.441  0.00  0.00    +0.000 C 
ATOM     35  C   UNL     1       1.694   8.319  18.050  0.00  0.00    +0.000 C 
ATOM     36  C   UNL     1       3.152   8.394  17.616  0.00  0.00    +0.000 C 
ENDBRANCH   1  35
BRANCH   4  37
ATOM     37  C   UNL     1       0.321   9.233  22.973  0.00  0.00    +0.000 C 
ATOM     38  O   UNL     1       1.056   9.629  23.867  0.00  0.00    +0.000 OA
BRANCH  37  39
ATOM     39  OXT UNL     1      -1.028   9.049  23.157  0.00  0.00    +0.000 OA
ATOM     40  HXT UNL     1      -1.473   9.884  23.306  0.00  0.00    +0.000 HD
ENDBRANCH  37  39
ENDBRANCH   4  37
TORSDOF 6
ENDMDL
