MODEL 1
REMARK VINA RESULT:      -8.1      0.000      0.000
REMARK  Name = 
REMARK  6 active torsions:
REMARK  status: ('A' for Active; 'I' for Inactive)
REMARK    1  A    between atoms: C_4  and  C_5
REMARK    2  A    between atoms: C_18  and  C_19
REMARK    3  A    between atoms: C_19  and  O_20
REMARK    4  A    between atoms: O_20  and  C_21
REMARK    5  A    between atoms: C_21  and  C_22
REMARK    6  A    between atoms: C_22  and  N_23
REMARK                            x       y       z     vdW  Elec       q    Type
REMARK                         _______ _______ _______ _____ _____    ______ ____
ROOT
ATOM      1  C   UNL     1       2.232   4.590  19.263  0.00  0.00    +0.000 A 
ATOM      2  C   UNL     1       1.439   3.957  20.221  0.00  0.00    +0.000 A 
ATOM      3  S   UNL     1       1.647   2.222  20.217  0.00  0.00    +0.000 S 
ATOM      4  C   UNL     1       2.752   2.375  18.989  0.00  0.00    +0.000 A 
ATOM      5  N   UNL     1       3.595   1.596  18.292  0.00  0.00    +0.000 N 
ATOM      6  N   UNL     1       4.403   2.335  17.480  0.00  0.00    +0.000 NA
ATOM      7  C   UNL     1       4.044   3.620  17.695  0.00  0.00    +0.000 A 
ATOM      8  N   UNL     1       4.867   4.673  17.416  0.00  0.00    +0.000 N 
ATOM      9  C   UNL     1       6.279   4.323  17.358  0.00  0.00    +0.000 C 
ATOM     10  C   UNL     1       6.215   4.269  15.751  0.00  0.00    +0.000 C 
ATOM     11  C   UNL     1       5.343   5.413  15.269  0.00  0.00    +0.000 C 
ATOM     12  C   UNL     1       4.644   5.834  16.552  0.00  0.00    +0.000 C 
ATOM     13  C   UNL     1       5.385   7.090  17.138  0.00  0.00    +0.000 C 
ATOM     14  C   UNL     1       6.469   6.813  18.213  0.00  0.00    +0.000 C 
ATOM     15  C   UNL     1       6.535   5.314  18.594  0.00  0.00    +0.000 C 
ATOM     16  C   UNL     1       2.981   3.631  18.590  0.00  0.00    +0.000 A 
ATOM     17  H   UNL     1       3.749   0.597  18.355  0.00  0.00    +0.000 HD
ENDROOT
BRANCH   1  21
ATOM     18  C   UNL     1       1.912   8.743  18.605  0.00  0.00    +0.000 A 
ATOM     19  C   UNL     1       1.819   7.867  17.521  0.00  0.00    +0.000 A 
ATOM     20  C   UNL     1       1.927   6.491  17.720  0.00  0.00    +0.000 A 
ATOM     21  C   UNL     1       2.153   6.005  19.007  0.00  0.00    +0.000 A 
ATOM     22  C   UNL     1       2.236   6.882  20.095  0.00  0.00    +0.000 A 
ATOM     23  C   UNL     1       2.107   8.251  19.895  0.00  0.00    +0.000 A 
ENDBRANCH   1  21
BRANCH  14  24
ATOM     24  C   UNL     1       7.910   7.216  17.868  0.00  0.00    +0.000 C 
BRANCH  24  25
ATOM     25  O   UNL     1       8.597   8.088  18.775  0.00  0.00    +0.000 OA
BRANCH  25  26
ATOM     26  C   UNL     1       8.486   9.418  18.220  0.00  0.00    +0.000 C 
BRANCH  26  27
ATOM     27  C   UNL     1       9.272  10.503  18.969  0.00  0.00    +0.000 C 
BRANCH  27  28
ATOM     28  N   UNL     1      10.120  11.281  18.041  0.00  0.00    +0.000 NA
ATOM     29  C   UNL     1       9.567  12.595  17.702  0.00  0.00    +0.000 C 
ATOM     30  C   UNL     1      10.760  13.343  17.150  0.00  0.00    +0.000 C 
ATOM     31  C   UNL     1      11.894  12.889  18.047  0.00  0.00    +0.000 C 
ATOM     32  C   UNL     1      11.475  11.509  18.555  0.00  0.00    +0.000 C 
ENDBRANCH  27  28
ENDBRANCH  26  27
ENDBRANCH  25  26
ENDBRANCH  24  25
ENDBRANCH  14  24
TORSDOF 6
ENDMDL
MODEL 2
REMARK VINA RESULT:      -8.1      4.292     10.387
REMARK  Name = 
REMARK  6 active torsions:
REMARK  status: ('A' for Active; 'I' for Inactive)
REMARK    1  A    between atoms: C_4  and  C_5
REMARK    2  A    between atoms: C_18  and  C_19
REMARK    3  A    between atoms: C_19  and  O_20
REMARK    4  A    between atoms: O_20  and  C_21
REMARK    5  A    between atoms: C_21  and  C_22
REMARK    6  A    between atoms: C_22  and  N_23
REMARK                            x       y       z     vdW  Elec       q    Type
REMARK                         _______ _______ _______ _____ _____    ______ ____
ROOT
ATOM      1  C   UNL     1       8.835  15.682  19.898  0.00  0.00    +0.000 A 
ATOM      2  C   UNL     1       8.186  16.897  19.680  0.00  0.00    +0.000 A 
ATOM      3  S   UNL     1       8.703  17.674  18.203  0.00  0.00    +0.000 S 
ATOM      4  C   UNL     1       9.729  16.402  17.916  0.00  0.00    +0.000 A 
ATOM      5  N   UNL     1      10.559  15.979  16.948  0.00  0.00    +0.000 N 
ATOM      6  N   UNL     1      11.036  14.728  17.211  0.00  0.00    +0.000 NA
ATOM      7  C   UNL     1      10.468  14.370  18.383  0.00  0.00    +0.000 A 
ATOM      8  N   UNL     1      10.342  13.068  18.775  0.00  0.00    +0.000 N 
ATOM      9  C   UNL     1      10.388  12.112  17.678  0.00  0.00    +0.000 C 
ATOM     10  C   UNL     1      11.934  11.798  17.996  0.00  0.00    +0.000 C 
ATOM     11  C   UNL     1      12.113  11.757  19.503  0.00  0.00    +0.000 C 
ATOM     12  C   UNL     1      10.825  12.403  19.987  0.00  0.00    +0.000 C 
ATOM     13  C   UNL     1       9.824  11.270  20.413  0.00  0.00    +0.000 C 
ATOM     14  C   UNL     1       8.799  10.815  19.340  0.00  0.00    +0.000 C 
ATOM     15  C   UNL     1       8.891  11.671  18.054  0.00  0.00    +0.000 C 
ATOM     16  C   UNL     1       9.704  15.437  18.841  0.00  0.00    +0.000 A 
ATOM     17  H   UNL     1      10.792  16.414  16.064  0.00  0.00    +0.000 HD
ENDROOT
BRANCH   1  21
ATOM     18  C   UNL     1       8.175  13.469  23.427  0.00  0.00    +0.000 A 
ATOM     19  C   UNL     1       9.283  14.317  23.345  0.00  0.00    +0.000 A 
ATOM     20  C   UNL     1       9.518  15.053  22.185  0.00  0.00    +0.000 A 
ATOM     21  C   UNL     1       8.651  14.912  21.102  0.00  0.00    +0.000 A 
ATOM     22  C   UNL     1       7.536  14.070  21.187  0.00  0.00    +0.000 A 
ATOM     23  C   UNL     1       7.293  13.354  22.354  0.00  0.00    +0.000 A 
ENDBRANCH   1  21
BRANCH  14  24
ATOM     24  C   UNL     1       8.884   9.354  18.872  0.00  0.00    +0.000 C 
BRANCH  24  25
ATOM     25  O   UNL     1       8.472   9.056  17.533  0.00  0.00    +0.000 OA
BRANCH  25  26
ATOM     26  C   UNL     1       7.493   7.997  17.636  0.00  0.00    +0.000 C 
BRANCH  26  27
ATOM     27  C   UNL     1       7.916   6.802  18.502  0.00  0.00    +0.000 C 
BRANCH  27  28
ATOM     28  N   UNL     1       7.042   5.635  18.258  0.00  0.00    +0.000 NA
ATOM     29  C   UNL     1       5.635   5.990  18.047  0.00  0.00    +0.000 C 
ATOM     30  C   UNL     1       5.058   4.752  17.395  0.00  0.00    +0.000 C 
ATOM     31  C   UNL     1       6.171   4.303  16.469  0.00  0.00    +0.000 C 
ATOM     32  C   UNL     1       7.458   4.836  17.100  0.00  0.00    +0.000 C 
ENDBRANCH  27  28
ENDBRANCH  26  27
ENDBRANCH  25  26
ENDBRANCH  24  25
ENDBRANCH  14  24
TORSDOF 6
ENDMDL
MODEL 3
REMARK VINA RESULT:      -8.0      0.816      1.067
REMARK  Name = 
REMARK  6 active torsions:
REMARK  status: ('A' for Active; 'I' for Inactive)
REMARK    1  A    between atoms: C_4  and  C_5
REMARK    2  A    between atoms: C_18  and  C_19
REMARK    3  A    between atoms: C_19  and  O_20
REMARK    4  A    between atoms: O_20  and  C_21
REMARK    5  A    between atoms: C_21  and  C_22
REMARK    6  A    between atoms: C_22  and  N_23
REMARK                            x       y       z     vdW  Elec       q    Type
REMARK                         _______ _______ _______ _____ _____    ______ ____
ROOT
ATOM      1  C   UNL     1       2.090   4.756  19.458  0.00  0.00    +0.000 A 
ATOM      2  C   UNL     1       1.290   4.209  20.463  0.00  0.00    +0.000 A 
ATOM      3  S   UNL     1       1.449   2.472  20.570  0.00  0.00    +0.000 S 
ATOM      4  C   UNL     1       2.544   2.514  19.324  0.00  0.00    +0.000 A 
ATOM      5  N   UNL     1       3.357   1.668  18.671  0.00  0.00    +0.000 N 
ATOM      6  N   UNL     1       4.176   2.329  17.805  0.00  0.00    +0.000 NA
ATOM      7  C   UNL     1       3.856   3.635  17.940  0.00  0.00    +0.000 A 
ATOM      8  N   UNL     1       4.705   4.643  17.585  0.00  0.00    +0.000 N 
ATOM      9  C   UNL     1       6.106   4.249  17.536  0.00  0.00    +0.000 C 
ATOM     10  C   UNL     1       6.022   4.094  15.937  0.00  0.00    +0.000 C 
ATOM     11  C   UNL     1       5.177   5.229  15.390  0.00  0.00    +0.000 C 
ATOM     12  C   UNL     1       4.506   5.752  16.650  0.00  0.00    +0.000 C 
ATOM     13  C   UNL     1       5.288   7.021  17.145  0.00  0.00    +0.000 C 
ATOM     14  C   UNL     1       6.376   6.784  18.226  0.00  0.00    +0.000 C 
ATOM     15  C   UNL     1       6.403   5.311  18.703  0.00  0.00    +0.000 C 
ATOM     16  C   UNL     1       2.804   3.734  18.843  0.00  0.00    +0.000 A 
ATOM     17  H   UNL     1       3.483   0.671  18.797  0.00  0.00    +0.000 HD
ENDROOT
BRANCH   1  21
ATOM     18  C   UNL     1       1.876   8.864  18.532  0.00  0.00    +0.000 A 
ATOM     19  C   UNL     1       1.795   7.923  17.502  0.00  0.00    +0.000 A 
ATOM     20  C   UNL     1       1.868   6.561  17.790  0.00  0.00    +0.000 A 
ATOM     21  C   UNL     1       2.047   6.153  19.112  0.00  0.00    +0.000 A 
ATOM     22  C   UNL     1       2.119   7.096  20.144  0.00  0.00    +0.000 A 
ATOM     23  C   UNL     1       2.025   8.452  19.855  0.00  0.00    +0.000 A 
ENDBRANCH   1  21
BRANCH  14  24
ATOM     24  C   UNL     1       7.824   7.122  17.841  0.00  0.00    +0.000 C 
BRANCH  24  25
ATOM     25  O   UNL     1       8.104   8.455  17.399  0.00  0.00    +0.000 OA
BRANCH  25  26
ATOM     26  C   UNL     1       8.610   9.166  18.552  0.00  0.00    +0.000 C 
BRANCH  26  27
ATOM     27  C   UNL     1       9.081  10.601  18.278  0.00  0.00    +0.000 C 
BRANCH  27  28
ATOM     28  N   UNL     1      10.050  11.047  19.301  0.00  0.00    +0.000 NA
ATOM     29  C   UNL     1      11.357  11.415  18.749  0.00  0.00    +0.000 C 
ATOM     30  C   UNL     1      11.986  12.231  19.857  0.00  0.00    +0.000 C 
ATOM     31  C   UNL     1      10.818  13.033  20.396  0.00  0.00    +0.000 C 
ATOM     32  C   UNL     1       9.578  12.198  20.079  0.00  0.00    +0.000 C 
ENDBRANCH  27  28
ENDBRANCH  26  27
ENDBRANCH  25  26
ENDBRANCH  24  25
ENDBRANCH  14  24
TORSDOF 6
ENDMDL
MODEL 4
REMARK VINA RESULT:      -7.8      4.456     10.603
REMARK  Name = 
REMARK  6 active torsions:
REMARK  status: ('A' for Active; 'I' for Inactive)
REMARK    1  A    between atoms: C_4  and  C_5
REMARK    2  A    between atoms: C_18  and  C_19
REMARK    3  A    between atoms: C_19  and  O_20
REMARK    4  A    between atoms: O_20  and  C_21
REMARK    5  A    between atoms: C_21  and  C_22
REMARK    6  A    between atoms: C_22  and  N_23
REMARK                            x       y       z     vdW  Elec       q    Type
REMARK                         _______ _______ _______ _____ _____    ______ ____
ROOT
ATOM      1  C   UNL     1       9.155  16.007  19.830  0.00  0.00    +0.000 A 
ATOM      2  C   UNL     1       8.662  17.301  19.661  0.00  0.00    +0.000 A 
ATOM      3  S   UNL     1       9.422  18.135  18.327  0.00  0.00    +0.000 S 
ATOM      4  C   UNL     1      10.340  16.786  18.030  0.00  0.00    +0.000 A 
ATOM      5  N   UNL     1      11.229  16.355  17.120  0.00  0.00    +0.000 N 
ATOM      6  N   UNL     1      11.543  15.041  17.312  0.00  0.00    +0.000 NA
ATOM      7  C   UNL     1      10.811  14.652  18.378  0.00  0.00    +0.000 A 
ATOM      8  N   UNL     1      10.509  13.345  18.629  0.00  0.00    +0.000 N 
ATOM      9  C   UNL     1      10.584  12.484  17.457  0.00  0.00    +0.000 C 
ATOM     10  C   UNL     1      12.042  11.974  17.906  0.00  0.00    +0.000 C 
ATOM     11  C   UNL     1      12.042  11.788  19.411  0.00  0.00    +0.000 C 
ATOM     12  C   UNL     1      10.779  12.531  19.816  0.00  0.00    +0.000 C 
ATOM     13  C   UNL     1       9.625  11.485  20.024  0.00  0.00    +0.000 C 
ATOM     14  C   UNL     1       8.690  11.237  18.811  0.00  0.00    +0.000 C 
ATOM     15  C   UNL     1       9.016  12.182  17.629  0.00  0.00    +0.000 C 
ATOM     16  C   UNL     1      10.111  15.756  18.852  0.00  0.00    +0.000 A 
ATOM     17  H   UNL     1      11.606  16.833  16.312  0.00  0.00    +0.000 HD
ENDROOT
BRANCH   1  21
ATOM     18  C   UNL     1       7.874  13.601  23.048  0.00  0.00    +0.000 A 
ATOM     19  C   UNL     1       9.100  14.266  23.133  0.00  0.00    +0.000 A 
ATOM     20  C   UNL     1       9.540  15.062  22.077  0.00  0.00    +0.000 A 
ATOM     21  C   UNL     1       8.756  15.165  20.928  0.00  0.00    +0.000 A 
ATOM     22  C   UNL     1       7.524  14.506  20.846  0.00  0.00    +0.000 A 
ATOM     23  C   UNL     1       7.079  13.730  21.911  0.00  0.00    +0.000 A 
ENDBRANCH   1  21
BRANCH  14  24
ATOM     24  C   UNL     1       8.680   9.820  18.217  0.00  0.00    +0.000 C 
BRANCH  24  25
ATOM     25  O   UNL     1       8.806   8.716  19.121  0.00  0.00    +0.000 OA
BRANCH  25  26
ATOM     26  C   UNL     1       8.280   7.562  18.427  0.00  0.00    +0.000 C 
BRANCH  26  27
ATOM     27  C   UNL     1       7.165   7.863  17.416  0.00  0.00    +0.000 C 
BRANCH  27  28
ATOM     28  N   UNL     1       6.846   6.669  16.606  0.00  0.00    +0.000 NA
ATOM     29  C   UNL     1       7.260   5.409  17.231  0.00  0.00    +0.000 C 
ATOM     30  C   UNL     1       6.458   4.368  16.482  0.00  0.00    +0.000 C 
ATOM     31  C   UNL     1       5.116   5.044  16.289  0.00  0.00    +0.000 C 
ATOM     32  C   UNL     1       5.415   6.543  16.305  0.00  0.00    +0.000 C 
ENDBRANCH  27  28
ENDBRANCH  26  27
ENDBRANCH  25  26
ENDBRANCH  24  25
ENDBRANCH  14  24
TORSDOF 6
ENDMDL
MODEL 5
REMARK VINA RESULT:      -7.8      0.872      1.415
REMARK  Name = 
REMARK  6 active torsions:
REMARK  status: ('A' for Active; 'I' for Inactive)
REMARK    1  A    between atoms: C_4  and  C_5
REMARK    2  A    between atoms: C_18  and  C_19
REMARK    3  A    between atoms: C_19  and  O_20
REMARK    4  A    between atoms: O_20  and  C_21
REMARK    5  A    between atoms: C_21  and  C_22
REMARK    6  A    between atoms: C_22  and  N_23
REMARK                            x       y       z     vdW  Elec       q    Type
REMARK                         _______ _______ _______ _____ _____    ______ ____
ROOT
ATOM      1  C   UNL     1       2.003   4.547  19.276  0.00  0.00    +0.000 A 
ATOM      2  C   UNL     1       1.160   3.926  20.198  0.00  0.00    +0.000 A 
ATOM      3  S   UNL     1       1.305   2.185  20.165  0.00  0.00    +0.000 S 
ATOM      4  C   UNL     1       2.449   2.321  18.972  0.00  0.00    +0.000 A 
ATOM      5  N   UNL     1       3.283   1.524  18.283  0.00  0.00    +0.000 N 
ATOM      6  N   UNL     1       4.141   2.249  17.509  0.00  0.00    +0.000 NA
ATOM      7  C   UNL     1       3.823   3.541  17.740  0.00  0.00    +0.000 A 
ATOM      8  N   UNL     1       4.692   4.568  17.506  0.00  0.00    +0.000 N 
ATOM      9  C   UNL     1       6.091   4.166  17.480  0.00  0.00    +0.000 C 
ATOM     10  C   UNL     1       6.071   4.147  15.871  0.00  0.00    +0.000 C 
ATOM     11  C   UNL     1       5.256   5.331  15.388  0.00  0.00    +0.000 C 
ATOM     12  C   UNL     1       4.537   5.753  16.660  0.00  0.00    +0.000 C 
ATOM     13  C   UNL     1       5.305   6.969  17.292  0.00  0.00    +0.000 C 
ATOM     14  C   UNL     1       6.347   6.631  18.391  0.00  0.00    +0.000 C 
ATOM     15  C   UNL     1       6.347   5.124  18.743  0.00  0.00    +0.000 C 
ATOM     16  C   UNL     1       2.736   3.574  18.606  0.00  0.00    +0.000 A 
ATOM     17  H   UNL     1       3.398   0.519  18.330  0.00  0.00    +0.000 HD
ENDROOT
BRANCH   1  21
ATOM     18  C   UNL     1       2.026   8.694  18.508  0.00  0.00    +0.000 A 
ATOM     19  C   UNL     1       2.268   8.234  19.805  0.00  0.00    +0.000 A 
ATOM     20  C   UNL     1       2.261   6.867  20.077  0.00  0.00    +0.000 A 
ATOM     21  C   UNL     1       1.983   5.969  19.047  0.00  0.00    +0.000 A 
ATOM     22  C   UNL     1       1.749   6.429  17.745  0.00  0.00    +0.000 A 
ATOM     23  C   UNL     1       1.779   7.792  17.474  0.00  0.00    +0.000 A 
ENDBRANCH   1  21
BRANCH  14  24
ATOM     24  C   UNL     1       7.812   6.987  18.094  0.00  0.00    +0.000 C 
BRANCH  24  25
ATOM     25  O   UNL     1       8.068   8.007  17.121  0.00  0.00    +0.000 OA
BRANCH  25  26
ATOM     26  C   UNL     1       8.014   9.266  17.830  0.00  0.00    +0.000 C 
BRANCH  26  27
ATOM     27  C   UNL     1       8.946   9.370  19.044  0.00  0.00    +0.000 C 
BRANCH  27  28
ATOM     28  N   UNL     1       9.304  10.778  19.319  0.00  0.00    +0.000 NA
ATOM     29  C   UNL     1       9.487  11.068  20.744  0.00  0.00    +0.000 C 
ATOM     30  C   UNL     1      10.258  12.370  20.738  0.00  0.00    +0.000 C 
ATOM     31  C   UNL     1      11.217  12.194  19.578  0.00  0.00    +0.000 C 
ATOM     32  C   UNL     1      10.532  11.203  18.637  0.00  0.00    +0.000 C 
ENDBRANCH  27  28
ENDBRANCH  26  27
ENDBRANCH  25  26
ENDBRANCH  24  25
ENDBRANCH  14  24
TORSDOF 6
ENDMDL
MODEL 6
REMARK VINA RESULT:      -7.8      0.705      1.101
REMARK  Name = 
REMARK  6 active torsions:
REMARK  status: ('A' for Active; 'I' for Inactive)
REMARK    1  A    between atoms: C_4  and  C_5
REMARK    2  A    between atoms: C_18  and  C_19
REMARK    3  A    between atoms: C_19  and  O_20
REMARK    4  A    between atoms: O_20  and  C_21
REMARK    5  A    between atoms: C_21  and  C_22
REMARK    6  A    between atoms: C_22  and  N_23
REMARK                            x       y       z     vdW  Elec       q    Type
REMARK                         _______ _______ _______ _____ _____    ______ ____
ROOT
ATOM      1  C   UNL     1       2.527   4.768  19.917  0.00  0.00    +0.000 A 
ATOM      2  C   UNL     1       1.862   4.308  21.053  0.00  0.00    +0.000 A 
ATOM      3  S   UNL     1       2.303   2.668  21.465  0.00  0.00    +0.000 S 
ATOM      4  C   UNL     1       3.333   2.638  20.166  0.00  0.00    +0.000 A 
ATOM      5  N   UNL     1       4.250   1.817  19.628  0.00  0.00    +0.000 N 
ATOM      6  N   UNL     1       4.922   2.418  18.605  0.00  0.00    +0.000 NA
ATOM      7  C   UNL     1       4.399   3.661  18.519  0.00  0.00    +0.000 A 
ATOM      8  N   UNL     1       5.062   4.701  17.933  0.00  0.00    +0.000 N 
ATOM      9  C   UNL     1       6.505   4.523  17.867  0.00  0.00    +0.000 C 
ATOM     10  C   UNL     1       6.393   4.055  16.332  0.00  0.00    +0.000 C 
ATOM     11  C   UNL     1       5.357   4.923  15.642  0.00  0.00    +0.000 C 
ATOM     12  C   UNL     1       4.654   5.568  16.825  0.00  0.00    +0.000 C 
ATOM     13  C   UNL     1       5.236   7.012  17.030  0.00  0.00    +0.000 C 
ATOM     14  C   UNL     1       6.385   7.154  18.064  0.00  0.00    +0.000 C 
ATOM     15  C   UNL     1       6.667   5.821  18.799  0.00  0.00    +0.000 C 
ATOM     16  C   UNL     1       3.376   3.769  19.454  0.00  0.00    +0.000 A 
ATOM     17  H   UNL     1       4.540   0.893  19.926  0.00  0.00    +0.000 HD
ENDROOT
BRANCH   1  21
ATOM     18  C   UNL     1       1.790   8.496  18.087  0.00  0.00    +0.000 A 
ATOM     19  C   UNL     1       2.134   8.451  19.440  0.00  0.00    +0.000 A 
ATOM     20  C   UNL     1       2.377   7.227  20.062  0.00  0.00    +0.000 A 
ATOM     21  C   UNL     1       2.248   6.051  19.324  0.00  0.00    +0.000 A 
ATOM     22  C   UNL     1       1.913   6.096  17.966  0.00  0.00    +0.000 A 
ATOM     23  C   UNL     1       1.692   7.320  17.344  0.00  0.00    +0.000 A 
ENDBRANCH   1  21
BRANCH  14  24
ATOM     24  C   UNL     1       7.745   7.629  17.532  0.00  0.00    +0.000 C 
BRANCH  24  25
ATOM     25  O   UNL     1       8.614   8.318  18.440  0.00  0.00    +0.000 OA
BRANCH  25  26
ATOM     26  C   UNL     1       8.405   9.729  18.207  0.00  0.00    +0.000 C 
BRANCH  26  27
ATOM     27  C   UNL     1       9.350  10.663  18.976  0.00  0.00    +0.000 C 
BRANCH  27  28
ATOM     28  N   UNL     1      10.274  11.359  18.056  0.00  0.00    +0.000 NA
ATOM     29  C   UNL     1       9.761  12.645  17.574  0.00  0.00    +0.000 C 
ATOM     30  C   UNL     1      11.000  13.341  17.055  0.00  0.00    +0.000 C 
ATOM     31  C   UNL     1      12.059  12.955  18.068  0.00  0.00    +0.000 C 
ATOM     32  C   UNL     1      11.589  11.622  18.651  0.00  0.00    +0.000 C 
ENDBRANCH  27  28
ENDBRANCH  26  27
ENDBRANCH  25  26
ENDBRANCH  24  25
ENDBRANCH  14  24
TORSDOF 6
ENDMDL
MODEL 7
REMARK VINA RESULT:      -7.6      4.407     10.487
REMARK  Name = 
REMARK  6 active torsions:
REMARK  status: ('A' for Active; 'I' for Inactive)
REMARK    1  A    between atoms: C_4  and  C_5
REMARK    2  A    between atoms: C_18  and  C_19
REMARK    3  A    between atoms: C_19  and  O_20
REMARK    4  A    between atoms: O_20  and  C_21
REMARK    5  A    between atoms: C_21  and  C_22
REMARK    6  A    between atoms: C_22  and  N_23
REMARK                            x       y       z     vdW  Elec       q    Type
REMARK                         _______ _______ _______ _____ _____    ______ ____
ROOT
ATOM      1  C   UNL     1       8.612  15.650  20.535  0.00  0.00    +0.000 A 
ATOM      2  C   UNL     1       7.949  16.873  20.429  0.00  0.00    +0.000 A 
ATOM      3  S   UNL     1       8.604  17.878  19.158  0.00  0.00    +0.000 S 
ATOM      4  C   UNL     1       9.702  16.685  18.806  0.00  0.00    +0.000 A 
ATOM      5  N   UNL     1      10.651  16.432  17.891  0.00  0.00    +0.000 N 
ATOM      6  N   UNL     1      11.140  15.165  18.015  0.00  0.00    +0.000 NA
ATOM      7  C   UNL     1      10.455  14.619  19.044  0.00  0.00    +0.000 A 
ATOM      8  N   UNL     1      10.333  13.271  19.216  0.00  0.00    +0.000 N 
ATOM      9  C   UNL     1      10.539  12.497  18.000  0.00  0.00    +0.000 C 
ATOM     10  C   UNL     1      12.048  12.165  18.449  0.00  0.00    +0.000 C 
ATOM     11  C   UNL     1      12.055  11.895  19.942  0.00  0.00    +0.000 C 
ATOM     12  C   UNL     1      10.697  12.434  20.362  0.00  0.00    +0.000 C 
ATOM     13  C   UNL     1       9.695  11.231  20.488  0.00  0.00    +0.000 C 
ATOM     14  C   UNL     1       8.817  10.929  19.245  0.00  0.00    +0.000 C 
ATOM     15  C   UNL     1       9.025  11.976  18.124  0.00  0.00    +0.000 C 
ATOM     16  C   UNL     1       9.605  15.588  19.564  0.00  0.00    +0.000 A 
ATOM     17  H   UNL     1      10.969  17.003  17.118  0.00  0.00    +0.000 HD
ENDROOT
BRANCH   1  21
ATOM     18  C   UNL     1       7.875  12.826  23.579  0.00  0.00    +0.000 A 
ATOM     19  C   UNL     1       7.000  12.909  22.492  0.00  0.00    +0.000 A 
ATOM     20  C   UNL     1       7.227  13.839  21.480  0.00  0.00    +0.000 A 
ATOM     21  C   UNL     1       8.319  14.700  21.578  0.00  0.00    +0.000 A 
ATOM     22  C   UNL     1       9.201  14.611  22.661  0.00  0.00    +0.000 A 
ATOM     23  C   UNL     1       8.983  13.667  23.659  0.00  0.00    +0.000 A 
ENDBRANCH   1  21
BRANCH  14  24
ATOM     24  C   UNL     1       9.008   9.560  18.574  0.00  0.00    +0.000 C 
BRANCH  24  25
ATOM     25  O   UNL     1       7.860   8.938  17.984  0.00  0.00    +0.000 OA
BRANCH  25  26
ATOM     26  C   UNL     1       7.998   7.520  18.227  0.00  0.00    +0.000 C 
BRANCH  26  27
ATOM     27  C   UNL     1       7.267   6.614  17.228  0.00  0.00    +0.000 C 
BRANCH  27  28
ATOM     28  N   UNL     1       5.949   6.197  17.753  0.00  0.00    +0.000 NA
ATOM     29  C   UNL     1       5.083   5.582  16.743  0.00  0.00    +0.000 C 
ATOM     30  C   UNL     1       4.042   4.861  17.571  0.00  0.00    +0.000 C 
ATOM     31  C   UNL     1       4.848   4.308  18.729  0.00  0.00    +0.000 C 
ATOM     32  C   UNL     1       6.048   5.245  18.866  0.00  0.00    +0.000 C 
ENDBRANCH  27  28
ENDBRANCH  26  27
ENDBRANCH  25  26
ENDBRANCH  24  25
ENDBRANCH  14  24
TORSDOF 6
ENDMDL
MODEL 8
REMARK VINA RESULT:      -7.6      5.960      9.802
REMARK  Name = 
REMARK  6 active torsions:
REMARK  status: ('A' for Active; 'I' for Inactive)
REMARK    1  A    between atoms: C_4  and  C_5
REMARK    2  A    between atoms: C_18  and  C_19
REMARK    3  A    between atoms: C_19  and  O_20
REMARK    4  A    between atoms: O_20  and  C_21
REMARK    5  A    between atoms: C_21  and  C_22
REMARK    6  A    between atoms: C_22  and  N_23
REMARK                            x       y       z     vdW  Elec       q    Type
REMARK                         _______ _______ _______ _____ _____    ______ ____
ROOT
ATOM      1  C   UNL     1      -3.499  12.579  20.092  0.00  0.00    +0.000 A 
ATOM      2  C   UNL     1      -4.885  12.730  20.032  0.00  0.00    +0.000 A 
ATOM      3  S   UNL     1      -5.556  12.124  18.536  0.00  0.00    +0.000 S 
ATOM      4  C   UNL     1      -4.031  11.691  18.048  0.00  0.00    +0.000 A 
ATOM      5  N   UNL     1      -3.448  11.044  17.026  0.00  0.00    +0.000 N 
ATOM      6  N   UNL     1      -2.118  10.845  17.253  0.00  0.00    +0.000 NA
ATOM      7  C   UNL     1      -1.880  11.388  18.467  0.00  0.00    +0.000 A 
ATOM      8  N   UNL     1      -0.807  11.036  19.234  0.00  0.00    +0.000 N 
ATOM      9  C   UNL     1      -0.247   9.732  18.909  0.00  0.00    +0.000 C 
ATOM     10  C   UNL     1       0.917  10.431  18.045  0.00  0.00    +0.000 C 
ATOM     11  C   UNL     1       1.377  11.676  18.782  0.00  0.00    +0.000 C 
ATOM     12  C   UNL     1       0.259  11.869  19.794  0.00  0.00    +0.000 C 
ATOM     13  C   UNL     1       0.727  11.286  21.176  0.00  0.00    +0.000 C 
ATOM     14  C   UNL     1       0.305   9.826  21.489  0.00  0.00    +0.000 C 
ATOM     15  C   UNL     1      -0.620   9.245  20.392  0.00  0.00    +0.000 C 
ATOM     16  C   UNL     1      -3.060  11.960  18.928  0.00  0.00    +0.000 A 
ATOM     17  H   UNL     1      -3.867  10.638  16.199  0.00  0.00    +0.000 HD
ENDROOT
BRANCH   1  21
ATOM     18  C   UNL     1      -1.291  14.078  23.358  0.00  0.00    +0.000 A 
ATOM     19  C   UNL     1      -1.413  14.849  22.199  0.00  0.00    +0.000 A 
ATOM     20  C   UNL     1      -2.136  14.367  21.109  0.00  0.00    +0.000 A 
ATOM     21  C   UNL     1      -2.712  13.100  21.181  0.00  0.00    +0.000 A 
ATOM     22  C   UNL     1      -2.598  12.330  22.345  0.00  0.00    +0.000 A 
ATOM     23  C   UNL     1      -1.894  12.824  23.437  0.00  0.00    +0.000 A 
ENDBRANCH   1  21
BRANCH  14  24
ATOM     24  C   UNL     1       1.433   8.798  21.666  0.00  0.00    +0.000 C 
BRANCH  24  25
ATOM     25  O   UNL     1       1.264   7.510  21.063  0.00  0.00    +0.000 OA
BRANCH  25  26
ATOM     26  C   UNL     1       2.249   7.424  20.007  0.00  0.00    +0.000 C 
BRANCH  26  27
ATOM     27  C   UNL     1       2.746   6.006  19.695  0.00  0.00    +0.000 C 
BRANCH  27  28
ATOM     28  N   UNL     1       1.744   4.993  20.086  0.00  0.00    +0.000 NA
ATOM     29  C   UNL     1       1.476   3.999  19.042  0.00  0.00    +0.000 C 
ATOM     30  C   UNL     1       0.812   2.870  19.798  0.00  0.00    +0.000 C 
ATOM     31  C   UNL     1       1.583   2.831  21.102  0.00  0.00    +0.000 C 
ATOM     32  C   UNL     1       2.118   4.250  21.295  0.00  0.00    +0.000 C 
ENDBRANCH  27  28
ENDBRANCH  26  27
ENDBRANCH  25  26
ENDBRANCH  24  25
ENDBRANCH  14  24
TORSDOF 6
ENDMDL
MODEL 9
REMARK VINA RESULT:      -7.5      4.511     10.869
REMARK  Name = 
REMARK  6 active torsions:
REMARK  status: ('A' for Active; 'I' for Inactive)
REMARK    1  A    between atoms: C_4  and  C_5
REMARK    2  A    between atoms: C_18  and  C_19
REMARK    3  A    between atoms: C_19  and  O_20
REMARK    4  A    between atoms: O_20  and  C_21
REMARK    5  A    between atoms: C_21  and  C_22
REMARK    6  A    between atoms: C_22  and  N_23
REMARK                            x       y       z     vdW  Elec       q    Type
REMARK                         _______ _______ _______ _____ _____    ______ ____
ROOT
ATOM      1  C   UNL     1       9.333  16.313  19.662  0.00  0.00    +0.000 A 
ATOM      2  C   UNL     1       8.899  17.610  19.388  0.00  0.00    +0.000 A 
ATOM      3  S   UNL     1       9.837  18.374  18.127  0.00  0.00    +0.000 S 
ATOM      4  C   UNL     1      10.747  16.994  17.993  0.00  0.00    +0.000 A 
ATOM      5  N   UNL     1      11.727  16.508  17.214  0.00  0.00    +0.000 N 
ATOM      6  N   UNL     1      11.980  15.196  17.489  0.00  0.00    +0.000 NA
ATOM      7  C   UNL     1      11.114  14.866  18.472  0.00  0.00    +0.000 A 
ATOM      8  N   UNL     1      10.750  13.576  18.732  0.00  0.00    +0.000 N 
ATOM      9  C   UNL     1      10.942  12.668  17.610  0.00  0.00    +0.000 C 
ATOM     10  C   UNL     1      12.321  12.144  18.251  0.00  0.00    +0.000 C 
ATOM     11  C   UNL     1      12.134  12.017  19.751  0.00  0.00    +0.000 C 
ATOM     12  C   UNL     1      10.852  12.804  19.972  0.00  0.00    +0.000 C 
ATOM     13  C   UNL     1       9.654  11.793  20.076  0.00  0.00    +0.000 C 
ATOM     14  C   UNL     1       8.866  11.519  18.768  0.00  0.00    +0.000 C 
ATOM     15  C   UNL     1       9.357  12.409  17.601  0.00  0.00    +0.000 C 
ATOM     16  C   UNL     1      10.392  16.002  18.817  0.00  0.00    +0.000 A 
ATOM     17  H   UNL     1      12.211  16.946  16.440  0.00  0.00    +0.000 HD
ENDROOT
BRANCH   1  21
ATOM     18  C   UNL     1       7.833  13.946  22.813  0.00  0.00    +0.000 A 
ATOM     19  C   UNL     1       7.126  14.016  21.610  0.00  0.00    +0.000 A 
ATOM     20  C   UNL     1       7.605  14.796  20.560  0.00  0.00    +0.000 A 
ATOM     21  C   UNL     1       8.782  15.524  20.734  0.00  0.00    +0.000 A 
ATOM     22  C   UNL     1       9.496  15.447  21.936  0.00  0.00    +0.000 A 
ATOM     23  C   UNL     1       9.025  14.650  22.973  0.00  0.00    +0.000 A 
ENDBRANCH   1  21
BRANCH  14  24
ATOM     24  C   UNL     1       8.889  10.080  18.229  0.00  0.00    +0.000 C 
BRANCH  24  25
ATOM     25  O   UNL     1       7.642   9.382  18.134  0.00  0.00    +0.000 OA
BRANCH  25  26
ATOM     26  C   UNL     1       7.958   7.974  18.223  0.00  0.00    +0.000 C 
BRANCH  26  27
ATOM     27  C   UNL     1       7.437   7.115  17.063  0.00  0.00    +0.000 C 
BRANCH  27  28
ATOM     28  N   UNL     1       6.323   6.248  17.503  0.00  0.00    +0.000 NA
ATOM     29  C   UNL     1       5.009   6.704  17.043  0.00  0.00    +0.000 C 
ATOM     30  C   UNL     1       4.137   5.478  17.211  0.00  0.00    +0.000 C 
ATOM     31  C   UNL     1       5.053   4.347  16.791  0.00  0.00    +0.000 C 
ATOM     32  C   UNL     1       6.470   4.856  17.061  0.00  0.00    +0.000 C 
ENDBRANCH  27  28
ENDBRANCH  26  27
ENDBRANCH  25  26
ENDBRANCH  24  25
ENDBRANCH  14  24
TORSDOF 6
ENDMDL
