MODEL 1
REMARK VINA RESULT:      -8.6      0.000      0.000
REMARK  Name = 
REMARK  7 active torsions:
REMARK  status: ('A' for Active; 'I' for Inactive)
REMARK    1  A    between atoms: C_1  and  O_2
REMARK    2  A    between atoms: O_2  and  C_3
REMARK    3  A    between atoms: C_8  and  C_9
REMARK    4  A    between atoms: C_11  and  O_12
REMARK    5  A    between atoms: O_12  and  C_13
REMARK    6  A    between atoms: C_13  and  C_14
REMARK    7  A    between atoms: N_16  and  C_17
REMARK                            x       y       z     vdW  Elec       q    Type
REMARK                         _______ _______ _______ _____ _____    ______ ____
ROOT
ATOM      1  C   UNL     1       1.638   9.484  18.050  0.00  0.00    +0.000 C 
ENDROOT
BRANCH   1   2
ATOM      2  C   UNL     1       2.075   8.159  18.688  0.00  0.00    +0.000 C 
ATOM      3  O   UNL     1       1.963   7.963  19.896  0.00  0.00    +0.000 OA
ATOM      4  N   UNL     1       2.614   7.240  17.827  0.00  0.00    +0.000 N 
ATOM      5  H   UNL     1       2.640   7.467  16.838  0.00  0.00    +0.000 HD
BRANCH   4   6
ATOM      6  C   UNL     1       3.070   5.919  18.250  0.00  0.00    +0.000 C 
ATOM      7  C   UNL     1       1.930   4.899  18.084  0.00  0.00    +0.000 C 
ATOM      8  C   UNL     1       2.449   3.465  18.070  0.00  0.00    +0.000 C 
ATOM      9  C   UNL     1       3.399   3.263  16.894  0.00  0.00    +0.000 C 
ATOM     10  C   UNL     1       4.482   4.311  16.845  0.00  0.00    +0.000 A 
ATOM     11  C   UNL     1       5.645   4.054  16.103  0.00  0.00    +0.000 A 
ATOM     12  C   UNL     1       6.669   4.998  16.033  0.00  0.00    +0.000 A 
ATOM     13  C   UNL     1       6.552   6.201  16.719  0.00  0.00    +0.000 A 
ATOM     14  C   UNL     1       5.398   6.473  17.449  0.00  0.00    +0.000 A 
ATOM     15  C   UNL     1       4.333   5.553  17.488  0.00  0.00    +0.000 A 
ENDBRANCH   4   6
ENDBRANCH   1   2
BRANCH   1  16
ATOM     16  O   UNL     1       0.261   9.553  17.685  0.00  0.00    +0.000 OA
BRANCH  16  25
ATOM     17  C   UNL     1      -3.600  10.546  16.256  0.00  0.00    +0.000 A 
ATOM     18  C   UNL     1      -4.389  11.386  17.030  0.00  0.00    +0.000 A 
ATOM     19  C   UNL     1      -3.906  11.854  18.254  0.00  0.00    +0.000 A 
ATOM     20  C   UNL     1      -2.650  11.511  18.728  0.00  0.00    +0.000 A 
ATOM     21  N   UNL     1      -2.283  12.000  19.919  0.00  0.00    +0.000 NA
ATOM     22  C   UNL     1      -1.067  11.676  20.403  0.00  0.00    +0.000 A 
ATOM     23  C   UNL     1      -0.709  12.226  21.751  0.00  0.00    +0.000 C 
ATOM     24  C   UNL     1      -0.173  10.867  19.711  0.00  0.00    +0.000 A 
ATOM     25  C   UNL     1      -0.547  10.358  18.465  0.00  0.00    +0.000 A 
ATOM     26  C   UNL     1      -1.828  10.675  17.948  0.00  0.00    +0.000 A 
ATOM     27  C   UNL     1      -2.323  10.201  16.710  0.00  0.00    +0.000 A 
BRANCH  17  29
ATOM     28  C   UNL     1      -2.959  10.015  14.030  0.00  0.00    +0.000 C 
ATOM     29  O   UNL     1      -3.955  10.006  15.048  0.00  0.00    +0.000 OA
ENDBRANCH  17  29
ENDBRANCH  16  25
ENDBRANCH   1  16
TORSDOF 5
ENDMDL
MODEL 2
REMARK VINA RESULT:      -8.3      1.219      2.592
REMARK  Name = 
REMARK  7 active torsions:
REMARK  status: ('A' for Active; 'I' for Inactive)
REMARK    1  A    between atoms: C_1  and  O_2
REMARK    2  A    between atoms: O_2  and  C_3
REMARK    3  A    between atoms: C_8  and  C_9
REMARK    4  A    between atoms: C_11  and  O_12
REMARK    5  A    between atoms: O_12  and  C_13
REMARK    6  A    between atoms: C_13  and  C_14
REMARK    7  A    between atoms: N_16  and  C_17
REMARK                            x       y       z     vdW  Elec       q    Type
REMARK                         _______ _______ _______ _____ _____    ______ ____
ROOT
ATOM      1  C   UNL     1       1.412   9.054  19.281  0.00  0.00    +0.000 C 
ENDROOT
BRANCH   1   2
ATOM      2  C   UNL     1       2.198   8.195  18.282  0.00  0.00    +0.000 C 
ATOM      3  O   UNL     1       2.543   8.639  17.189  0.00  0.00    +0.000 OA
ATOM      4  N   UNL     1       2.458   6.911  18.684  0.00  0.00    +0.000 N 
ATOM      5  H   UNL     1       2.167   6.633  19.617  0.00  0.00    +0.000 HD
BRANCH   4   6
ATOM      6  C   UNL     1       3.206   5.955  17.874  0.00  0.00    +0.000 C 
ATOM      7  C   UNL     1       4.715   6.225  18.014  0.00  0.00    +0.000 C 
ATOM      8  C   UNL     1       5.550   5.026  17.579  0.00  0.00    +0.000 C 
ATOM      9  C   UNL     1       5.232   3.820  18.459  0.00  0.00    +0.000 C 
ATOM     10  C   UNL     1       3.752   3.544  18.541  0.00  0.00    +0.000 A 
ATOM     11  C   UNL     1       3.319   2.275  18.953  0.00  0.00    +0.000 A 
ATOM     12  C   UNL     1       1.958   1.981  19.041  0.00  0.00    +0.000 A 
ATOM     13  C   UNL     1       1.015   2.945  18.702  0.00  0.00    +0.000 A 
ATOM     14  C   UNL     1       1.434   4.212  18.305  0.00  0.00    +0.000 A 
ATOM     15  C   UNL     1       2.801   4.542  18.258  0.00  0.00    +0.000 A 
ENDBRANCH   4   6
ENDBRANCH   1   2
BRANCH   1  16
ATOM     16  O   UNL     1       1.128  10.380  18.843  0.00  0.00    +0.000 OA
BRANCH  16  25
ATOM     17  C   UNL     1      -2.620  10.280  16.874  0.00  0.00    +0.000 A 
ATOM     18  C   UNL     1      -3.686  10.950  17.460  0.00  0.00    +0.000 A 
ATOM     19  C   UNL     1      -3.504  11.609  18.678  0.00  0.00    +0.000 A 
ATOM     20  C   UNL     1      -2.281  11.622  19.329  0.00  0.00    +0.000 A 
ATOM     21  N   UNL     1      -2.209  12.270  20.499  0.00  0.00    +0.000 NA
ATOM     22  C   UNL     1      -1.030  12.292  21.154  0.00  0.00    +0.000 A 
ATOM     23  C   UNL     1      -1.005  13.008  22.471  0.00  0.00    +0.000 C 
ATOM     24  C   UNL     1       0.116  11.684  20.659  0.00  0.00    +0.000 A 
ATOM     25  C   UNL     1       0.051  11.012  19.435  0.00  0.00    +0.000 A 
ATOM     26  C   UNL     1      -1.183  10.964  18.741  0.00  0.00    +0.000 A 
ATOM     27  C   UNL     1      -1.375  10.296  17.508  0.00  0.00    +0.000 A 
BRANCH  17  29
ATOM     28  C   UNL     1      -3.257  10.255  14.585  0.00  0.00    +0.000 C 
ATOM     29  O   UNL     1      -2.666   9.585  15.694  0.00  0.00    +0.000 OA
ENDBRANCH  17  29
ENDBRANCH  16  25
ENDBRANCH   1  16
TORSDOF 5
ENDMDL
MODEL 3
REMARK VINA RESULT:      -8.3      2.049      8.978
REMARK  Name = 
REMARK  7 active torsions:
REMARK  status: ('A' for Active; 'I' for Inactive)
REMARK    1  A    between atoms: C_1  and  O_2
REMARK    2  A    between atoms: O_2  and  C_3
REMARK    3  A    between atoms: C_8  and  C_9
REMARK    4  A    between atoms: C_11  and  O_12
REMARK    5  A    between atoms: O_12  and  C_13
REMARK    6  A    between atoms: C_13  and  C_14
REMARK    7  A    between atoms: N_16  and  C_17
REMARK                            x       y       z     vdW  Elec       q    Type
REMARK                         _______ _______ _______ _____ _____    ______ ____
ROOT
ATOM      1  C   UNL     1       1.829   8.291  19.524  0.00  0.00    +0.000 C 
ENDROOT
BRANCH   1   2
ATOM      2  C   UNL     1       1.176   9.345  18.620  0.00  0.00    +0.000 C 
ATOM      3  O   UNL     1       1.725   9.736  17.593  0.00  0.00    +0.000 OA
ATOM      4  N   UNL     1      -0.032   9.826  19.052  0.00  0.00    +0.000 N 
ATOM      5  H   UNL     1      -0.433   9.425  19.895  0.00  0.00    +0.000 HD
BRANCH   4   6
ATOM      6  C   UNL     1      -0.807  10.819  18.316  0.00  0.00    +0.000 C 
ATOM      7  C   UNL     1      -1.688  10.116  17.267  0.00  0.00    +0.000 C 
ATOM      8  C   UNL     1      -2.826  11.012  16.788  0.00  0.00    +0.000 C 
ATOM      9  C   UNL     1      -3.735  11.374  17.959  0.00  0.00    +0.000 C 
ATOM     10  C   UNL     1      -2.967  11.927  19.132  0.00  0.00    +0.000 A 
ATOM     11  C   UNL     1      -3.652  12.672  20.104  0.00  0.00    +0.000 A 
ATOM     12  C   UNL     1      -2.976  13.201  21.204  0.00  0.00    +0.000 A 
ATOM     13  C   UNL     1      -1.606  13.007  21.336  0.00  0.00    +0.000 A 
ATOM     14  C   UNL     1      -0.918  12.259  20.385  0.00  0.00    +0.000 A 
ATOM     15  C   UNL     1      -1.592  11.675  19.296  0.00  0.00    +0.000 A 
ENDBRANCH   4   6
ENDBRANCH   1   2
BRANCH   1  16
ATOM     16  O   UNL     1       2.883   7.547  18.918  0.00  0.00    +0.000 OA
BRANCH  16  25
ATOM     17  C   UNL     1       5.136   5.163  16.239  0.00  0.00    +0.000 A 
ATOM     18  C   UNL     1       5.039   3.782  16.350  0.00  0.00    +0.000 A 
ATOM     19  C   UNL     1       4.233   3.224  17.344  0.00  0.00    +0.000 A 
ATOM     20  C   UNL     1       3.513   4.007  18.232  0.00  0.00    +0.000 A 
ATOM     21  N   UNL     1       2.780   3.379  19.159  0.00  0.00    +0.000 NA
ATOM     22  C   UNL     1       2.074   4.120  20.037  0.00  0.00    +0.000 A 
ATOM     23  C   UNL     1       1.288   3.371  21.072  0.00  0.00    +0.000 C 
ATOM     24  C   UNL     1       2.066   5.509  20.012  0.00  0.00    +0.000 A 
ATOM     25  C   UNL     1       2.824   6.172  19.043  0.00  0.00    +0.000 A 
ATOM     26  C   UNL     1       3.584   5.410  18.122  0.00  0.00    +0.000 A 
ATOM     27  C   UNL     1       4.405   5.970  17.115  0.00  0.00    +0.000 A 
BRANCH  17  29
ATOM     28  C   UNL     1       6.762   5.049  14.510  0.00  0.00    +0.000 C 
ATOM     29  O   UNL     1       5.898   5.838  15.322  0.00  0.00    +0.000 OA
ENDBRANCH  17  29
ENDBRANCH  16  25
ENDBRANCH   1  16
TORSDOF 5
ENDMDL
MODEL 4
REMARK VINA RESULT:      -8.2      1.999      9.168
REMARK  Name = 
REMARK  7 active torsions:
REMARK  status: ('A' for Active; 'I' for Inactive)
REMARK    1  A    between atoms: C_1  and  O_2
REMARK    2  A    between atoms: O_2  and  C_3
REMARK    3  A    between atoms: C_8  and  C_9
REMARK    4  A    between atoms: C_11  and  O_12
REMARK    5  A    between atoms: O_12  and  C_13
REMARK    6  A    between atoms: C_13  and  C_14
REMARK    7  A    between atoms: N_16  and  C_17
REMARK                            x       y       z     vdW  Elec       q    Type
REMARK                         _______ _______ _______ _____ _____    ______ ____
ROOT
ATOM      1  C   UNL     1       2.077   7.684  19.612  0.00  0.00    +0.000 C 
ENDROOT
BRANCH   1   2
ATOM      2  C   UNL     1       1.573   8.928  18.867  0.00  0.00    +0.000 C 
ATOM      3  O   UNL     1       2.182   9.387  17.904  0.00  0.00    +0.000 OA
ATOM      4  N   UNL     1       0.429   9.491  19.367  0.00  0.00    +0.000 N 
ATOM      5  H   UNL     1      -0.032   9.030  20.146  0.00  0.00    +0.000 HD
BRANCH   4   6
ATOM      6  C   UNL     1      -0.205  10.668  18.781  0.00  0.00    +0.000 C 
ATOM      7  C   UNL     1      -1.232  10.229  17.720  0.00  0.00    +0.000 C 
ATOM      8  C   UNL     1      -2.228  11.338  17.402  0.00  0.00    +0.000 C 
ATOM      9  C   UNL     1      -3.017  11.710  18.654  0.00  0.00    +0.000 C 
ATOM     10  C   UNL     1      -2.120  12.006  19.829  0.00  0.00    +0.000 A 
ATOM     11  C   UNL     1      -2.633  12.740  20.910  0.00  0.00    +0.000 A 
ATOM     12  C   UNL     1      -1.835  13.034  22.015  0.00  0.00    +0.000 A 
ATOM     13  C   UNL     1      -0.510  12.615  22.046  0.00  0.00    +0.000 A 
ATOM     14  C   UNL     1       0.007  11.875  20.986  0.00  0.00    +0.000 A 
ATOM     15  C   UNL     1      -0.799  11.525  19.886  0.00  0.00    +0.000 A 
ENDBRANCH   4   6
ENDBRANCH   1   2
BRANCH   1  16
ATOM     16  O   UNL     1       3.300   7.141  19.120  0.00  0.00    +0.000 OA
BRANCH  16  25
ATOM     17  C   UNL     1       6.474   5.851  16.630  0.00  0.00    +0.000 A 
ATOM     18  C   UNL     1       6.384   4.590  16.055  0.00  0.00    +0.000 A 
ATOM     19  C   UNL     1       5.279   3.782  16.329  0.00  0.00    +0.000 A 
ATOM     20  C   UNL     1       4.252   4.199  17.160  0.00  0.00    +0.000 A 
ATOM     21  N   UNL     1       3.242   3.348  17.373  0.00  0.00    +0.000 NA
ATOM     22  C   UNL     1       2.233   3.730  18.182  0.00  0.00    +0.000 A 
ATOM     23  C   UNL     1       1.137   2.732  18.409  0.00  0.00    +0.000 C 
ATOM     24  C   UNL     1       2.192   4.976  18.794  0.00  0.00    +0.000 A 
ATOM     25  C   UNL     1       3.239   5.874  18.572  0.00  0.00    +0.000 A 
ATOM     26  C   UNL     1       4.316   5.483  17.738  0.00  0.00    +0.000 A 
ATOM     27  C   UNL     1       5.440   6.297  17.459  0.00  0.00    +0.000 A 
BRANCH  17  29
ATOM     28  C   UNL     1       7.686   7.709  17.481  0.00  0.00    +0.000 C 
ATOM     29  O   UNL     1       7.505   6.736  16.457  0.00  0.00    +0.000 OA
ENDBRANCH  17  29
ENDBRANCH  16  25
ENDBRANCH   1  16
TORSDOF 5
ENDMDL
MODEL 5
REMARK VINA RESULT:      -8.1      2.651      9.126
REMARK  Name = 
REMARK  7 active torsions:
REMARK  status: ('A' for Active; 'I' for Inactive)
REMARK    1  A    between atoms: C_1  and  O_2
REMARK    2  A    between atoms: O_2  and  C_3
REMARK    3  A    between atoms: C_8  and  C_9
REMARK    4  A    between atoms: C_11  and  O_12
REMARK    5  A    between atoms: O_12  and  C_13
REMARK    6  A    between atoms: C_13  and  C_14
REMARK    7  A    between atoms: N_16  and  C_17
REMARK                            x       y       z     vdW  Elec       q    Type
REMARK                         _______ _______ _______ _____ _____    ______ ____
ROOT
ATOM      1  C   UNL     1       1.896   8.098  17.790  0.00  0.00    +0.000 C 
ENDROOT
BRANCH   1   2
ATOM      2  C   UNL     1       1.809   9.588  18.146  0.00  0.00    +0.000 C 
ATOM      3  O   UNL     1       2.530  10.420  17.598  0.00  0.00    +0.000 OA
ATOM      4  N   UNL     1       0.904   9.909  19.123  0.00  0.00    +0.000 N 
ATOM      5  H   UNL     1       0.324   9.167  19.501  0.00  0.00    +0.000 HD
BRANCH   4   6
ATOM      6  C   UNL     1       0.673  11.276  19.581  0.00  0.00    +0.000 C 
ATOM      7  C   UNL     1       0.019  12.097  18.455  0.00  0.00    +0.000 C 
ATOM      8  C   UNL     1      -0.649  13.360  18.987  0.00  0.00    +0.000 C 
ATOM      9  C   UNL     1      -1.758  12.992  19.968  0.00  0.00    +0.000 C 
ATOM     10  C   UNL     1      -1.283  12.046  21.042  0.00  0.00    +0.000 A 
ATOM     11  C   UNL     1      -2.028  11.930  22.225  0.00  0.00    +0.000 A 
ATOM     12  C   UNL     1      -1.621  11.067  23.242  0.00  0.00    +0.000 A 
ATOM     13  C   UNL     1      -0.456  10.323  23.097  0.00  0.00    +0.000 A 
ATOM     14  C   UNL     1       0.285  10.420  21.922  0.00  0.00    +0.000 A 
ATOM     15  C   UNL     1      -0.138  11.248  20.865  0.00  0.00    +0.000 A 
ENDBRANCH   4   6
ENDBRANCH   1   2
BRANCH   1  16
ATOM     16  O   UNL     1       2.742   7.324  18.636  0.00  0.00    +0.000 OA
BRANCH  16  25
ATOM     17  C   UNL     1       6.322   6.068  16.756  0.00  0.00    +0.000 A 
ATOM     18  C   UNL     1       6.442   4.730  16.402  0.00  0.00    +0.000 A 
ATOM     19  C   UNL     1       5.405   3.842  16.695  0.00  0.00    +0.000 A 
ATOM     20  C   UNL     1       4.243   4.253  17.328  0.00  0.00    +0.000 A 
ATOM     21  N   UNL     1       3.312   3.324  17.578  0.00  0.00    +0.000 NA
ATOM     22  C   UNL     1       2.175   3.699  18.198  0.00  0.00    +0.000 A 
ATOM     23  C   UNL     1       1.173   2.619  18.478  0.00  0.00    +0.000 C 
ATOM     24  C   UNL     1       1.923   5.012  18.577  0.00  0.00    +0.000 A 
ATOM     25  C   UNL     1       2.887   5.988  18.314  0.00  0.00    +0.000 A 
ATOM     26  C   UNL     1       4.095   5.610  17.678  0.00  0.00    +0.000 A 
ATOM     27  C   UNL     1       5.151   6.505  17.382  0.00  0.00    +0.000 A 
BRANCH  17  29
ATOM     28  C   UNL     1       7.607   7.850  17.660  0.00  0.00    +0.000 C 
ATOM     29  O   UNL     1       7.266   7.037  16.541  0.00  0.00    +0.000 OA
ENDBRANCH  17  29
ENDBRANCH  16  25
ENDBRANCH   1  16
TORSDOF 5
ENDMDL
MODEL 6
REMARK VINA RESULT:      -8.1      2.918      8.995
REMARK  Name = 
REMARK  7 active torsions:
REMARK  status: ('A' for Active; 'I' for Inactive)
REMARK    1  A    between atoms: C_1  and  O_2
REMARK    2  A    between atoms: O_2  and  C_3
REMARK    3  A    between atoms: C_8  and  C_9
REMARK    4  A    between atoms: C_11  and  O_12
REMARK    5  A    between atoms: O_12  and  C_13
REMARK    6  A    between atoms: C_13  and  C_14
REMARK    7  A    between atoms: N_16  and  C_17
REMARK                            x       y       z     vdW  Elec       q    Type
REMARK                         _______ _______ _______ _____ _____    ______ ____
ROOT
ATOM      1  C   UNL     1       1.749   8.740  17.780  0.00  0.00    +0.000 C 
ENDROOT
BRANCH   1   2
ATOM      2  C   UNL     1       1.730  10.186  18.291  0.00  0.00    +0.000 C 
ATOM      3  O   UNL     1       2.573  11.004  17.928  0.00  0.00    +0.000 OA
ATOM      4  N   UNL     1       0.737  10.482  19.188  0.00  0.00    +0.000 N 
ATOM      5  H   UNL     1       0.061   9.758  19.410  0.00  0.00    +0.000 HD
BRANCH   4   6
ATOM      6  C   UNL     1       0.554  11.808  19.769  0.00  0.00    +0.000 C 
ATOM      7  C   UNL     1       0.017  12.775  18.697  0.00  0.00    +0.000 C 
ATOM      8  C   UNL     1      -0.613  14.017  19.317  0.00  0.00    +0.000 C 
ATOM      9  C   UNL     1      -1.799  13.623  20.192  0.00  0.00    +0.000 C 
ATOM     10  C   UNL     1      -1.444  12.549  21.188  0.00  0.00    +0.000 A 
ATOM     11  C   UNL     1      -2.267  12.363  22.310  0.00  0.00    +0.000 A 
ATOM     12  C   UNL     1      -1.972  11.380  23.255  0.00  0.00    +0.000 A 
ATOM     13  C   UNL     1      -0.842  10.584  23.101  0.00  0.00    +0.000 A 
ATOM     14  C   UNL     1      -0.026  10.751  21.985  0.00  0.00    +0.000 A 
ATOM     15  C   UNL     1      -0.336  11.703  20.996  0.00  0.00    +0.000 A 
ENDBRANCH   4   6
ENDBRANCH   1   2
BRANCH   1  16
ATOM     16  O   UNL     1       2.994   8.062  17.933  0.00  0.00    +0.000 OA
BRANCH  16  25
ATOM     17  C   UNL     1       5.475   5.308  15.885  0.00  0.00    +0.000 A 
ATOM     18  C   UNL     1       5.379   3.964  16.222  0.00  0.00    +0.000 A 
ATOM     19  C   UNL     1       4.499   3.564  17.230  0.00  0.00    +0.000 A 
ATOM     20  C   UNL     1       3.704   4.471  17.912  0.00  0.00    +0.000 A 
ATOM     21  N   UNL     1       2.901   3.993  18.870  0.00  0.00    +0.000 NA
ATOM     22  C   UNL     1       2.121   4.857  19.551  0.00  0.00    +0.000 A 
ATOM     23  C   UNL     1       1.259   4.277  20.633  0.00  0.00    +0.000 C 
ATOM     24  C   UNL     1       2.105   6.221  19.290  0.00  0.00    +0.000 A 
ATOM     25  C   UNL     1       2.934   6.727  18.286  0.00  0.00    +0.000 A 
ATOM     26  C   UNL     1       3.773   5.837  17.571  0.00  0.00    +0.000 A 
ATOM     27  C   UNL     1       4.669   6.236  16.551  0.00  0.00    +0.000 A 
BRANCH  17  29
ATOM     28  C   UNL     1       7.020   4.902  14.127  0.00  0.00    +0.000 C 
ATOM     29  O   UNL     1       6.304   5.834  14.930  0.00  0.00    +0.000 OA
ENDBRANCH  17  29
ENDBRANCH  16  25
ENDBRANCH   1  16
TORSDOF 5
ENDMDL
MODEL 7
REMARK VINA RESULT:      -8.1      2.678      9.026
REMARK  Name = 
REMARK  7 active torsions:
REMARK  status: ('A' for Active; 'I' for Inactive)
REMARK    1  A    between atoms: C_1  and  O_2
REMARK    2  A    between atoms: O_2  and  C_3
REMARK    3  A    between atoms: C_8  and  C_9
REMARK    4  A    between atoms: C_11  and  O_12
REMARK    5  A    between atoms: O_12  and  C_13
REMARK    6  A    between atoms: C_13  and  C_14
REMARK    7  A    between atoms: N_16  and  C_17
REMARK                            x       y       z     vdW  Elec       q    Type
REMARK                         _______ _______ _______ _____ _____    ______ ____
ROOT
ATOM      1  C   UNL     1       1.951   7.727  17.765  0.00  0.00    +0.000 C 
ENDROOT
BRANCH   1   2
ATOM      2  C   UNL     1       1.885   9.221  18.107  0.00  0.00    +0.000 C 
ATOM      3  O   UNL     1       2.644  10.032  17.581  0.00  0.00    +0.000 OA
ATOM      4  N   UNL     1       0.952   9.571  19.048  0.00  0.00    +0.000 N 
ATOM      5  H   UNL     1       0.341   8.845  19.409  0.00  0.00    +0.000 HD
BRANCH   4   6
ATOM      6  C   UNL     1       0.736  10.946  19.487  0.00  0.00    +0.000 C 
ATOM      7  C   UNL     1       0.025  11.739  18.376  0.00  0.00    +0.000 C 
ATOM      8  C   UNL     1      -0.624  13.010  18.912  0.00  0.00    +0.000 C 
ATOM      9  C   UNL     1      -1.684  12.659  19.953  0.00  0.00    +0.000 C 
ATOM     10  C   UNL     1      -1.153  11.739  21.023  0.00  0.00    +0.000 A 
ATOM     11  C   UNL     1      -1.841  11.645  22.242  0.00  0.00    +0.000 A 
ATOM     12  C   UNL     1      -1.382  10.805  23.257  0.00  0.00    +0.000 A 
ATOM     13  C   UNL     1      -0.220  10.063  23.072  0.00  0.00    +0.000 A 
ATOM     14  C   UNL     1       0.463  10.138  21.862  0.00  0.00    +0.000 A 
ATOM     15  C   UNL     1      -0.013  10.941  20.809  0.00  0.00    +0.000 A 
ENDBRANCH   4   6
ENDBRANCH   1   2
BRANCH   1  16
ATOM     16  O   UNL     1       2.934   6.986  18.484  0.00  0.00    +0.000 OA
BRANCH  16  25
ATOM     17  C   UNL     1       2.006   2.945  19.344  0.00  0.00    +0.000 A 
ATOM     18  C   UNL     1       2.702   1.954  18.664  0.00  0.00    +0.000 A 
ATOM     19  C   UNL     1       3.658   2.310  17.710  0.00  0.00    +0.000 A 
ATOM     20  C   UNL     1       3.944   3.633  17.417  0.00  0.00    +0.000 A 
ATOM     21  N   UNL     1       4.866   3.874  16.477  0.00  0.00    +0.000 NA
ATOM     22  C   UNL     1       5.159   5.154  16.171  0.00  0.00    +0.000 A 
ATOM     23  C   UNL     1       6.180   5.374  15.094  0.00  0.00    +0.000 C 
ATOM     24  C   UNL     1       4.553   6.235  16.800  0.00  0.00    +0.000 A 
ATOM     25  C   UNL     1       3.594   5.992  17.786  0.00  0.00    +0.000 A 
ATOM     26  C   UNL     1       3.262   4.653  18.110  0.00  0.00    +0.000 A 
ATOM     27  C   UNL     1       2.292   4.286  19.073  0.00  0.00    +0.000 A 
BRANCH  17  29
ATOM     28  C   UNL     1       1.449   2.823  21.650  0.00  0.00    +0.000 C 
ATOM     29  O   UNL     1       1.038   2.734  20.290  0.00  0.00    +0.000 OA
ENDBRANCH  17  29
ENDBRANCH  16  25
ENDBRANCH   1  16
TORSDOF 5
ENDMDL
MODEL 8
REMARK VINA RESULT:      -8.1      1.544      3.544
REMARK  Name = 
REMARK  7 active torsions:
REMARK  status: ('A' for Active; 'I' for Inactive)
REMARK    1  A    between atoms: C_1  and  O_2
REMARK    2  A    between atoms: O_2  and  C_3
REMARK    3  A    between atoms: C_8  and  C_9
REMARK    4  A    between atoms: C_11  and  O_12
REMARK    5  A    between atoms: O_12  and  C_13
REMARK    6  A    between atoms: C_13  and  C_14
REMARK    7  A    between atoms: N_16  and  C_17
REMARK                            x       y       z     vdW  Elec       q    Type
REMARK                         _______ _______ _______ _____ _____    ______ ____
ROOT
ATOM      1  C   UNL     1       1.609   9.294  18.215  0.00  0.00    +0.000 C 
ENDROOT
BRANCH   1   2
ATOM      2  C   UNL     1       2.097   7.967  18.810  0.00  0.00    +0.000 C 
ATOM      3  O   UNL     1       2.060   7.756  20.020  0.00  0.00    +0.000 OA
ATOM      4  N   UNL     1       2.594   7.063  17.908  0.00  0.00    +0.000 N 
ATOM      5  H   UNL     1       2.559   7.302  16.922  0.00  0.00    +0.000 HD
BRANCH   4   6
ATOM      6  C   UNL     1       3.090   5.744  18.288  0.00  0.00    +0.000 C 
ATOM      7  C   UNL     1       1.960   4.707  18.152  0.00  0.00    +0.000 C 
ATOM      8  C   UNL     1       2.500   3.283  18.091  0.00  0.00    +0.000 C 
ATOM      9  C   UNL     1       3.402   3.116  16.872  0.00  0.00    +0.000 C 
ATOM     10  C   UNL     1       4.465   4.183  16.796  0.00  0.00    +0.000 A 
ATOM     11  C   UNL     1       5.599   3.958  16.000  0.00  0.00    +0.000 A 
ATOM     12  C   UNL     1       6.604   4.920  15.904  0.00  0.00    +0.000 A 
ATOM     13  C   UNL     1       6.498   6.110  16.615  0.00  0.00    +0.000 A 
ATOM     14  C   UNL     1       5.371   6.350  17.398  0.00  0.00    +0.000 A 
ATOM     15  C   UNL     1       4.324   5.412  17.466  0.00  0.00    +0.000 A 
ENDBRANCH   4   6
ENDBRANCH   1   2
BRANCH   1  16
ATOM     16  O   UNL     1       0.878  10.125  19.113  0.00  0.00    +0.000 OA
BRANCH  16  25
ATOM     17  C   UNL     1      -1.315  12.788  21.570  0.00  0.00    +0.000 A 
ATOM     18  C   UNL     1      -2.610  13.115  21.189  0.00  0.00    +0.000 A 
ATOM     19  C   UNL     1      -3.139  12.585  20.010  0.00  0.00    +0.000 A 
ATOM     20  C   UNL     1      -2.411  11.730  19.198  0.00  0.00    +0.000 A 
ATOM     21  N   UNL     1      -2.999  11.285  18.081  0.00  0.00    +0.000 NA
ATOM     22  C   UNL     1      -2.309  10.456  17.273  0.00  0.00    +0.000 A 
ATOM     23  C   UNL     1      -3.001  10.005  16.021  0.00  0.00    +0.000 C 
ATOM     24  C   UNL     1      -1.017  10.032  17.557  0.00  0.00    +0.000 A 
ATOM     25  C   UNL     1      -0.398  10.487  18.724  0.00  0.00    +0.000 A 
ATOM     26  C   UNL     1      -1.102  11.372  19.578  0.00  0.00    +0.000 A 
ATOM     27  C   UNL     1      -0.571  11.914  20.772  0.00  0.00    +0.000 A 
BRANCH  17  29
ATOM     28  C   UNL     1      -1.445  14.043  23.583  0.00  0.00    +0.000 C 
ATOM     29  O   UNL     1      -0.673  13.246  22.690  0.00  0.00    +0.000 OA
ENDBRANCH  17  29
ENDBRANCH  16  25
ENDBRANCH   1  16
TORSDOF 5
ENDMDL
MODEL 9
REMARK VINA RESULT:      -8.1      2.363      8.679
REMARK  Name = 
REMARK  7 active torsions:
REMARK  status: ('A' for Active; 'I' for Inactive)
REMARK    1  A    between atoms: C_1  and  O_2
REMARK    2  A    between atoms: O_2  and  C_3
REMARK    3  A    between atoms: C_8  and  C_9
REMARK    4  A    between atoms: C_11  and  O_12
REMARK    5  A    between atoms: O_12  and  C_13
REMARK    6  A    between atoms: C_13  and  C_14
REMARK    7  A    between atoms: N_16  and  C_17
REMARK                            x       y       z     vdW  Elec       q    Type
REMARK                         _______ _______ _______ _____ _____    ______ ____
ROOT
ATOM      1  C   UNL     1       2.013   7.334  20.485  0.00  0.00    +0.000 C 
ENDROOT
BRANCH   1   2
ATOM      2  C   UNL     1       1.140   8.543  20.846  0.00  0.00    +0.000 C 
ATOM      3  O   UNL     1       0.594   8.634  21.943  0.00  0.00    +0.000 OA
ATOM      4  N   UNL     1       0.997   9.482  19.858  0.00  0.00    +0.000 N 
ATOM      5  H   UNL     1       1.509   9.348  18.992  0.00  0.00    +0.000 HD
BRANCH   4   6
ATOM      6  C   UNL     1       0.218  10.705  20.024  0.00  0.00    +0.000 C 
ATOM      7  C   UNL     1       1.162  11.920  20.069  0.00  0.00    +0.000 C 
ATOM      8  C   UNL     1       0.423  13.224  19.788  0.00  0.00    +0.000 C 
ATOM      9  C   UNL     1      -0.189  13.190  18.391  0.00  0.00    +0.000 C 
ATOM     10  C   UNL     1      -1.014  11.950  18.157  0.00  0.00    +0.000 A 
ATOM     11  C   UNL     1      -1.956  11.946  17.116  0.00  0.00    +0.000 A 
ATOM     12  C   UNL     1      -2.739  10.819  16.868  0.00  0.00    +0.000 A 
ATOM     13  C   UNL     1      -2.605   9.690  17.668  0.00  0.00    +0.000 A 
ATOM     14  C   UNL     1      -1.666   9.678  18.696  0.00  0.00    +0.000 A 
ATOM     15  C   UNL     1      -0.832  10.788  18.928  0.00  0.00    +0.000 A 
ENDBRANCH   4   6
ENDBRANCH   1   2
BRANCH   1  16
ATOM     16  O   UNL     1       2.284   7.179  19.095  0.00  0.00    +0.000 OA
BRANCH  16  25
ATOM     17  C   UNL     1       5.662   6.264  16.709  0.00  0.00    +0.000 A 
ATOM     18  C   UNL     1       5.787   4.970  16.219  0.00  0.00    +0.000 A 
ATOM     19  C   UNL     1       4.823   4.012  16.542  0.00  0.00    +0.000 A 
ATOM     20  C   UNL     1       3.731   4.310  17.340  0.00  0.00    +0.000 A 
ATOM     21  N   UNL     1       2.869   3.321  17.605  0.00  0.00    +0.000 NA
ATOM     22  C   UNL     1       1.800   3.586  18.383  0.00  0.00    +0.000 A 
ATOM     23  C   UNL     1       0.876   2.440  18.673  0.00  0.00    +0.000 C 
ATOM     24  C   UNL     1       1.548   4.846  18.910  0.00  0.00    +0.000 A 
ATOM     25  C   UNL     1       2.439   5.886  18.633  0.00  0.00    +0.000 A 
ATOM     26  C   UNL     1       3.576   5.622  17.830  0.00  0.00    +0.000 A 
ATOM     27  C   UNL     1       4.558   6.588  17.502  0.00  0.00    +0.000 A 
BRANCH  17  29
ATOM     28  C   UNL     1       7.522   7.521  17.484  0.00  0.00    +0.000 C 
ATOM     29  O   UNL     1       6.538   7.291  16.481  0.00  0.00    +0.000 OA
ENDBRANCH  17  29
ENDBRANCH  16  25
ENDBRANCH   1  16
TORSDOF 5
ENDMDL
