MODEL 1
REMARK VINA RESULT:      -9.1      0.000      0.000
REMARK  Name = 
REMARK  8 active torsions:
REMARK  status: ('A' for Active; 'I' for Inactive)
REMARK    1  A    between atoms: C_1  and  C_2
REMARK    2  A    between atoms: C_2  and  N_3
REMARK    3  A    between atoms: N_3  and  C_4
REMARK    4  A    between atoms: C_4  and  C_5
REMARK    5  A    between atoms: N_8  and  C_9
REMARK    6  A    between atoms: C_9  and  C_10
REMARK    7  A    between atoms: C_19  and  C_21
REMARK    8  A    between atoms: C_24  and  C_25
REMARK                            x       y       z     vdW  Elec       q    Type
REMARK                         _______ _______ _______ _____ _____    ______ ____
ROOT
ATOM      1  N   UNL     1       2.852   4.137  20.127  0.00  0.00    +0.000 N 
ATOM      2  C   UNL     1       4.074   3.596  19.612  0.00  0.00    +0.000 C 
ATOM      3  O   UNL     1       4.699   2.752  20.268  0.00  0.00    +0.000 OA
ENDROOT
BRANCH   2   4
ATOM      4  C   UNL     1       4.709   3.946  18.286  0.00  0.00    +0.000 A 
ATOM      5  C   UNL     1       6.006   4.427  18.105  0.00  0.00    +0.000 A 
ATOM      6  C   UNL     1       6.531   4.669  16.821  0.00  0.00    +0.000 A 
ATOM      7  C   UNL     1       5.845   4.319  15.649  0.00  0.00    +0.000 A 
ATOM      8  C   UNL     1       4.575   3.751  15.831  0.00  0.00    +0.000 A 
ATOM      9  C   UNL     1       4.015   3.585  17.120  0.00  0.00    +0.000 A 
BRANCH   7  10
ATOM     10  C   UNL     1       6.463   4.485  14.321  0.00  0.00    +0.000 A 
ATOM     11  C   UNL     1       5.967   3.821  13.171  0.00  0.00    +0.000 A 
ATOM     12  C   UNL     1       6.553   3.947  11.907  0.00  0.00    +0.000 A 
ATOM     13  C   UNL     1       7.684   4.737  11.748  0.00  0.00    +0.000 A 
ATOM     14  C   UNL     1       8.202   5.430  12.850  0.00  0.00    +0.000 A 
ATOM     15  C   UNL     1       7.609   5.306  14.106  0.00  0.00    +0.000 A 
ENDBRANCH   7  10
ENDBRANCH   2   4
BRANCH   1  17
ATOM     16  C   UNL     1       1.284   2.823  21.915  0.00  0.00    +0.000 C 
ATOM     17  C   UNL     1       2.527   3.635  21.502  0.00  0.00    +0.000 C 
ENDBRANCH   1  17
BRANCH   1  18
ATOM     18  C   UNL     1       2.066   5.183  19.435  0.00  0.00    +0.000 C 
BRANCH  18  19
ATOM     19  C   UNL     1       2.496   6.640  19.678  0.00  0.00    +0.000 C 
ATOM     20  C   UNL     1       1.656   7.348  20.734  0.00  0.00    +0.000 C 
ATOM     21  C   UNL     1       1.259   8.797  20.464  0.00  0.00    +0.000 C 
ATOM     22  N   UNL     1       1.262   9.225  19.087  0.00  0.00    +0.000 NA
ATOM     23  C   UNL     1       2.240   8.757  18.150  0.00  0.00    +0.000 C 
ATOM     24  C   UNL     1       2.613   7.307  18.292  0.00  0.00    +0.000 C 
BRANCH  22  25
ATOM     25  C   UNL     1       0.739  10.549  18.777  0.00  0.00    +0.000 C 
BRANCH  25  26
ATOM     26  C   UNL     1      -0.726  10.654  18.420  0.00  0.00    +0.000 A 
ATOM     27  C   UNL     1      -1.330   9.809  17.476  0.00  0.00    +0.000 A 
ATOM     28  C   UNL     1      -2.691   9.939  17.180  0.00  0.00    +0.000 A 
ATOM     29  C   UNL     1      -3.453  10.907  17.832  0.00  0.00    +0.000 A 
ATOM     30 CL   UNL     1      -5.120  11.093  17.446  0.00  0.00    +0.000 Cl
ATOM     31  C   UNL     1      -2.875  11.735  18.789  0.00  0.00    +0.000 A 
ATOM     32  C   UNL     1      -1.517  11.607  19.081  0.00  0.00    +0.000 A 
ENDBRANCH  25  26
ENDBRANCH  22  25
ENDBRANCH  18  19
ENDBRANCH   1  18
TORSDOF 7
ENDMDL
MODEL 2
REMARK VINA RESULT:      -8.8      0.320      1.221
REMARK  Name = 
REMARK  8 active torsions:
REMARK  status: ('A' for Active; 'I' for Inactive)
REMARK    1  A    between atoms: C_1  and  C_2
REMARK    2  A    between atoms: C_2  and  N_3
REMARK    3  A    between atoms: N_3  and  C_4
REMARK    4  A    between atoms: C_4  and  C_5
REMARK    5  A    between atoms: N_8  and  C_9
REMARK    6  A    between atoms: C_9  and  C_10
REMARK    7  A    between atoms: C_19  and  C_21
REMARK    8  A    between atoms: C_24  and  C_25
REMARK                            x       y       z     vdW  Elec       q    Type
REMARK                         _______ _______ _______ _____ _____    ______ ____
ROOT
ATOM      1  N   UNL     1       2.608   4.151  20.156  0.00  0.00    +0.000 N 
ATOM      2  C   UNL     1       3.752   3.403  19.726  0.00  0.00    +0.000 C 
ATOM      3  O   UNL     1       4.263   2.568  20.485  0.00  0.00    +0.000 OA
ENDROOT
BRANCH   2   4
ATOM      4  C   UNL     1       4.427   3.513  18.380  0.00  0.00    +0.000 A 
ATOM      5  C   UNL     1       3.996   2.907  17.199  0.00  0.00    +0.000 A 
ATOM      6  C   UNL     1       4.660   3.117  15.975  0.00  0.00    +0.000 A 
ATOM      7  C   UNL     1       5.703   4.045  15.834  0.00  0.00    +0.000 A 
ATOM      8  C   UNL     1       6.079   4.723  17.004  0.00  0.00    +0.000 A 
ATOM      9  C   UNL     1       5.466   4.450  18.249  0.00  0.00    +0.000 A 
BRANCH   7  10
ATOM     10  C   UNL     1       6.308   4.323  14.520  0.00  0.00    +0.000 A 
ATOM     11  C   UNL     1       5.855   3.694  13.334  0.00  0.00    +0.000 A 
ATOM     12  C   UNL     1       6.433   3.927  12.080  0.00  0.00    +0.000 A 
ATOM     13  C   UNL     1       7.511   4.795  11.969  0.00  0.00    +0.000 A 
ATOM     14  C   UNL     1       7.984   5.456  13.109  0.00  0.00    +0.000 A 
ATOM     15  C   UNL     1       7.400   5.225  14.355  0.00  0.00    +0.000 A 
ENDBRANCH   7  10
ENDBRANCH   2   4
BRANCH   1  17
ATOM     16  C   UNL     1       1.356   2.681  22.066  0.00  0.00    +0.000 C 
ATOM     17  C   UNL     1       2.220   3.858  21.574  0.00  0.00    +0.000 C 
ENDBRANCH   1  17
BRANCH   1  18
ATOM     18  C   UNL     1       1.963   5.200  19.335  0.00  0.00    +0.000 C 
BRANCH  18  19
ATOM     19  C   UNL     1       2.419   6.648  19.588  0.00  0.00    +0.000 C 
ATOM     20  C   UNL     1       1.597   7.360  20.655  0.00  0.00    +0.000 C 
ATOM     21  C   UNL     1       1.223   8.818  20.401  0.00  0.00    +0.000 C 
ATOM     22  N   UNL     1       1.223   9.258  19.028  0.00  0.00    +0.000 NA
ATOM     23  C   UNL     1       2.187   8.782  18.079  0.00  0.00    +0.000 C 
ATOM     24  C   UNL     1       2.537   7.325  18.206  0.00  0.00    +0.000 C 
BRANCH  22  25
ATOM     25  C   UNL     1       0.719  10.592  18.733  0.00  0.00    +0.000 C 
BRANCH  25  26
ATOM     26  C   UNL     1      -0.765  10.741  18.489  0.00  0.00    +0.000 A 
ATOM     27  C   UNL     1      -1.540  11.706  19.151  0.00  0.00    +0.000 A 
ATOM     28  C   UNL     1      -2.911  11.810  18.890  0.00  0.00    +0.000 A 
ATOM     29  C   UNL     1      -3.508  10.958  17.963  0.00  0.00    +0.000 A 
ATOM     30 CL   UNL     1      -5.199  11.061  17.664  0.00  0.00    +0.000 Cl
ATOM     31  C   UNL     1      -2.747  10.014  17.279  0.00  0.00    +0.000 A 
ATOM     32  C   UNL     1      -1.382   9.908  17.542  0.00  0.00    +0.000 A 
ENDBRANCH  25  26
ENDBRANCH  22  25
ENDBRANCH  18  19
ENDBRANCH   1  18
TORSDOF 7
ENDMDL
MODEL 3
REMARK VINA RESULT:      -8.6      3.832      4.960
REMARK  Name = 
REMARK  8 active torsions:
REMARK  status: ('A' for Active; 'I' for Inactive)
REMARK    1  A    between atoms: C_1  and  C_2
REMARK    2  A    between atoms: C_2  and  N_3
REMARK    3  A    between atoms: N_3  and  C_4
REMARK    4  A    between atoms: C_4  and  C_5
REMARK    5  A    between atoms: N_8  and  C_9
REMARK    6  A    between atoms: C_9  and  C_10
REMARK    7  A    between atoms: C_19  and  C_21
REMARK    8  A    between atoms: C_24  and  C_25
REMARK                            x       y       z     vdW  Elec       q    Type
REMARK                         _______ _______ _______ _____ _____    ______ ____
ROOT
ATOM      1  N   UNL     1       4.758   4.817  18.222  0.00  0.00    +0.000 N 
ATOM      2  C   UNL     1       6.001   5.096  17.567  0.00  0.00    +0.000 C 
ATOM      3  O   UNL     1       6.475   4.277  16.768  0.00  0.00    +0.000 OA
ENDROOT
BRANCH   2   4
ATOM      4  C   UNL     1       6.832   6.347  17.739  0.00  0.00    +0.000 A 
ATOM      5  C   UNL     1       6.592   7.576  17.124  0.00  0.00    +0.000 A 
ATOM      6  C   UNL     1       7.389   8.705  17.394  0.00  0.00    +0.000 A 
ATOM      7  C   UNL     1       8.379   8.708  18.388  0.00  0.00    +0.000 A 
ATOM      8  C   UNL     1       8.560   7.495  19.072  0.00  0.00    +0.000 A 
ATOM      9  C   UNL     1       7.815   6.339  18.742  0.00  0.00    +0.000 A 
BRANCH   7  10
ATOM     10  C   UNL     1       9.125   9.933  18.723  0.00  0.00    +0.000 A 
ATOM     11  C   UNL     1       9.691  10.767  17.727  0.00  0.00    +0.000 A 
ATOM     12  C   UNL     1      10.422  11.922  18.026  0.00  0.00    +0.000 A 
ATOM     13  C   UNL     1      10.634  12.280  19.351  0.00  0.00    +0.000 A 
ATOM     14  C   UNL     1      10.079  11.498  20.373  0.00  0.00    +0.000 A 
ATOM     15  C   UNL     1       9.345  10.352  20.068  0.00  0.00    +0.000 A 
ENDBRANCH   7  10
ENDBRANCH   2   4
BRANCH   1  17
ATOM     16  C   UNL     1       2.785   3.128  17.426  0.00  0.00    +0.000 C 
ATOM     17  C   UNL     1       4.217   3.459  17.888  0.00  0.00    +0.000 C 
ENDBRANCH   1  17
BRANCH   1  18
ATOM     18  C   UNL     1       4.143   5.715  19.224  0.00  0.00    +0.000 C 
BRANCH  18  19
ATOM     19  C   UNL     1       2.808   6.373  18.831  0.00  0.00    +0.000 C 
ATOM     20  C   UNL     1       2.962   7.468  17.783  0.00  0.00    +0.000 C 
ATOM     21  C   UNL     1       2.129   8.735  17.959  0.00  0.00    +0.000 C 
ATOM     22  N   UNL     1       1.661   9.024  19.293  0.00  0.00    +0.000 NA
ATOM     23  C   UNL     1       1.252   7.986  20.194  0.00  0.00    +0.000 C 
ATOM     24  C   UNL     1       2.088   6.737  20.146  0.00  0.00    +0.000 C 
BRANCH  22  25
ATOM     25  C   UNL     1       1.001  10.300  19.528  0.00  0.00    +0.000 C 
BRANCH  25  26
ATOM     26  C   UNL     1      -0.353  10.515  18.891  0.00  0.00    +0.000 A 
ATOM     27  C   UNL     1      -0.788   9.766  17.786  0.00  0.00    +0.000 A 
ATOM     28  C   UNL     1      -2.052   9.995  17.232  0.00  0.00    +0.000 A 
ATOM     29  C   UNL     1      -2.886  10.965  17.785  0.00  0.00    +0.000 A 
ATOM     30 CL   UNL     1      -4.428  11.274  17.085  0.00  0.00    +0.000 Cl
ATOM     31  C   UNL     1      -2.480  11.697  18.897  0.00  0.00    +0.000 A 
ATOM     32  C   UNL     1      -1.219  11.471  19.446  0.00  0.00    +0.000 A 
ENDBRANCH  25  26
ENDBRANCH  22  25
ENDBRANCH  18  19
ENDBRANCH   1  18
TORSDOF 7
ENDMDL
MODEL 4
REMARK VINA RESULT:      -8.4      3.939      5.036
REMARK  Name = 
REMARK  8 active torsions:
REMARK  status: ('A' for Active; 'I' for Inactive)
REMARK    1  A    between atoms: C_1  and  C_2
REMARK    2  A    between atoms: C_2  and  N_3
REMARK    3  A    between atoms: N_3  and  C_4
REMARK    4  A    between atoms: C_4  and  C_5
REMARK    5  A    between atoms: N_8  and  C_9
REMARK    6  A    between atoms: C_9  and  C_10
REMARK    7  A    between atoms: C_19  and  C_21
REMARK    8  A    between atoms: C_24  and  C_25
REMARK                            x       y       z     vdW  Elec       q    Type
REMARK                         _______ _______ _______ _____ _____    ______ ____
ROOT
ATOM      1  N   UNL     1       4.819   4.851  17.924  0.00  0.00    +0.000 N 
ATOM      2  C   UNL     1       6.091   5.274  17.419  0.00  0.00    +0.000 C 
ATOM      3  O   UNL     1       6.640   4.631  16.514  0.00  0.00    +0.000 OA
ENDROOT
BRANCH   2   4
ATOM      4  C   UNL     1       6.869   6.484  17.880  0.00  0.00    +0.000 A 
ATOM      5  C   UNL     1       7.916   6.478  18.802  0.00  0.00    +0.000 A 
ATOM      6  C   UNL     1       8.623   7.652  19.125  0.00  0.00    +0.000 A 
ATOM      7  C   UNL     1       8.417   8.865  18.450  0.00  0.00    +0.000 A 
ATOM      8  C   UNL     1       7.425   8.850  17.457  0.00  0.00    +0.000 A 
ATOM      9  C   UNL     1       6.659   7.691  17.192  0.00  0.00    +0.000 A 
BRANCH   7  10
ATOM     10  C   UNL     1       9.245  10.050  18.734  0.00  0.00    +0.000 A 
ATOM     11  C   UNL     1       9.505  10.488  20.057  0.00  0.00    +0.000 A 
ATOM     12  C   UNL     1      10.269  11.624  20.346  0.00  0.00    +0.000 A 
ATOM     13  C   UNL     1      10.792  12.386  19.309  0.00  0.00    +0.000 A 
ATOM     14  C   UNL     1      10.579  11.984  17.984  0.00  0.00    +0.000 A 
ATOM     15  C   UNL     1       9.822  10.847  17.702  0.00  0.00    +0.000 A 
ENDBRANCH   7  10
ENDBRANCH   2   4
BRANCH   1  17
ATOM     16  C   UNL     1       3.452   2.503  17.968  0.00  0.00    +0.000 C 
ATOM     17  C   UNL     1       4.344   3.571  17.305  0.00  0.00    +0.000 C 
ENDBRANCH   1  17
BRANCH   1  18
ATOM     18  C   UNL     1       4.114   5.530  19.034  0.00  0.00    +0.000 C 
BRANCH  18  19
ATOM     19  C   UNL     1       2.805   6.255  18.675  0.00  0.00    +0.000 C 
ATOM     20  C   UNL     1       2.976   7.299  17.578  0.00  0.00    +0.000 C 
ATOM     21  C   UNL     1       2.232   8.621  17.740  0.00  0.00    +0.000 C 
ATOM     22  N   UNL     1       1.846   8.989  19.081  0.00  0.00    +0.000 NA
ATOM     23  C   UNL     1       1.417   8.014  20.040  0.00  0.00    +0.000 C 
ATOM     24  C   UNL     1       2.171   6.714  20.005  0.00  0.00    +0.000 C 
BRANCH  22  25
ATOM     25  C   UNL     1       1.277  10.313  19.294  0.00  0.00    +0.000 C 
BRANCH  25  26
ATOM     26  C   UNL     1      -0.149  10.541  18.847  0.00  0.00    +0.000 A 
ATOM     27  C   UNL     1      -0.714   9.850  17.764  0.00  0.00    +0.000 A 
ATOM     28  C   UNL     1      -2.040  10.089  17.389  0.00  0.00    +0.000 A 
ATOM     29  C   UNL     1      -2.806  11.012  18.099  0.00  0.00    +0.000 A 
ATOM     30 CL   UNL     1      -4.428  11.334  17.619  0.00  0.00    +0.000 Cl
ATOM     31  C   UNL     1      -2.268  11.685  19.192  0.00  0.00    +0.000 A 
ATOM     32  C   UNL     1      -0.945  11.449  19.563  0.00  0.00    +0.000 A 
ENDBRANCH  25  26
ENDBRANCH  22  25
ENDBRANCH  18  19
ENDBRANCH   1  18
TORSDOF 7
ENDMDL
MODEL 5
REMARK VINA RESULT:      -8.2      3.890      5.061
REMARK  Name = 
REMARK  8 active torsions:
REMARK  status: ('A' for Active; 'I' for Inactive)
REMARK    1  A    between atoms: C_1  and  C_2
REMARK    2  A    between atoms: C_2  and  N_3
REMARK    3  A    between atoms: N_3  and  C_4
REMARK    4  A    between atoms: C_4  and  C_5
REMARK    5  A    between atoms: N_8  and  C_9
REMARK    6  A    between atoms: C_9  and  C_10
REMARK    7  A    between atoms: C_19  and  C_21
REMARK    8  A    between atoms: C_24  and  C_25
REMARK                            x       y       z     vdW  Elec       q    Type
REMARK                         _______ _______ _______ _____ _____    ______ ____
ROOT
ATOM      1  N   UNL     1       4.763   4.842  18.210  0.00  0.00    +0.000 N 
ATOM      2  C   UNL     1       5.987   5.147  17.530  0.00  0.00    +0.000 C 
ATOM      3  O   UNL     1       6.436   4.359  16.687  0.00  0.00    +0.000 OA
ENDROOT
BRANCH   2   4
ATOM      4  C   UNL     1       6.823   6.389  17.727  0.00  0.00    +0.000 A 
ATOM      5  C   UNL     1       6.586   7.633  17.141  0.00  0.00    +0.000 A 
ATOM      6  C   UNL     1       7.388   8.752  17.433  0.00  0.00    +0.000 A 
ATOM      7  C   UNL     1       8.383   8.729  18.422  0.00  0.00    +0.000 A 
ATOM      8  C   UNL     1       8.563   7.501  19.077  0.00  0.00    +0.000 A 
ATOM      9  C   UNL     1       7.811   6.355  18.725  0.00  0.00    +0.000 A 
BRANCH   7  10
ATOM     10  C   UNL     1       9.135   9.943  18.781  0.00  0.00    +0.000 A 
ATOM     11  C   UNL     1       9.316  10.347  20.128  0.00  0.00    +0.000 A 
ATOM     12  C   UNL     1      10.007  11.510  20.488  0.00  0.00    +0.000 A 
ATOM     13  C   UNL     1      10.532  12.333  19.501  0.00  0.00    +0.000 A 
ATOM     14  C   UNL     1      10.397  11.968  18.155  0.00  0.00    +0.000 A 
ATOM     15  C   UNL     1       9.714  10.804  17.802  0.00  0.00    +0.000 A 
ENDBRANCH   7  10
ENDBRANCH   2   4
BRANCH   1  17
ATOM     16  C   UNL     1       3.680   2.423  18.807  0.00  0.00    +0.000 C 
ATOM     17  C   UNL     1       4.211   3.497  17.839  0.00  0.00    +0.000 C 
ENDBRANCH   1  17
BRANCH   1  18
ATOM     18  C   UNL     1       4.178   5.701  19.264  0.00  0.00    +0.000 C 
BRANCH  18  19
ATOM     19  C   UNL     1       2.813   6.339  18.951  0.00  0.00    +0.000 C 
ATOM     20  C   UNL     1       2.902   7.501  17.970  0.00  0.00    +0.000 C 
ATOM     21  C   UNL     1       2.037   8.727  18.249  0.00  0.00    +0.000 C 
ATOM     22  N   UNL     1       1.602   8.918  19.611  0.00  0.00    +0.000 NA
ATOM     23  C   UNL     1       1.252   7.815  20.456  0.00  0.00    +0.000 C 
ATOM     24  C   UNL     1       2.123   6.598  20.306  0.00  0.00    +0.000 C 
BRANCH  22  25
ATOM     25  C   UNL     1       0.912  10.156  19.945  0.00  0.00    +0.000 C 
BRANCH  25  26
ATOM     26  C   UNL     1      -0.272  10.549  19.091  0.00  0.00    +0.000 A 
ATOM     27  C   UNL     1      -0.456  11.860  18.623  0.00  0.00    +0.000 A 
ATOM     28  C   UNL     1      -1.565  12.176  17.831  0.00  0.00    +0.000 A 
ATOM     29  C   UNL     1      -2.485  11.185  17.497  0.00  0.00    +0.000 A 
ATOM     30 CL   UNL     1      -3.868  11.578  16.550  0.00  0.00    +0.000 Cl
ATOM     31  C   UNL     1      -2.301   9.875  17.931  0.00  0.00    +0.000 A 
ATOM     32  C   UNL     1      -1.199   9.561  18.724  0.00  0.00    +0.000 A 
ENDBRANCH  25  26
ENDBRANCH  22  25
ENDBRANCH  18  19
ENDBRANCH   1  18
TORSDOF 7
ENDMDL
MODEL 6
REMARK VINA RESULT:      -8.1      4.010      5.282
REMARK  Name = 
REMARK  8 active torsions:
REMARK  status: ('A' for Active; 'I' for Inactive)
REMARK    1  A    between atoms: C_1  and  C_2
REMARK    2  A    between atoms: C_2  and  N_3
REMARK    3  A    between atoms: N_3  and  C_4
REMARK    4  A    between atoms: C_4  and  C_5
REMARK    5  A    between atoms: N_8  and  C_9
REMARK    6  A    between atoms: C_9  and  C_10
REMARK    7  A    between atoms: C_19  and  C_21
REMARK    8  A    between atoms: C_24  and  C_25
REMARK                            x       y       z     vdW  Elec       q    Type
REMARK                         _______ _______ _______ _____ _____    ______ ____
ROOT
ATOM      1  N   UNL     1       4.922   4.426  17.999  0.00  0.00    +0.000 N 
ATOM      2  C   UNL     1       6.084   4.994  17.382  0.00  0.00    +0.000 C 
ATOM      3  O   UNL     1       6.562   4.468  16.367  0.00  0.00    +0.000 OA
ENDROOT
BRANCH   2   4
ATOM      4  C   UNL     1       6.818   6.230  17.844  0.00  0.00    +0.000 A 
ATOM      5  C   UNL     1       7.867   6.259  18.764  0.00  0.00    +0.000 A 
ATOM      6  C   UNL     1       8.531   7.457  19.089  0.00  0.00    +0.000 A 
ATOM      7  C   UNL     1       8.279   8.664  18.419  0.00  0.00    +0.000 A 
ATOM      8  C   UNL     1       7.285   8.616  17.429  0.00  0.00    +0.000 A 
ATOM      9  C   UNL     1       6.562   7.430  17.161  0.00  0.00    +0.000 A 
BRANCH   7  10
ATOM     10  C   UNL     1       9.064   9.878  18.705  0.00  0.00    +0.000 A 
ATOM     11  C   UNL     1       9.627  10.671  17.674  0.00  0.00    +0.000 A 
ATOM     12  C   UNL     1      10.395  11.814  17.926  0.00  0.00    +0.000 A 
ATOM     13  C   UNL     1      10.647  12.199  19.236  0.00  0.00    +0.000 A 
ATOM     14  C   UNL     1      10.096  11.459  20.290  0.00  0.00    +0.000 A 
ATOM     15  C   UNL     1       9.326  10.325  20.033  0.00  0.00    +0.000 A 
ENDBRANCH   7  10
ENDBRANCH   2   4
BRANCH   1  17
ATOM     16  C   UNL     1       3.380   2.195  17.840  0.00  0.00    +0.000 C 
ATOM     17  C   UNL     1       4.472   3.158  17.337  0.00  0.00    +0.000 C 
ENDBRANCH   1  17
BRANCH   1  18
ATOM     18  C   UNL     1       4.313   4.959  19.238  0.00  0.00    +0.000 C 
BRANCH  18  19
ATOM     19  C   UNL     1       2.927   5.612  19.096  0.00  0.00    +0.000 C 
ATOM     20  C   UNL     1       2.987   7.050  18.593  0.00  0.00    +0.000 C 
ATOM     21  C   UNL     1       2.046   8.063  19.238  0.00  0.00    +0.000 C 
ATOM     22  N   UNL     1       1.551   7.743  20.554  0.00  0.00    +0.000 NA
ATOM     23  C   UNL     1       1.232   6.399  20.938  0.00  0.00    +0.000 C 
ATOM     24  C   UNL     1       2.174   5.349  20.417  0.00  0.00    +0.000 C 
BRANCH  22  25
ATOM     25  C   UNL     1       0.781   8.754  21.264  0.00  0.00    +0.000 C 
BRANCH  25  26
ATOM     26  C   UNL     1       0.493  10.050  20.540  0.00  0.00    +0.000 A 
ATOM     27  C   UNL     1       1.169  11.242  20.841  0.00  0.00    +0.000 A 
ATOM     28  C   UNL     1       0.873  12.417  20.140  0.00  0.00    +0.000 A 
ATOM     29  C   UNL     1      -0.091  12.400  19.134  0.00  0.00    +0.000 A 
ATOM     30 CL   UNL     1      -0.481  13.851  18.293  0.00  0.00    +0.000 Cl
ATOM     31  C   UNL     1      -0.750  11.219  18.806  0.00  0.00    +0.000 A 
ATOM     32  C   UNL     1      -0.458  10.050  19.507  0.00  0.00    +0.000 A 
ENDBRANCH  25  26
ENDBRANCH  22  25
ENDBRANCH  18  19
ENDBRANCH   1  18
TORSDOF 7
ENDMDL
MODEL 7
REMARK VINA RESULT:      -8.0      2.350      3.304
REMARK  Name = 
REMARK  8 active torsions:
REMARK  status: ('A' for Active; 'I' for Inactive)
REMARK    1  A    between atoms: C_1  and  C_2
REMARK    2  A    between atoms: C_2  and  N_3
REMARK    3  A    between atoms: N_3  and  C_4
REMARK    4  A    between atoms: C_4  and  C_5
REMARK    5  A    between atoms: N_8  and  C_9
REMARK    6  A    between atoms: C_9  and  C_10
REMARK    7  A    between atoms: C_19  and  C_21
REMARK    8  A    between atoms: C_24  and  C_25
REMARK                            x       y       z     vdW  Elec       q    Type
REMARK                         _______ _______ _______ _____ _____    ______ ____
ROOT
ATOM      1  N   UNL     1       2.691   4.287  20.014  0.00  0.00    +0.000 N 
ATOM      2  C   UNL     1       3.823   3.514  19.596  0.00  0.00    +0.000 C 
ATOM      3  O   UNL     1       4.323   2.686  20.369  0.00  0.00    +0.000 OA
ENDROOT
BRANCH   2   4
ATOM      4  C   UNL     1       4.497   3.590  18.247  0.00  0.00    +0.000 A 
ATOM      5  C   UNL     1       3.986   3.087  17.050  0.00  0.00    +0.000 A 
ATOM      6  C   UNL     1       4.661   3.259  15.827  0.00  0.00    +0.000 A 
ATOM      7  C   UNL     1       5.811   4.055  15.707  0.00  0.00    +0.000 A 
ATOM      8  C   UNL     1       6.276   4.637  16.897  0.00  0.00    +0.000 A 
ATOM      9  C   UNL     1       5.643   4.395  18.138  0.00  0.00    +0.000 A 
BRANCH   7  10
ATOM     10  C   UNL     1       6.436   4.305  14.397  0.00  0.00    +0.000 A 
ATOM     11  C   UNL     1       7.460   5.269  14.223  0.00  0.00    +0.000 A 
ATOM     12  C   UNL     1       8.050   5.538  12.983  0.00  0.00    +0.000 A 
ATOM     13  C   UNL     1       7.619   4.857  11.852  0.00  0.00    +0.000 A 
ATOM     14  C   UNL     1       6.622   3.880  11.975  0.00  0.00    +0.000 A 
ATOM     15  C   UNL     1       6.043   3.611  13.215  0.00  0.00    +0.000 A 
ENDBRANCH   7  10
ENDBRANCH   2   4
BRANCH   1  17
ATOM     16  C   UNL     1       1.494   2.823  21.964  0.00  0.00    +0.000 C 
ATOM     17  C   UNL     1       2.302   4.024  21.439  0.00  0.00    +0.000 C 
ENDBRANCH   1  17
BRANCH   1  18
ATOM     18  C   UNL     1       2.059   5.330  19.176  0.00  0.00    +0.000 C 
BRANCH  18  19
ATOM     19  C   UNL     1       2.465   6.785  19.468  0.00  0.00    +0.000 C 
ATOM     20  C   UNL     1       1.613   7.443  20.547  0.00  0.00    +0.000 C 
ATOM     21  C   UNL     1       1.191   8.893  20.326  0.00  0.00    +0.000 C 
ATOM     22  N   UNL     1       1.187   9.367  18.964  0.00  0.00    +0.000 NA
ATOM     23  C   UNL     1       2.172   8.947  18.012  0.00  0.00    +0.000 C 
ATOM     24  C   UNL     1       2.570   7.500  18.105  0.00  0.00    +0.000 C 
BRANCH  22  25
ATOM     25  C   UNL     1       0.640  10.691  18.699  0.00  0.00    +0.000 C 
BRANCH  25  26
ATOM     26  C   UNL     1       1.483  11.885  19.087  0.00  0.00    +0.000 A 
ATOM     27  C   UNL     1       1.501  12.395  20.394  0.00  0.00    +0.000 A 
ATOM     28  C   UNL     1       2.300  13.500  20.709  0.00  0.00    +0.000 A 
ATOM     29  C   UNL     1       3.088  14.090  19.722  0.00  0.00    +0.000 A 
ATOM     30 CL   UNL     1       4.046  15.470  20.098  0.00  0.00    +0.000 Cl
ATOM     31  C   UNL     1       3.100  13.579  18.428  0.00  0.00    +0.000 A 
ATOM     32  C   UNL     1       2.301  12.481  18.114  0.00  0.00    +0.000 A 
ENDBRANCH  25  26
ENDBRANCH  22  25
ENDBRANCH  18  19
ENDBRANCH   1  18
TORSDOF 7
ENDMDL
MODEL 8
REMARK VINA RESULT:      -8.0      4.498      5.814
REMARK  Name = 
REMARK  8 active torsions:
REMARK  status: ('A' for Active; 'I' for Inactive)
REMARK    1  A    between atoms: C_1  and  C_2
REMARK    2  A    between atoms: C_2  and  N_3
REMARK    3  A    between atoms: N_3  and  C_4
REMARK    4  A    between atoms: C_4  and  C_5
REMARK    5  A    between atoms: N_8  and  C_9
REMARK    6  A    between atoms: C_9  and  C_10
REMARK    7  A    between atoms: C_19  and  C_21
REMARK    8  A    between atoms: C_24  and  C_25
REMARK                            x       y       z     vdW  Elec       q    Type
REMARK                         _______ _______ _______ _____ _____    ______ ____
ROOT
ATOM      1  N   UNL     1       4.599   5.067  18.343  0.00  0.00    +0.000 N 
ATOM      2  C   UNL     1       5.857   5.274  17.690  0.00  0.00    +0.000 C 
ATOM      3  O   UNL     1       6.304   4.409  16.924  0.00  0.00    +0.000 OA
ENDROOT
BRANCH   2   4
ATOM      4  C   UNL     1       6.736   6.495  17.827  0.00  0.00    +0.000 A 
ATOM      5  C   UNL     1       6.494   7.742  17.250  0.00  0.00    +0.000 A 
ATOM      6  C   UNL     1       7.341   8.842  17.484  0.00  0.00    +0.000 A 
ATOM      7  C   UNL     1       8.395   8.797  18.409  0.00  0.00    +0.000 A 
ATOM      8  C   UNL     1       8.585   7.567  19.059  0.00  0.00    +0.000 A 
ATOM      9  C   UNL     1       7.783   6.440  18.761  0.00  0.00    +0.000 A 
BRANCH   7  10
ATOM     10  C   UNL     1       9.200   9.993  18.714  0.00  0.00    +0.000 A 
ATOM     11  C   UNL     1       9.396  10.451  20.040  0.00  0.00    +0.000 A 
ATOM     12  C   UNL     1      10.137  11.598  20.348  0.00  0.00    +0.000 A 
ATOM     13  C   UNL     1      10.699  12.350  19.326  0.00  0.00    +0.000 A 
ATOM     14  C   UNL     1      10.550  11.928  17.998  0.00  0.00    +0.000 A 
ATOM     15  C   UNL     1       9.817  10.780  17.698  0.00  0.00    +0.000 A 
ENDBRANCH   7  10
ENDBRANCH   2   4
BRANCH   1  17
ATOM     16  C   UNL     1       2.765   3.430  17.187  0.00  0.00    +0.000 C 
ATOM     17  C   UNL     1       4.007   3.721  18.052  0.00  0.00    +0.000 C 
ENDBRANCH   1  17
BRANCH   1  18
ATOM     18  C   UNL     1       4.013   6.024  19.309  0.00  0.00    +0.000 C 
BRANCH  18  19
ATOM     19  C   UNL     1       2.618   6.577  18.968  0.00  0.00    +0.000 C 
ATOM     20  C   UNL     1       2.619   7.513  17.765  0.00  0.00    +0.000 C 
ATOM     21  C   UNL     1       1.752   8.766  17.847  0.00  0.00    +0.000 C 
ATOM     22  N   UNL     1       1.405   9.231  19.167  0.00  0.00    +0.000 NA
ATOM     23  C   UNL     1       1.134   8.324  20.243  0.00  0.00    +0.000 C 
ATOM     24  C   UNL     1       2.015   7.106  20.286  0.00  0.00    +0.000 C 
BRANCH  22  25
ATOM     25  C   UNL     1       0.716  10.508  19.288  0.00  0.00    +0.000 C 
BRANCH  25  26
ATOM     26  C   UNL     1       1.565  11.757  19.362  0.00  0.00    +0.000 A 
ATOM     27  C   UNL     1       2.252  12.262  18.247  0.00  0.00    +0.000 A 
ATOM     28  C   UNL     1       3.022  13.424  18.361  0.00  0.00    +0.000 A 
ATOM     29  C   UNL     1       3.101  14.088  19.585  0.00  0.00    +0.000 A 
ATOM     30 CL   UNL     1       4.076  15.499  19.737  0.00  0.00    +0.000 Cl
ATOM     31  C   UNL     1       2.404  13.613  20.691  0.00  0.00    +0.000 A 
ATOM     32  C   UNL     1       1.640  12.453  20.579  0.00  0.00    +0.000 A 
ENDBRANCH  25  26
ENDBRANCH  22  25
ENDBRANCH  18  19
ENDBRANCH   1  18
TORSDOF 7
ENDMDL
MODEL 9
REMARK VINA RESULT:      -8.0      0.669      1.668
REMARK  Name = 
REMARK  8 active torsions:
REMARK  status: ('A' for Active; 'I' for Inactive)
REMARK    1  A    between atoms: C_1  and  C_2
REMARK    2  A    between atoms: C_2  and  N_3
REMARK    3  A    between atoms: N_3  and  C_4
REMARK    4  A    between atoms: C_4  and  C_5
REMARK    5  A    between atoms: N_8  and  C_9
REMARK    6  A    between atoms: C_9  and  C_10
REMARK    7  A    between atoms: C_19  and  C_21
REMARK    8  A    between atoms: C_24  and  C_25
REMARK                            x       y       z     vdW  Elec       q    Type
REMARK                         _______ _______ _______ _____ _____    ______ ____
ROOT
ATOM      1  N   UNL     1       3.018   4.462  20.450  0.00  0.00    +0.000 N 
ATOM      2  C   UNL     1       3.556   3.509  19.525  0.00  0.00    +0.000 C 
ATOM      3  O   UNL     1       3.438   2.297  19.749  0.00  0.00    +0.000 OA
ENDROOT
BRANCH   2   4
ATOM      4  C   UNL     1       4.274   3.835  18.236  0.00  0.00    +0.000 A 
ATOM      5  C   UNL     1       5.599   4.257  18.124  0.00  0.00    +0.000 A 
ATOM      6  C   UNL     1       6.200   4.479  16.871  0.00  0.00    +0.000 A 
ATOM      7  C   UNL     1       5.561   4.165  15.662  0.00  0.00    +0.000 A 
ATOM      8  C   UNL     1       4.258   3.655  15.776  0.00  0.00    +0.000 A 
ATOM      9  C   UNL     1       3.625   3.510  17.033  0.00  0.00    +0.000 A 
BRANCH   7  10
ATOM     10  C   UNL     1       6.253   4.307  14.369  0.00  0.00    +0.000 A 
ATOM     11  C   UNL     1       7.362   5.173  14.200  0.00  0.00    +0.000 A 
ATOM     12  C   UNL     1       8.018   5.340  12.974  0.00  0.00    +0.000 A 
ATOM     13  C   UNL     1       7.570   4.651  11.854  0.00  0.00    +0.000 A 
ATOM     14  C   UNL     1       6.489   3.768  11.974  0.00  0.00    +0.000 A 
ATOM     15  C   UNL     1       5.844   3.601  13.200  0.00  0.00    +0.000 A 
ENDBRANCH   7  10
ENDBRANCH   2   4
BRANCH   1  17
ATOM     16  C   UNL     1       1.238   2.837  21.703  0.00  0.00    +0.000 C 
ATOM     17  C   UNL     1       2.426   3.818  21.668  0.00  0.00    +0.000 C 
ENDBRANCH   1  17
BRANCH   1  18
ATOM     18  C   UNL     1       3.155   5.926  20.287  0.00  0.00    +0.000 C 
BRANCH  18  19
ATOM     19  C   UNL     1       1.970   6.658  19.632  0.00  0.00    +0.000 C 
ATOM     20  C   UNL     1       2.311   7.265  18.277  0.00  0.00    +0.000 C 
ATOM     21  C   UNL     1       1.757   8.653  17.966  0.00  0.00    +0.000 C 
ATOM     22  N   UNL     1       1.396   9.475  19.095  0.00  0.00    +0.000 NA
ATOM     23  C   UNL     1       0.812   8.921  20.281  0.00  0.00    +0.000 C 
ATOM     24  C   UNL     1       1.376   7.593  20.706  0.00  0.00    +0.000 C 
BRANCH  22  25
ATOM     25  C   UNL     1       1.015  10.859  18.844  0.00  0.00    +0.000 C 
BRANCH  25  26
ATOM     26  C   UNL     1      -0.461  11.187  18.841  0.00  0.00    +0.000 A 
ATOM     27  C   UNL     1      -1.020  12.129  19.718  0.00  0.00    +0.000 A 
ATOM     28  C   UNL     1      -2.391  12.405  19.676  0.00  0.00    +0.000 A 
ATOM     29  C   UNL     1      -3.203  11.748  18.754  0.00  0.00    +0.000 A 
ATOM     30 CL   UNL     1      -4.896  12.061  18.722  0.00  0.00    +0.000 Cl
ATOM     31  C   UNL     1      -2.658  10.832  17.859  0.00  0.00    +0.000 A 
ATOM     32  C   UNL     1      -1.293  10.554  17.904  0.00  0.00    +0.000 A 
ENDBRANCH  25  26
ENDBRANCH  22  25
ENDBRANCH  18  19
ENDBRANCH   1  18
TORSDOF 7
ENDMDL
