MODEL 1
REMARK VINA RESULT:      -8.6      0.000      0.000
REMARK  Name = 
REMARK  9 active torsions:
REMARK  status: ('A' for Active; 'I' for Inactive)
REMARK    1  A    between atoms: C_1  and  C_2
REMARK    2  A    between atoms: C_2  and  C_3
REMARK    3  A    between atoms: C_3  and  C_4
REMARK    4  A    between atoms: C_4  and  C_5
REMARK    5  A    between atoms: C_5  and  C_6
REMARK    6  A    between atoms: C_6  and  C_7
REMARK    7  A    between atoms: N_9  and  C_10
REMARK    8  A    between atoms: C_10  and  C_11
REMARK    9  A    between atoms: N_13  and  C_14
REMARK                            x       y       z     vdW  Elec       q    Type
REMARK                         _______ _______ _______ _____ _____    ______ ____
ROOT
ATOM      1  C   UNL     1       4.397   6.272  17.733  0.00  0.00    +0.000 C 
ATOM      2  O   UNL     1       3.297   6.792  17.628  0.00  0.00    +0.000 OA
ATOM      3  N   UNL     1       4.618   5.073  18.411  0.00  0.00    +0.000 N 
ATOM      4  H   UNL     1       5.569   4.888  18.728  0.00  0.00    +0.000 HD
ENDROOT
BRANCH   3   5
ATOM      5  C   UNL     1       3.520   4.337  19.071  0.00  0.00    +0.000 C 
ATOM      6  C   UNL     1       2.954   5.144  20.267  0.00  0.00    +0.000 C 
ATOM      7  C   UNL     1       1.840   4.366  20.990  0.00  0.00    +0.000 C 
ATOM      8  C   UNL     1       0.689   4.099  20.011  0.00  0.00    +0.000 C 
ATOM      9  C   UNL     1       1.204   3.305  18.800  0.00  0.00    +0.000 C 
ATOM     10  C   UNL     1       1.755   1.958  19.294  0.00  0.00    +0.000 C 
ATOM     11  C   UNL     1       2.897   2.191  20.295  0.00  0.00    +0.000 C 
ATOM     12  C   UNL     1       2.400   3.023  21.487  0.00  0.00    +0.000 C 
ATOM     13  C   UNL     1       4.018   2.957  19.584  0.00  0.00    +0.000 C 
ATOM     14  C   UNL     1       2.327   4.096  18.094  0.00  0.00    +0.000 C 
ENDBRANCH   3   5
BRANCH   1  15
ATOM     15  C   UNL     1       5.611   6.899  17.074  0.00  0.00    +0.000 C 
BRANCH  15  18
ATOM     16  C   UNL     1       6.537   4.780  14.338  0.00  0.00    +0.000 A 
ATOM     17  C   UNL     1       5.530   5.257  15.146  0.00  0.00    +0.000 A 
ATOM     18  N   UNL     1       6.166   6.073  16.028  0.00  0.00    +0.000 N 
ATOM     19  N   UNL     1       7.501   6.030  15.848  0.00  0.00    +0.000 NA
ATOM     20  N   UNL     1       7.738   5.254  14.796  0.00  0.00    +0.000 NA
BRANCH  16  21
ATOM     21  C   UNL     1       6.419   3.896  13.151  0.00  0.00    +0.000 C 
BRANCH  21  22
ATOM     22  C   UNL     1       4.973   3.485  12.890  0.00  0.00    +0.000 C 
BRANCH  22  23
ATOM     23  C   UNL     1       4.541   3.804  11.461  0.00  0.00    +0.000 C 
BRANCH  23  24
ATOM     24  C   UNL     1       3.495   2.796  10.987  0.00  0.00    +0.000 C 
BRANCH  24  26
ATOM     25  C   UNL     1       2.797   4.674   9.477  0.00  0.00    +0.000 C 
ATOM     26  C   UNL     1       2.937   3.166   9.616  0.00  0.00    +0.000 C 
ENDBRANCH  24  26
ENDBRANCH  23  24
ENDBRANCH  22  23
ENDBRANCH  21  22
ENDBRANCH  16  21
ENDBRANCH  15  18
ENDBRANCH   1  15
TORSDOF 8
ENDMDL
MODEL 2
REMARK VINA RESULT:      -8.6      0.472      1.569
REMARK  Name = 
REMARK  9 active torsions:
REMARK  status: ('A' for Active; 'I' for Inactive)
REMARK    1  A    between atoms: C_1  and  C_2
REMARK    2  A    between atoms: C_2  and  C_3
REMARK    3  A    between atoms: C_3  and  C_4
REMARK    4  A    between atoms: C_4  and  C_5
REMARK    5  A    between atoms: C_5  and  C_6
REMARK    6  A    between atoms: C_6  and  C_7
REMARK    7  A    between atoms: N_9  and  C_10
REMARK    8  A    between atoms: C_10  and  C_11
REMARK    9  A    between atoms: N_13  and  C_14
REMARK                            x       y       z     vdW  Elec       q    Type
REMARK                         _______ _______ _______ _____ _____    ______ ____
ROOT
ATOM      1  C   UNL     1       4.384   6.215  17.871  0.00  0.00    +0.000 C 
ATOM      2  O   UNL     1       3.298   6.773  17.884  0.00  0.00    +0.000 OA
ATOM      3  N   UNL     1       4.611   4.962  18.440  0.00  0.00    +0.000 N 
ATOM      4  H   UNL     1       5.575   4.726  18.673  0.00  0.00    +0.000 HD
ENDROOT
BRANCH   3   5
ATOM      5  C   UNL     1       3.536   4.209  19.119  0.00  0.00    +0.000 C 
ATOM      6  C   UNL     1       2.348   3.954  18.159  0.00  0.00    +0.000 C 
ATOM      7  C   UNL     1       1.203   3.210  18.870  0.00  0.00    +0.000 C 
ATOM      8  C   UNL     1       1.712   1.850  19.366  0.00  0.00    +0.000 C 
ATOM      9  C   UNL     1       2.901   2.050  20.319  0.00  0.00    +0.000 C 
ATOM     10  C   UNL     1       2.427   2.871  21.529  0.00  0.00    +0.000 C 
ATOM     11  C   UNL     1       1.890   4.233  21.063  0.00  0.00    +0.000 C 
ATOM     12  C   UNL     1       0.731   4.040  20.075  0.00  0.00    +0.000 C 
ATOM     13  C   UNL     1       3.024   4.989  20.361  0.00  0.00    +0.000 C 
ATOM     14  C   UNL     1       4.034   2.807  19.592  0.00  0.00    +0.000 C 
ENDBRANCH   3   5
BRANCH   1  15
ATOM     15  C   UNL     1       5.571   6.856  17.176  0.00  0.00    +0.000 C 
BRANCH  15  18
ATOM     16  C   UNL     1       6.770   4.856  14.457  0.00  0.00    +0.000 A 
ATOM     17  C   UNL     1       5.768   5.659  14.952  0.00  0.00    +0.000 A 
ATOM     18  N   UNL     1       6.185   5.983  16.204  0.00  0.00    +0.000 N 
ATOM     19  N   UNL     1       7.329   5.339  16.512  0.00  0.00    +0.000 NA
ATOM     20  N   UNL     1       7.709   4.660  15.436  0.00  0.00    +0.000 NA
BRANCH  16  21
ATOM     21  C   UNL     1       6.884   4.262  13.101  0.00  0.00    +0.000 C 
BRANCH  21  22
ATOM     22  C   UNL     1       5.857   3.156  12.877  0.00  0.00    +0.000 C 
BRANCH  22  23
ATOM     23  C   UNL     1       5.285   3.189  11.462  0.00  0.00    +0.000 C 
BRANCH  23  24
ATOM     24  C   UNL     1       3.764   3.325  11.509  0.00  0.00    +0.000 C 
BRANCH  24  26
ATOM     25  C   UNL     1       2.922   4.489   9.452  0.00  0.00    +0.000 C 
ATOM     26  C   UNL     1       3.141   3.145  10.128  0.00  0.00    +0.000 C 
ENDBRANCH  24  26
ENDBRANCH  23  24
ENDBRANCH  22  23
ENDBRANCH  21  22
ENDBRANCH  16  21
ENDBRANCH  15  18
ENDBRANCH   1  15
TORSDOF 8
ENDMDL
MODEL 3
REMARK VINA RESULT:      -8.2      1.223      2.017
REMARK  Name = 
REMARK  9 active torsions:
REMARK  status: ('A' for Active; 'I' for Inactive)
REMARK    1  A    between atoms: C_1  and  C_2
REMARK    2  A    between atoms: C_2  and  C_3
REMARK    3  A    between atoms: C_3  and  C_4
REMARK    4  A    between atoms: C_4  and  C_5
REMARK    5  A    between atoms: C_5  and  C_6
REMARK    6  A    between atoms: C_6  and  C_7
REMARK    7  A    between atoms: N_9  and  C_10
REMARK    8  A    between atoms: C_10  and  C_11
REMARK    9  A    between atoms: N_13  and  C_14
REMARK                            x       y       z     vdW  Elec       q    Type
REMARK                         _______ _______ _______ _____ _____    ______ ____
ROOT
ATOM      1  C   UNL     1       5.850   5.154  18.854  0.00  0.00    +0.000 C 
ATOM      2  O   UNL     1       6.124   4.837  20.001  0.00  0.00    +0.000 OA
ATOM      3  N   UNL     1       4.603   4.925  18.271  0.00  0.00    +0.000 N 
ATOM      4  H   UNL     1       4.563   4.914  17.252  0.00  0.00    +0.000 HD
ENDROOT
BRANCH   3   5
ATOM      5  C   UNL     1       3.507   4.263  19.009  0.00  0.00    +0.000 C 
ATOM      6  C   UNL     1       2.310   3.966  18.071  0.00  0.00    +0.000 C 
ATOM      7  C   UNL     1       1.145   3.318  18.840  0.00  0.00    +0.000 C 
ATOM      8  C   UNL     1       1.614   1.989  19.446  0.00  0.00    +0.000 C 
ATOM      9  C   UNL     1       2.809   2.230  20.381  0.00  0.00    +0.000 C 
ATOM     10  C   UNL     1       2.362   3.162  21.519  0.00  0.00    +0.000 C 
ATOM     11  C   UNL     1       1.865   4.497  20.942  0.00  0.00    +0.000 C 
ATOM     12  C   UNL     1       0.699   4.258  19.971  0.00  0.00    +0.000 C 
ATOM     13  C   UNL     1       3.020   5.159  20.182  0.00  0.00    +0.000 C 
ATOM     14  C   UNL     1       3.963   2.891  19.596  0.00  0.00    +0.000 C 
ENDBRANCH   3   5
BRANCH   1  15
ATOM     15  C   UNL     1       6.867   5.874  17.990  0.00  0.00    +0.000 C 
BRANCH  15  18
ATOM     16  C   UNL     1       6.534   4.933  14.549  0.00  0.00    +0.000 A 
ATOM     17  C   UNL     1       7.118   4.678  15.770  0.00  0.00    +0.000 A 
ATOM     18  N   UNL     1       6.647   5.665  16.579  0.00  0.00    +0.000 N 
ATOM     19  N   UNL     1       5.897   6.542  15.882  0.00  0.00    +0.000 NA
ATOM     20  N   UNL     1       5.804   6.089  14.637  0.00  0.00    +0.000 NA
BRANCH  16  21
ATOM     21  C   UNL     1       6.635   4.135  13.301  0.00  0.00    +0.000 C 
BRANCH  21  22
ATOM     22  C   UNL     1       5.271   3.639  12.832  0.00  0.00    +0.000 C 
BRANCH  22  23
ATOM     23  C   UNL     1       5.393   2.433  11.904  0.00  0.00    +0.000 C 
BRANCH  23  24
ATOM     24  C   UNL     1       4.608   2.675  10.616  0.00  0.00    +0.000 C 
BRANCH  24  26
ATOM     25  C   UNL     1       2.731   3.954   9.551  0.00  0.00    +0.000 C 
ATOM     26  C   UNL     1       3.666   3.867  10.747  0.00  0.00    +0.000 C 
ENDBRANCH  24  26
ENDBRANCH  23  24
ENDBRANCH  22  23
ENDBRANCH  21  22
ENDBRANCH  16  21
ENDBRANCH  15  18
ENDBRANCH   1  15
TORSDOF 8
ENDMDL
MODEL 4
REMARK VINA RESULT:      -8.2      1.032      1.867
REMARK  Name = 
REMARK  9 active torsions:
REMARK  status: ('A' for Active; 'I' for Inactive)
REMARK    1  A    between atoms: C_1  and  C_2
REMARK    2  A    between atoms: C_2  and  C_3
REMARK    3  A    between atoms: C_3  and  C_4
REMARK    4  A    between atoms: C_4  and  C_5
REMARK    5  A    between atoms: C_5  and  C_6
REMARK    6  A    between atoms: C_6  and  C_7
REMARK    7  A    between atoms: N_9  and  C_10
REMARK    8  A    between atoms: C_10  and  C_11
REMARK    9  A    between atoms: N_13  and  C_14
REMARK                            x       y       z     vdW  Elec       q    Type
REMARK                         _______ _______ _______ _____ _____    ______ ____
ROOT
ATOM      1  C   UNL     1       4.697   5.003  17.122  0.00  0.00    +0.000 C 
ATOM      2  O   UNL     1       4.546   3.914  16.591  0.00  0.00    +0.000 OA
ATOM      3  N   UNL     1       4.102   5.355  18.333  0.00  0.00    +0.000 N 
ATOM      4  H   UNL     1       4.009   6.351  18.532  0.00  0.00    +0.000 HD
ENDROOT
BRANCH   3   5
ATOM      5  C   UNL     1       3.222   4.424  19.070  0.00  0.00    +0.000 C 
ATOM      6  C   UNL     1       2.037   3.966  18.184  0.00  0.00    +0.000 C 
ATOM      7  C   UNL     1       1.089   3.031  18.957  0.00  0.00    +0.000 C 
ATOM      8  C   UNL     1       1.860   1.782  19.402  0.00  0.00    +0.000 C 
ATOM      9  C   UNL     1       3.054   2.186  20.281  0.00  0.00    +0.000 C 
ATOM     10  C   UNL     1       2.523   2.910  21.528  0.00  0.00    +0.000 C 
ATOM     11  C   UNL     1       1.726   4.157  21.114  0.00  0.00    +0.000 C 
ATOM     12  C   UNL     1       0.557   3.764  20.199  0.00  0.00    +0.000 C 
ATOM     13  C   UNL     1       2.662   5.102  20.351  0.00  0.00    +0.000 C 
ATOM     14  C   UNL     1       3.988   3.131  19.493  0.00  0.00    +0.000 C 
ENDBRANCH   3   5
BRANCH   1  15
ATOM     15  C   UNL     1       5.603   6.046  16.496  0.00  0.00    +0.000 C 
BRANCH  15  18
ATOM     16  C   UNL     1       6.843   4.767  13.387  0.00  0.00    +0.000 A 
ATOM     17  C   UNL     1       5.764   4.930  14.227  0.00  0.00    +0.000 A 
ATOM     18  N   UNL     1       6.278   5.561  15.315  0.00  0.00    +0.000 N 
ATOM     19  N   UNL     1       7.615   5.694  15.208  0.00  0.00    +0.000 NA
ATOM     20  N   UNL     1       7.970   5.228  14.017  0.00  0.00    +0.000 NA
BRANCH  16  21
ATOM     21  C   UNL     1       6.861   4.195  12.018  0.00  0.00    +0.000 C 
BRANCH  21  22
ATOM     22  C   UNL     1       6.666   2.682  12.031  0.00  0.00    +0.000 C 
BRANCH  22  23
ATOM     23  C   UNL     1       5.255   2.286  11.604  0.00  0.00    +0.000 C 
BRANCH  23  24
ATOM     24  C   UNL     1       4.435   3.531  11.269  0.00  0.00    +0.000 C 
BRANCH  24  26
ATOM     25  C   UNL     1       2.857   4.364   9.505  0.00  0.00    +0.000 C 
ATOM     26  C   UNL     1       3.228   3.192  10.400  0.00  0.00    +0.000 C 
ENDBRANCH  24  26
ENDBRANCH  23  24
ENDBRANCH  22  23
ENDBRANCH  21  22
ENDBRANCH  16  21
ENDBRANCH  15  18
ENDBRANCH   1  15
TORSDOF 8
ENDMDL
MODEL 5
REMARK VINA RESULT:      -8.2      1.653      2.544
REMARK  Name = 
REMARK  9 active torsions:
REMARK  status: ('A' for Active; 'I' for Inactive)
REMARK    1  A    between atoms: C_1  and  C_2
REMARK    2  A    between atoms: C_2  and  C_3
REMARK    3  A    between atoms: C_3  and  C_4
REMARK    4  A    between atoms: C_4  and  C_5
REMARK    5  A    between atoms: C_5  and  C_6
REMARK    6  A    between atoms: C_6  and  C_7
REMARK    7  A    between atoms: N_9  and  C_10
REMARK    8  A    between atoms: C_10  and  C_11
REMARK    9  A    between atoms: N_13  and  C_14
REMARK                            x       y       z     vdW  Elec       q    Type
REMARK                         _______ _______ _______ _____ _____    ______ ____
ROOT
ATOM      1  C   UNL     1       5.760   5.181  19.002  0.00  0.00    +0.000 C 
ATOM      2  O   UNL     1       6.112   4.640  20.039  0.00  0.00    +0.000 OA
ATOM      3  N   UNL     1       4.468   5.084  18.486  0.00  0.00    +0.000 N 
ATOM      4  H   UNL     1       4.351   5.276  17.491  0.00  0.00    +0.000 HD
ENDROOT
BRANCH   3   5
ATOM      5  C   UNL     1       3.415   4.298  19.162  0.00  0.00    +0.000 C 
ATOM      6  C   UNL     1       2.209   4.065  18.219  0.00  0.00    +0.000 C 
ATOM      7  C   UNL     1       1.086   3.286  18.928  0.00  0.00    +0.000 C 
ATOM      8  C   UNL     1       1.618   1.915  19.366  0.00  0.00    +0.000 C 
ATOM      9  C   UNL     1       2.825   2.094  20.301  0.00  0.00    +0.000 C 
ATOM     10  C   UNL     1       2.370   2.869  21.547  0.00  0.00    +0.000 C 
ATOM     11  C   UNL     1       1.811   4.241  21.140  0.00  0.00    +0.000 C 
ATOM     12  C   UNL     1       0.632   4.070  20.170  0.00  0.00    +0.000 C 
ATOM     13  C   UNL     1       2.922   5.032  20.440  0.00  0.00    +0.000 C 
ATOM     14  C   UNL     1       3.936   2.886  19.576  0.00  0.00    +0.000 C 
ENDBRANCH   3   5
BRANCH   1  15
ATOM     15  C   UNL     1       6.727   6.050  18.221  0.00  0.00    +0.000 C 
BRANCH  15  18
ATOM     16  C   UNL     1       6.719   5.261  14.726  0.00  0.00    +0.000 A 
ATOM     17  C   UNL     1       7.313   5.080  15.955  0.00  0.00    +0.000 A 
ATOM     18  N   UNL     1       6.601   5.879  16.793  0.00  0.00    +0.000 N 
ATOM     19  N   UNL     1       5.682   6.593  16.112  0.00  0.00    +0.000 NA
ATOM     20  N   UNL     1       5.733   6.205  14.843  0.00  0.00    +0.000 NA
BRANCH  16  21
ATOM     21  C   UNL     1       7.040   4.584  13.444  0.00  0.00    +0.000 C 
BRANCH  21  22
ATOM     22  C   UNL     1       6.112   3.403  13.177  0.00  0.00    +0.000 C 
BRANCH  22  23
ATOM     23  C   UNL     1       5.632   3.374  11.728  0.00  0.00    +0.000 C 
BRANCH  23  24
ATOM     24  C   UNL     1       5.223   1.955  11.335  0.00  0.00    +0.000 C 
BRANCH  24  26
ATOM     25  C   UNL     1       6.165  -0.369  11.396  0.00  0.00    +0.000 C 
ATOM     26  C   UNL     1       6.438   1.082  11.036  0.00  0.00    +0.000 C 
ENDBRANCH  24  26
ENDBRANCH  23  24
ENDBRANCH  22  23
ENDBRANCH  21  22
ENDBRANCH  16  21
ENDBRANCH  15  18
ENDBRANCH   1  15
TORSDOF 8
ENDMDL
MODEL 6
REMARK VINA RESULT:      -8.0      3.908      6.735
REMARK  Name = 
REMARK  9 active torsions:
REMARK  status: ('A' for Active; 'I' for Inactive)
REMARK    1  A    between atoms: C_1  and  C_2
REMARK    2  A    between atoms: C_2  and  C_3
REMARK    3  A    between atoms: C_3  and  C_4
REMARK    4  A    between atoms: C_4  and  C_5
REMARK    5  A    between atoms: C_5  and  C_6
REMARK    6  A    between atoms: C_6  and  C_7
REMARK    7  A    between atoms: N_9  and  C_10
REMARK    8  A    between atoms: C_10  and  C_11
REMARK    9  A    between atoms: N_13  and  C_14
REMARK                            x       y       z     vdW  Elec       q    Type
REMARK                         _______ _______ _______ _____ _____    ______ ____
ROOT
ATOM      1  C   UNL     1       5.922   4.560  18.339  0.00  0.00    +0.000 C 
ATOM      2  O   UNL     1       6.192   4.373  19.515  0.00  0.00    +0.000 OA
ATOM      3  N   UNL     1       4.642   4.394  17.810  0.00  0.00    +0.000 N 
ATOM      4  H   UNL     1       4.571   4.249  16.803  0.00  0.00    +0.000 HD
ENDROOT
BRANCH   3   5
ATOM      5  C   UNL     1       3.502   3.965  18.647  0.00  0.00    +0.000 C 
ATOM      6  C   UNL     1       3.369   4.862  19.903  0.00  0.00    +0.000 C 
ATOM      7  C   UNL     1       2.213   4.394  20.805  0.00  0.00    +0.000 C 
ATOM      8  C   UNL     1       0.895   4.473  20.023  0.00  0.00    +0.000 C 
ATOM      9  C   UNL     1       0.980   3.603  18.760  0.00  0.00    +0.000 C 
ATOM     10  C   UNL     1       1.217   2.144  19.183  0.00  0.00    +0.000 C 
ATOM     11  C   UNL     1       2.521   2.034  19.988  0.00  0.00    +0.000 C 
ATOM     12  C   UNL     1       2.460   2.937  21.230  0.00  0.00    +0.000 C 
ATOM     13  C   UNL     1       3.683   2.488  19.098  0.00  0.00    +0.000 C 
ATOM     14  C   UNL     1       2.151   4.080  17.873  0.00  0.00    +0.000 C 
ENDBRANCH   3   5
BRANCH   1  15
ATOM     15  C   UNL     1       6.987   5.039  17.371  0.00  0.00    +0.000 C 
BRANCH  15  18
ATOM     16  C   UNL     1       8.209   8.284  18.270  0.00  0.00    +0.000 A 
ATOM     17  C   UNL     1       8.103   6.952  18.601  0.00  0.00    +0.000 A 
ATOM     18  N   UNL     1       7.365   6.414  17.594  0.00  0.00    +0.000 N 
ATOM     19  N   UNL     1       6.948   7.369  16.738  0.00  0.00    +0.000 NA
ATOM     20  N   UNL     1       7.480   8.520  17.134  0.00  0.00    +0.000 NA
BRANCH  16  21
ATOM     21  C   UNL     1       8.966   9.347  18.977  0.00  0.00    +0.000 C 
BRANCH  21  22
ATOM     22  C   UNL     1       9.041  10.632  18.159  0.00  0.00    +0.000 C 
BRANCH  22  23
ATOM     23  C   UNL     1       9.946  11.672  18.815  0.00  0.00    +0.000 C 
BRANCH  23  24
ATOM     24  C   UNL     1      11.271  11.771  18.061  0.00  0.00    +0.000 C 
BRANCH  24  26
ATOM     25  C   UNL     1      11.665  13.524  19.812  0.00  0.00    +0.000 C 
ATOM     26  C   UNL     1      12.321  12.530  18.866  0.00  0.00    +0.000 C 
ENDBRANCH  24  26
ENDBRANCH  23  24
ENDBRANCH  22  23
ENDBRANCH  21  22
ENDBRANCH  16  21
ENDBRANCH  15  18
ENDBRANCH   1  15
TORSDOF 8
ENDMDL
MODEL 7
REMARK VINA RESULT:      -8.0      3.519      6.656
REMARK  Name = 
REMARK  9 active torsions:
REMARK  status: ('A' for Active; 'I' for Inactive)
REMARK    1  A    between atoms: C_1  and  C_2
REMARK    2  A    between atoms: C_2  and  C_3
REMARK    3  A    between atoms: C_3  and  C_4
REMARK    4  A    between atoms: C_4  and  C_5
REMARK    5  A    between atoms: C_5  and  C_6
REMARK    6  A    between atoms: C_6  and  C_7
REMARK    7  A    between atoms: N_9  and  C_10
REMARK    8  A    between atoms: C_10  and  C_11
REMARK    9  A    between atoms: N_13  and  C_14
REMARK                            x       y       z     vdW  Elec       q    Type
REMARK                         _______ _______ _______ _____ _____    ______ ____
ROOT
ATOM      1  C   UNL     1       5.467   4.094  17.339  0.00  0.00    +0.000 C 
ATOM      2  O   UNL     1       4.777   3.548  16.494  0.00  0.00    +0.000 OA
ATOM      3  N   UNL     1       5.036   4.337  18.644  0.00  0.00    +0.000 N 
ATOM      4  H   UNL     1       5.524   5.064  19.165  0.00  0.00    +0.000 HD
ENDROOT
BRANCH   3   5
ATOM      5  C   UNL     1       3.685   3.952  19.102  0.00  0.00    +0.000 C 
ATOM      6  C   UNL     1       3.552   2.411  19.196  0.00  0.00    +0.000 C 
ATOM      7  C   UNL     1       2.134   1.998  19.629  0.00  0.00    +0.000 C 
ATOM      8  C   UNL     1       1.834   2.585  21.014  0.00  0.00    +0.000 C 
ATOM      9  C   UNL     1       1.962   4.117  20.974  0.00  0.00    +0.000 C 
ATOM     10  C   UNL     1       0.937   4.668  19.971  0.00  0.00    +0.000 C 
ATOM     11  C   UNL     1       1.196   4.081  18.575  0.00  0.00    +0.000 C 
ATOM     12  C   UNL     1       1.115   2.548  18.618  0.00  0.00    +0.000 C 
ATOM     13  C   UNL     1       2.603   4.494  18.127  0.00  0.00    +0.000 C 
ATOM     14  C   UNL     1       3.386   4.512  20.528  0.00  0.00    +0.000 C 
ENDBRANCH   3   5
BRANCH   1  15
ATOM     15  C   UNL     1       6.890   4.512  17.019  0.00  0.00    +0.000 C 
BRANCH  15  18
ATOM     16  C   UNL     1       7.854   7.820  17.998  0.00  0.00    +0.000 A 
ATOM     17  C   UNL     1       7.954   6.467  18.230  0.00  0.00    +0.000 A 
ATOM     18  N   UNL     1       7.138   5.906  17.298  0.00  0.00    +0.000 N 
ATOM     19  N   UNL     1       6.489   6.855  16.594  0.00  0.00    +0.000 NA
ATOM     20  N   UNL     1       6.939   8.035  17.002  0.00  0.00    +0.000 NA
BRANCH  16  21
ATOM     21  C   UNL     1       8.583   8.922  18.675  0.00  0.00    +0.000 C 
BRANCH  21  22
ATOM     22  C   UNL     1       8.628  10.184  17.820  0.00  0.00    +0.000 C 
BRANCH  22  23
ATOM     23  C   UNL     1       9.328  11.335  18.538  0.00  0.00    +0.000 C 
BRANCH  23  24
ATOM     24  C   UNL     1       9.519  10.997  20.016  0.00  0.00    +0.000 C 
BRANCH  24  26
ATOM     25  C   UNL     1      11.871  11.813  19.706  0.00  0.00    +0.000 C 
ATOM     26  C   UNL     1      10.665  11.795  20.632  0.00  0.00    +0.000 C 
ENDBRANCH  24  26
ENDBRANCH  23  24
ENDBRANCH  22  23
ENDBRANCH  21  22
ENDBRANCH  16  21
ENDBRANCH  15  18
ENDBRANCH   1  15
TORSDOF 8
ENDMDL
MODEL 8
REMARK VINA RESULT:      -8.0      3.476      6.504
REMARK  Name = 
REMARK  9 active torsions:
REMARK  status: ('A' for Active; 'I' for Inactive)
REMARK    1  A    between atoms: C_1  and  C_2
REMARK    2  A    between atoms: C_2  and  C_3
REMARK    3  A    between atoms: C_3  and  C_4
REMARK    4  A    between atoms: C_4  and  C_5
REMARK    5  A    between atoms: C_5  and  C_6
REMARK    6  A    between atoms: C_6  and  C_7
REMARK    7  A    between atoms: N_9  and  C_10
REMARK    8  A    between atoms: C_10  and  C_11
REMARK    9  A    between atoms: N_13  and  C_14
REMARK                            x       y       z     vdW  Elec       q    Type
REMARK                         _______ _______ _______ _____ _____    ______ ____
ROOT
ATOM      1  C   UNL     1       5.279   4.040  16.997  0.00  0.00    +0.000 C 
ATOM      2  O   UNL     1       4.839   2.951  16.662  0.00  0.00    +0.000 OA
ATOM      3  N   UNL     1       4.766   4.779  18.063  0.00  0.00    +0.000 N 
ATOM      4  H   UNL     1       4.958   5.781  18.067  0.00  0.00    +0.000 HD
ENDROOT
BRANCH   3   5
ATOM      5  C   UNL     1       3.630   4.294  18.873  0.00  0.00    +0.000 C 
ATOM      6  C   UNL     1       3.335   5.261  20.047  0.00  0.00    +0.000 C 
ATOM      7  C   UNL     1       2.182   4.742  20.924  0.00  0.00    +0.000 C 
ATOM      8  C   UNL     1       0.910   4.626  20.075  0.00  0.00    +0.000 C 
ATOM      9  C   UNL     1       1.155   3.680  18.888  0.00  0.00    +0.000 C 
ATOM     10  C   UNL     1       1.512   2.289  19.436  0.00  0.00    +0.000 C 
ATOM     11  C   UNL     1       2.772   2.374  20.311  0.00  0.00    +0.000 C 
ATOM     12  C   UNL     1       2.549   3.354  21.473  0.00  0.00    +0.000 C 
ATOM     13  C   UNL     1       3.931   2.881  19.446  0.00  0.00    +0.000 C 
ATOM     14  C   UNL     1       2.321   4.211  18.027  0.00  0.00    +0.000 C 
ENDBRANCH   3   5
BRANCH   1  15
ATOM     15  C   UNL     1       6.469   4.645  16.277  0.00  0.00    +0.000 C 
BRANCH  15  18
ATOM     16  C   UNL     1       7.694   7.695  17.702  0.00  0.00    +0.000 A 
ATOM     17  C   UNL     1       7.128   7.068  16.615  0.00  0.00    +0.000 A 
ATOM     18  N   UNL     1       7.040   5.764  16.988  0.00  0.00    +0.000 N 
ATOM     19  N   UNL     1       7.610   5.569  18.195  0.00  0.00    +0.000 NA
ATOM     20  N   UNL     1       7.996   6.754  18.652  0.00  0.00    +0.000 NA
BRANCH  16  21
ATOM     21  C   UNL     1       7.965   9.143  17.887  0.00  0.00    +0.000 C 
BRANCH  21  22
ATOM     22  C   UNL     1       9.051   9.389  18.930  0.00  0.00    +0.000 C 
BRANCH  22  23
ATOM     23  C   UNL     1       9.455  10.860  18.995  0.00  0.00    +0.000 C 
BRANCH  23  24
ATOM     24  C   UNL     1       9.592  11.308  20.449  0.00  0.00    +0.000 C 
BRANCH  24  26
ATOM     25  C   UNL     1      11.915  11.756  19.614  0.00  0.00    +0.000 C 
ATOM     26  C   UNL     1      10.880  12.092  20.677  0.00  0.00    +0.000 C 
ENDBRANCH  24  26
ENDBRANCH  23  24
ENDBRANCH  22  23
ENDBRANCH  21  22
ENDBRANCH  16  21
ENDBRANCH  15  18
ENDBRANCH   1  15
TORSDOF 8
ENDMDL
MODEL 9
REMARK VINA RESULT:      -7.9      3.854      6.733
REMARK  Name = 
REMARK  9 active torsions:
REMARK  status: ('A' for Active; 'I' for Inactive)
REMARK    1  A    between atoms: C_1  and  C_2
REMARK    2  A    between atoms: C_2  and  C_3
REMARK    3  A    between atoms: C_3  and  C_4
REMARK    4  A    between atoms: C_4  and  C_5
REMARK    5  A    between atoms: C_5  and  C_6
REMARK    6  A    between atoms: C_6  and  C_7
REMARK    7  A    between atoms: N_9  and  C_10
REMARK    8  A    between atoms: C_10  and  C_11
REMARK    9  A    between atoms: N_13  and  C_14
REMARK                            x       y       z     vdW  Elec       q    Type
REMARK                         _______ _______ _______ _____ _____    ______ ____
ROOT
ATOM      1  C   UNL     1       5.966   4.561  18.293  0.00  0.00    +0.000 C 
ATOM      2  O   UNL     1       6.219   4.343  19.467  0.00  0.00    +0.000 OA
ATOM      3  N   UNL     1       4.693   4.416  17.741  0.00  0.00    +0.000 N 
ATOM      4  H   UNL     1       4.637   4.297  16.730  0.00  0.00    +0.000 HD
ENDROOT
BRANCH   3   5
ATOM      5  C   UNL     1       3.540   3.970  18.550  0.00  0.00    +0.000 C 
ATOM      6  C   UNL     1       2.215   4.143  17.765  0.00  0.00    +0.000 C 
ATOM      7  C   UNL     1       1.002   3.725  18.615  0.00  0.00    +0.000 C 
ATOM      8  C   UNL     1       1.137   2.245  18.998  0.00  0.00    +0.000 C 
ATOM      9  C   UNL     1       2.444   2.020  19.775  0.00  0.00    +0.000 C 
ATOM     10  C   UNL     1       2.402   2.862  21.060  0.00  0.00    +0.000 C 
ATOM     11  C   UNL     1       2.246   4.350  20.711  0.00  0.00    +0.000 C 
ATOM     12  C   UNL     1       0.964   4.575  19.896  0.00  0.00    +0.000 C 
ATOM     13  C   UNL     1       3.453   4.783  19.872  0.00  0.00    +0.000 C 
ATOM     14  C   UNL     1       3.648   2.455  18.910  0.00  0.00    +0.000 C 
ENDBRANCH   3   5
BRANCH   1  15
ATOM     15  C   UNL     1       7.047   5.060  17.352  0.00  0.00    +0.000 C 
BRANCH  15  18
ATOM     16  C   UNL     1       8.238   8.307  18.287  0.00  0.00    +0.000 A 
ATOM     17  C   UNL     1       8.172   6.965  18.588  0.00  0.00    +0.000 A 
ATOM     18  N   UNL     1       7.406   6.437  17.596  0.00  0.00    +0.000 N 
ATOM     19  N   UNL     1       6.938   7.404  16.782  0.00  0.00    +0.000 NA
ATOM     20  N   UNL     1       7.461   8.555  17.186  0.00  0.00    +0.000 NA
BRANCH  16  21
ATOM     21  C   UNL     1       9.001   9.367  18.992  0.00  0.00    +0.000 C 
BRANCH  21  22
ATOM     22  C   UNL     1       8.927  10.703  18.259  0.00  0.00    +0.000 C 
BRANCH  22  23
ATOM     23  C   UNL     1      10.314  11.237  17.911  0.00  0.00    +0.000 C 
BRANCH  23  24
ATOM     24  C   UNL     1      10.909  11.983  19.104  0.00  0.00    +0.000 C 
BRANCH  24  26
ATOM     25  C   UNL     1      10.782  13.967  17.573  0.00  0.00    +0.000 C 
ATOM     26  C   UNL     1      11.577  13.286  18.676  0.00  0.00    +0.000 C 
ENDBRANCH  24  26
ENDBRANCH  23  24
ENDBRANCH  22  23
ENDBRANCH  21  22
ENDBRANCH  16  21
ENDBRANCH  15  18
ENDBRANCH   1  15
TORSDOF 8
ENDMDL
