MODEL 1
REMARK VINA RESULT:      -5.9      0.000      0.000
REMARK  Name = 
REMARK  7 active torsions:
REMARK  status: ('A' for Active; 'I' for Inactive)
REMARK    1  A    between atoms: C_1  and  C_2
REMARK    2  A    between atoms: C_2  and  N_3
REMARK    3  A    between atoms: C_2  and  C_5
REMARK    4  A    between atoms: N_3  and  C_4
REMARK    5  A    between atoms: C_5  and  O_6
REMARK    6  A    between atoms: C_5  and  C_7
REMARK    7  A    between atoms: C_11  and  O_12
REMARK                            x       y       z     vdW  Elec       q    Type
REMARK                         _______ _______ _______ _____ _____    ______ ____
ROOT
ATOM      1  C   UNL     1       5.951   5.184  18.210  0.00  0.00    +0.000 C 
ENDROOT
BRANCH   1   2
ATOM      2  C   UNL     1       4.491   4.835  18.022  0.00  0.00    +0.000 A 
ATOM      3  C   UNL     1       3.483   5.813  18.063  0.00  0.00    +0.000 A 
ATOM      4  C   UNL     1       2.142   5.452  17.939  0.00  0.00    +0.000 A 
ATOM      5  C   UNL     1       1.783   4.117  17.774  0.00  0.00    +0.000 A 
ATOM      6  C   UNL     1       2.778   3.147  17.730  0.00  0.00    +0.000 A 
ATOM      7  C   UNL     1       4.120   3.494  17.849  0.00  0.00    +0.000 A 
BRANCH   6   8
ATOM      8  O   UNL     1       2.480   1.823  17.585  0.00  0.00    +0.000 OA
ATOM      9  H   UNL     1       1.521   1.713  17.684  0.00  0.00    +0.000 HD
ENDBRANCH   6   8
ENDBRANCH   1   2
BRANCH   1  11
ATOM     10  C   UNL     1       7.400   7.143  17.456  0.00  0.00    +0.000 C 
ATOM     11  C   UNL     1       6.587   5.929  16.979  0.00  0.00    +0.000 C 
BRANCH  11  12
ATOM     12  N   UNL     1       7.419   5.002  16.178  0.00  0.00    +0.000 NA
ATOM     13  C   UNL     1       6.761   4.507  14.974  0.00  0.00    +0.000 C 
ATOM     14  H   UNL     1       8.296   5.459  15.923  0.00  0.00    +0.000 HD
ENDBRANCH  11  12
ENDBRANCH   1  11
BRANCH   1  15
ATOM     15  O   UNL     1       6.642   3.970  18.530  0.00  0.00    +0.000 OA
ATOM     16  H   UNL     1       7.481   4.221  18.948  0.00  0.00    +0.000 HD
ENDBRANCH   1  15
TORSDOF 5
ENDMDL
MODEL 2
REMARK VINA RESULT:      -5.8      1.871      2.177
REMARK  Name = 
REMARK  7 active torsions:
REMARK  status: ('A' for Active; 'I' for Inactive)
REMARK    1  A    between atoms: C_1  and  C_2
REMARK    2  A    between atoms: C_2  and  N_3
REMARK    3  A    between atoms: C_2  and  C_5
REMARK    4  A    between atoms: N_3  and  C_4
REMARK    5  A    between atoms: C_5  and  O_6
REMARK    6  A    between atoms: C_5  and  C_7
REMARK    7  A    between atoms: C_11  and  O_12
REMARK                            x       y       z     vdW  Elec       q    Type
REMARK                         _______ _______ _______ _____ _____    ______ ____
ROOT
ATOM      1  C   UNL     1       4.672   4.307  18.510  0.00  0.00    +0.000 C 
ENDROOT
BRANCH   1   2
ATOM      2  C   UNL     1       3.284   4.086  19.069  0.00  0.00    +0.000 A 
ATOM      3  C   UNL     1       2.825   4.770  20.208  0.00  0.00    +0.000 A 
ATOM      4  C   UNL     1       1.559   4.505  20.729  0.00  0.00    +0.000 A 
ATOM      5  C   UNL     1       0.732   3.558  20.130  0.00  0.00    +0.000 A 
ATOM      6  C   UNL     1       1.183   2.882  19.002  0.00  0.00    +0.000 A 
ATOM      7  C   UNL     1       2.442   3.139  18.469  0.00  0.00    +0.000 A 
BRANCH   6   8
ATOM      8  O   UNL     1       0.420   1.934  18.384  0.00  0.00    +0.000 OA
ATOM      9  H   UNL     1       0.983   1.444  17.764  0.00  0.00    +0.000 HD
ENDBRANCH   6   8
ENDBRANCH   1   2
BRANCH   1  11
ATOM     10  C   UNL     1       4.841   5.931  16.550  0.00  0.00    +0.000 C 
ATOM     11  C   UNL     1       4.707   4.451  16.943  0.00  0.00    +0.000 C 
BRANCH  11  12
ATOM     12  N   UNL     1       5.802   3.637  16.367  0.00  0.00    +0.000 NA
ATOM     13  C   UNL     1       6.719   4.394  15.523  0.00  0.00    +0.000 C 
ATOM     14  H   UNL     1       6.326   3.185  17.119  0.00  0.00    +0.000 HD
ENDBRANCH  11  12
ENDBRANCH   1  11
BRANCH   1  15
ATOM     15  O   UNL     1       5.496   3.233  18.978  0.00  0.00    +0.000 OA
ATOM     16  H   UNL     1       6.403   3.424  18.692  0.00  0.00    +0.000 HD
ENDBRANCH   1  15
TORSDOF 5
ENDMDL
MODEL 3
REMARK VINA RESULT:      -5.6      2.433      3.004
REMARK  Name = 
REMARK  7 active torsions:
REMARK  status: ('A' for Active; 'I' for Inactive)
REMARK    1  A    between atoms: C_1  and  C_2
REMARK    2  A    between atoms: C_2  and  N_3
REMARK    3  A    between atoms: C_2  and  C_5
REMARK    4  A    between atoms: N_3  and  C_4
REMARK    5  A    between atoms: C_5  and  O_6
REMARK    6  A    between atoms: C_5  and  C_7
REMARK    7  A    between atoms: C_11  and  O_12
REMARK                            x       y       z     vdW  Elec       q    Type
REMARK                         _______ _______ _______ _____ _____    ______ ____
ROOT
ATOM      1  C   UNL     1       3.928   4.803  17.826  0.00  0.00    +0.000 C 
ENDROOT
BRANCH   1   2
ATOM      2  C   UNL     1       2.920   4.051  18.668  0.00  0.00    +0.000 A 
ATOM      3  C   UNL     1       1.746   3.512  18.114  0.00  0.00    +0.000 A 
ATOM      4  C   UNL     1       0.811   2.870  18.927  0.00  0.00    +0.000 A 
ATOM      5  C   UNL     1       1.029   2.755  20.297  0.00  0.00    +0.000 A 
ATOM      6  C   UNL     1       2.191   3.284  20.847  0.00  0.00    +0.000 A 
ATOM      7  C   UNL     1       3.133   3.924  20.047  0.00  0.00    +0.000 A 
BRANCH   6   8
ATOM      8  O   UNL     1       2.446   3.212  22.185  0.00  0.00    +0.000 OA
ATOM      9  H   UNL     1       2.888   2.368  22.367  0.00  0.00    +0.000 HD
ENDBRANCH   6   8
ENDBRANCH   1   2
BRANCH   1  11
ATOM     10  C   UNL     1       5.502   4.193  15.914  0.00  0.00    +0.000 C 
ATOM     11  C   UNL     1       5.163   3.931  17.390  0.00  0.00    +0.000 C 
BRANCH  11  12
ATOM     12  N   UNL     1       6.326   4.198  18.267  0.00  0.00    +0.000 NA
ATOM     13  C   UNL     1       7.527   4.609  17.548  0.00  0.00    +0.000 C 
ATOM     14  H   UNL     1       6.082   4.911  18.957  0.00  0.00    +0.000 HD
ENDBRANCH  11  12
ENDBRANCH   1  11
BRANCH   1  15
ATOM     15  O   UNL     1       4.314   5.968  18.564  0.00  0.00    +0.000 OA
ATOM     16  H   UNL     1       4.067   5.814  19.490  0.00  0.00    +0.000 HD
ENDBRANCH   1  15
TORSDOF 5
ENDMDL
MODEL 4
REMARK VINA RESULT:      -5.6      1.845      2.142
REMARK  Name = 
REMARK  7 active torsions:
REMARK  status: ('A' for Active; 'I' for Inactive)
REMARK    1  A    between atoms: C_1  and  C_2
REMARK    2  A    between atoms: C_2  and  N_3
REMARK    3  A    between atoms: C_2  and  C_5
REMARK    4  A    between atoms: N_3  and  C_4
REMARK    5  A    between atoms: C_5  and  O_6
REMARK    6  A    between atoms: C_5  and  C_7
REMARK    7  A    between atoms: C_11  and  O_12
REMARK                            x       y       z     vdW  Elec       q    Type
REMARK                         _______ _______ _______ _____ _____    ______ ____
ROOT
ATOM      1  C   UNL     1       4.375   5.421  18.575  0.00  0.00    +0.000 C 
ENDROOT
BRANCH   1   2
ATOM      2  C   UNL     1       3.136   4.723  19.092  0.00  0.00    +0.000 A 
ATOM      3  C   UNL     1       2.367   5.256  20.141  0.00  0.00    +0.000 A 
ATOM      4  C   UNL     1       1.261   4.561  20.630  0.00  0.00    +0.000 A 
ATOM      5  C   UNL     1       0.904   3.329  20.087  0.00  0.00    +0.000 A 
ATOM      6  C   UNL     1       1.662   2.801  19.048  0.00  0.00    +0.000 A 
ATOM      7  C   UNL     1       2.765   3.485  18.549  0.00  0.00    +0.000 A 
BRANCH   6   8
ATOM      8  O   UNL     1       1.366   1.592  18.491  0.00  0.00    +0.000 OA
ATOM      9  H   UNL     1       2.155   1.030  18.542  0.00  0.00    +0.000 HD
ENDBRANCH   6   8
ENDBRANCH   1   2
BRANCH   1  11
ATOM     10  C   UNL     1       5.156   5.937  16.202  0.00  0.00    +0.000 C 
ATOM     11  C   UNL     1       4.926   4.818  17.231  0.00  0.00    +0.000 C 
BRANCH  11  12
ATOM     12  N   UNL     1       6.165   4.044  17.474  0.00  0.00    +0.000 NA
ATOM     13  C   UNL     1       7.349   4.609  16.837  0.00  0.00    +0.000 C 
ATOM     14  H   UNL     1       6.327   3.960  18.479  0.00  0.00    +0.000 HD
ENDBRANCH  11  12
ENDBRANCH   1  11
BRANCH   1  15
ATOM     15  O   UNL     1       5.348   5.395  19.625  0.00  0.00    +0.000 OA
ATOM     16  H   UNL     1       5.253   4.544  20.082  0.00  0.00    +0.000 HD
ENDBRANCH   1  15
TORSDOF 5
ENDMDL
MODEL 5
REMARK VINA RESULT:      -5.5      1.559      2.042
REMARK  Name = 
REMARK  7 active torsions:
REMARK  status: ('A' for Active; 'I' for Inactive)
REMARK    1  A    between atoms: C_1  and  C_2
REMARK    2  A    between atoms: C_2  and  N_3
REMARK    3  A    between atoms: C_2  and  C_5
REMARK    4  A    between atoms: N_3  and  C_4
REMARK    5  A    between atoms: C_5  and  O_6
REMARK    6  A    between atoms: C_5  and  C_7
REMARK    7  A    between atoms: C_11  and  O_12
REMARK                            x       y       z     vdW  Elec       q    Type
REMARK                         _______ _______ _______ _____ _____    ______ ____
ROOT
ATOM      1  C   UNL     1       5.803   5.422  16.645  0.00  0.00    +0.000 C 
ENDROOT
BRANCH   1   2
ATOM      2  C   UNL     1       4.401   5.076  17.098  0.00  0.00    +0.000 A 
ATOM      3  C   UNL     1       3.555   6.032  17.686  0.00  0.00    +0.000 A 
ATOM      4  C   UNL     1       2.287   5.669  18.141  0.00  0.00    +0.000 A 
ATOM      5  C   UNL     1       1.843   4.355  18.020  0.00  0.00    +0.000 A 
ATOM      6  C   UNL     1       2.677   3.408  17.436  0.00  0.00    +0.000 A 
ATOM      7  C   UNL     1       3.942   3.758  16.975  0.00  0.00    +0.000 A 
BRANCH   6   8
ATOM      8  O   UNL     1       2.298   2.104  17.307  0.00  0.00    +0.000 OA
ATOM      9  H   UNL     1       2.117   1.930  16.370  0.00  0.00    +0.000 HD
ENDBRANCH   6   8
ENDBRANCH   1   2
BRANCH   1  11
ATOM     10  C   UNL     1       7.229   5.498  18.759  0.00  0.00    +0.000 C 
ATOM     11  C   UNL     1       6.582   6.347  17.652  0.00  0.00    +0.000 C 
BRANCH  11  12
ATOM     12  N   UNL     1       7.590   7.164  16.938  0.00  0.00    +0.000 NA
ATOM     13  C   UNL     1       7.907   8.424  17.601  0.00  0.00    +0.000 C 
ATOM     14  H   UNL     1       8.446   6.621  16.811  0.00  0.00    +0.000 HD
ENDBRANCH  11  12
ENDBRANCH   1  11
BRANCH   1  15
ATOM     15  O   UNL     1       5.698   6.001  15.340  0.00  0.00    +0.000 OA
ATOM     16  H   UNL     1       6.482   5.722  14.840  0.00  0.00    +0.000 HD
ENDBRANCH   1  15
TORSDOF 5
ENDMDL
MODEL 6
REMARK VINA RESULT:      -5.5      2.353      3.516
REMARK  Name = 
REMARK  7 active torsions:
REMARK  status: ('A' for Active; 'I' for Inactive)
REMARK    1  A    between atoms: C_1  and  C_2
REMARK    2  A    between atoms: C_2  and  N_3
REMARK    3  A    between atoms: C_2  and  C_5
REMARK    4  A    between atoms: N_3  and  C_4
REMARK    5  A    between atoms: C_5  and  O_6
REMARK    6  A    between atoms: C_5  and  C_7
REMARK    7  A    between atoms: C_11  and  O_12
REMARK                            x       y       z     vdW  Elec       q    Type
REMARK                         _______ _______ _______ _____ _____    ______ ____
ROOT
ATOM      1  C   UNL     1       5.383   5.132  15.169  0.00  0.00    +0.000 C 
ENDROOT
BRANCH   1   2
ATOM      2  C   UNL     1       5.166   4.666  16.592  0.00  0.00    +0.000 A 
ATOM      3  C   UNL     1       4.091   3.831  16.944  0.00  0.00    +0.000 A 
ATOM      4  C   UNL     1       3.887   3.463  18.274  0.00  0.00    +0.000 A 
ATOM      5  C   UNL     1       4.746   3.918  19.272  0.00  0.00    +0.000 A 
ATOM      6  C   UNL     1       5.811   4.742  18.926  0.00  0.00    +0.000 A 
ATOM      7  C   UNL     1       6.028   5.113  17.603  0.00  0.00    +0.000 A 
BRANCH   6   8
ATOM      8  O   UNL     1       6.672   5.227  19.866  0.00  0.00    +0.000 OA
ATOM      9  H   UNL     1       6.309   6.057  20.215  0.00  0.00    +0.000 HD
ENDBRANCH   6   8
ENDBRANCH   1   2
BRANCH   1  11
ATOM     10  C   UNL     1       6.129   3.732  13.171  0.00  0.00    +0.000 C 
ATOM     11  C   UNL     1       6.600   4.433  14.455  0.00  0.00    +0.000 C 
BRANCH  11  12
ATOM     12  N   UNL     1       7.673   5.413  14.174  0.00  0.00    +0.000 NA
ATOM     13  C   UNL     1       8.086   5.453  12.775  0.00  0.00    +0.000 C 
ATOM     14  H   UNL     1       7.374   6.346  14.466  0.00  0.00    +0.000 HD
ENDBRANCH  11  12
ENDBRANCH   1  11
BRANCH   1  15
ATOM     15  O   UNL     1       5.514   6.557  15.203  0.00  0.00    +0.000 OA
ATOM     16  H   UNL     1       5.775   6.799  16.106  0.00  0.00    +0.000 HD
ENDBRANCH   1  15
TORSDOF 5
ENDMDL
MODEL 7
REMARK VINA RESULT:      -5.5      2.342      4.935
REMARK  Name = 
REMARK  7 active torsions:
REMARK  status: ('A' for Active; 'I' for Inactive)
REMARK    1  A    between atoms: C_1  and  C_2
REMARK    2  A    between atoms: C_2  and  N_3
REMARK    3  A    between atoms: C_2  and  C_5
REMARK    4  A    between atoms: N_3  and  C_4
REMARK    5  A    between atoms: C_5  and  O_6
REMARK    6  A    between atoms: C_5  and  C_7
REMARK    7  A    between atoms: C_11  and  O_12
REMARK                            x       y       z     vdW  Elec       q    Type
REMARK                         _______ _______ _______ _____ _____    ______ ____
ROOT
ATOM      1  C   UNL     1       3.952   4.931  17.864  0.00  0.00    +0.000 C 
ENDROOT
BRANCH   1   2
ATOM      2  C   UNL     1       5.307   5.569  18.083  0.00  0.00    +0.000 A 
ATOM      3  C   UNL     1       5.859   6.472  17.158  0.00  0.00    +0.000 A 
ATOM      4  C   UNL     1       7.133   7.002  17.363  0.00  0.00    +0.000 A 
ATOM      5  C   UNL     1       7.875   6.644  18.485  0.00  0.00    +0.000 A 
ATOM      6  C   UNL     1       7.329   5.753  19.403  0.00  0.00    +0.000 A 
ATOM      7  C   UNL     1       6.059   5.219  19.213  0.00  0.00    +0.000 A 
BRANCH   6   8
ATOM      8  O   UNL     1       8.019   5.357  20.511  0.00  0.00    +0.000 OA
ATOM      9  H   UNL     1       8.966   5.362  20.300  0.00  0.00    +0.000 HD
ENDBRANCH   6   8
ENDBRANCH   1   2
BRANCH   1  11
ATOM     10  C   UNL     1       2.152   4.780  19.665  0.00  0.00    +0.000 C 
ATOM     11  C   UNL     1       3.426   4.124  19.108  0.00  0.00    +0.000 C 
BRANCH  11  12
ATOM     12  N   UNL     1       3.192   2.706  18.751  0.00  0.00    +0.000 NA
ATOM     13  C   UNL     1       1.870   2.213  19.123  0.00  0.00    +0.000 C 
ATOM     14  H   UNL     1       3.333   2.576  17.747  0.00  0.00    +0.000 HD
ENDBRANCH  11  12
ENDBRANCH   1  11
BRANCH   1  15
ATOM     15  O   UNL     1       4.049   4.119  16.688  0.00  0.00    +0.000 OA
ATOM     16  H   UNL     1       4.138   4.722  15.932  0.00  0.00    +0.000 HD
ENDBRANCH   1  15
TORSDOF 5
ENDMDL
MODEL 8
REMARK VINA RESULT:      -5.5      3.050      5.066
REMARK  Name = 
REMARK  7 active torsions:
REMARK  status: ('A' for Active; 'I' for Inactive)
REMARK    1  A    between atoms: C_1  and  C_2
REMARK    2  A    between atoms: C_2  and  N_3
REMARK    3  A    between atoms: C_2  and  C_5
REMARK    4  A    between atoms: N_3  and  C_4
REMARK    5  A    between atoms: C_5  and  O_6
REMARK    6  A    between atoms: C_5  and  C_7
REMARK    7  A    between atoms: C_11  and  O_12
REMARK                            x       y       z     vdW  Elec       q    Type
REMARK                         _______ _______ _______ _____ _____    ______ ____
ROOT
ATOM      1  C   UNL     1       2.860   4.771  19.987  0.00  0.00    +0.000 C 
ENDROOT
BRANCH   1   2
ATOM      2  C   UNL     1       3.914   5.211  18.994  0.00  0.00    +0.000 A 
ATOM      3  C   UNL     1       3.667   6.221  18.048  0.00  0.00    +0.000 A 
ATOM      4  C   UNL     1       4.641   6.565  17.111  0.00  0.00    +0.000 A 
ATOM      5  C   UNL     1       5.872   5.914  17.100  0.00  0.00    +0.000 A 
ATOM      6  C   UNL     1       6.120   4.917  18.037  0.00  0.00    +0.000 A 
ATOM      7  C   UNL     1       5.158   4.565  18.979  0.00  0.00    +0.000 A 
BRANCH   6   8
ATOM      8  O   UNL     1       7.302   4.237  18.061  0.00  0.00    +0.000 OA
ATOM      9  H   UNL     1       7.903   4.646  17.418  0.00  0.00    +0.000 HD
ENDBRANCH   6   8
ENDBRANCH   1   2
BRANCH   1  11
ATOM     10  C   UNL     1       1.972   3.106  18.270  0.00  0.00    +0.000 C 
ATOM     11  C   UNL     1       1.574   4.161  19.315  0.00  0.00    +0.000 C 
BRANCH  11  12
ATOM     12  N   UNL     1       0.669   3.593  20.340  0.00  0.00    +0.000 NA
ATOM     13  C   UNL     1       1.342   2.748  21.321  0.00  0.00    +0.000 C 
ATOM     14  H   UNL     1       0.177   4.348  20.822  0.00  0.00    +0.000 HD
ENDBRANCH  11  12
ENDBRANCH   1  11
BRANCH   1  15
ATOM     15  O   UNL     1       2.560   5.899  20.817  0.00  0.00    +0.000 OA
ATOM     16  H   UNL     1       2.433   6.660  20.229  0.00  0.00    +0.000 HD
ENDBRANCH   1  15
TORSDOF 5
ENDMDL
MODEL 9
REMARK VINA RESULT:      -5.4      0.902      1.565
REMARK  Name = 
REMARK  7 active torsions:
REMARK  status: ('A' for Active; 'I' for Inactive)
REMARK    1  A    between atoms: C_1  and  C_2
REMARK    2  A    between atoms: C_2  and  N_3
REMARK    3  A    between atoms: C_2  and  C_5
REMARK    4  A    between atoms: N_3  and  C_4
REMARK    5  A    between atoms: C_5  and  O_6
REMARK    6  A    between atoms: C_5  and  C_7
REMARK    7  A    between atoms: C_11  and  O_12
REMARK                            x       y       z     vdW  Elec       q    Type
REMARK                         _______ _______ _______ _____ _____    ______ ____
ROOT
ATOM      1  C   UNL     1       5.493   4.940  18.152  0.00  0.00    +0.000 C 
ENDROOT
BRANCH   1   2
ATOM      2  C   UNL     1       4.068   4.435  18.095  0.00  0.00    +0.000 A 
ATOM      3  C   UNL     1       2.982   5.303  17.890  0.00  0.00    +0.000 A 
ATOM      4  C   UNL     1       1.675   4.813  17.895  0.00  0.00    +0.000 A 
ATOM      5  C   UNL     1       1.430   3.458  18.103  0.00  0.00    +0.000 A 
ATOM      6  C   UNL     1       2.504   2.598  18.303  0.00  0.00    +0.000 A 
ATOM      7  C   UNL     1       3.811   3.072  18.297  0.00  0.00    +0.000 A 
BRANCH   6   8
ATOM      8  O   UNL     1       2.319   1.264  18.526  0.00  0.00    +0.000 OA
ATOM      9  H   UNL     1       1.417   1.031  18.255  0.00  0.00    +0.000 HD
ENDBRANCH   6   8
ENDBRANCH   1   2
BRANCH   1  11
ATOM     10  C   UNL     1       5.454   4.866  15.603  0.00  0.00    +0.000 C 
ATOM     11  C   UNL     1       6.324   4.639  16.850  0.00  0.00    +0.000 C 
BRANCH  11  12
ATOM     12  N   UNL     1       7.552   5.465  16.811  0.00  0.00    +0.000 NA
ATOM     13  C   UNL     1       7.360   6.834  17.277  0.00  0.00    +0.000 C 
ATOM     14  H   UNL     1       8.286   5.018  17.363  0.00  0.00    +0.000 HD
ENDBRANCH  11  12
ENDBRANCH   1  11
BRANCH   1  15
ATOM     15  O   UNL     1       6.096   4.382  19.326  0.00  0.00    +0.000 OA
ATOM     16  H   UNL     1       6.962   4.807  19.431  0.00  0.00    +0.000 HD
ENDBRANCH   1  15
TORSDOF 5
ENDMDL
