MODEL 1
REMARK VINA RESULT:      -7.0      0.000      0.000
REMARK  Name = 
REMARK  11 active torsions:
REMARK  status: ('A' for Active; 'I' for Inactive)
REMARK    1  A    between atoms: C_1  and  C_2
REMARK    2  A    between atoms: C_2  and  O_3
REMARK    3  A    between atoms: O_3  and  C_4
REMARK    4  A    between atoms: C_4  and  C_6
REMARK    5  A    between atoms: C_6  and  O_7
REMARK    6  A    between atoms: O_7  and  C_8
REMARK    7  A    between atoms: C_11  and  O_12
REMARK    8  A    between atoms: O_12  and  C_13
REMARK    9  A    between atoms: C_15  and  C_16
REMARK   10  A    between atoms: C_18  and  O_19
REMARK   11  A    between atoms: O_19  and  C_20
REMARK                            x       y       z     vdW  Elec       q    Type
REMARK                         _______ _______ _______ _____ _____    ______ ____
ROOT
ATOM      1  C   UNL     1       5.791   4.408  14.840  0.00  0.00    +0.000 A 
ATOM      2  C   UNL     1       6.940   4.736  15.529  0.00  0.00    +0.000 A 
ATOM      3  C   UNL     1       6.927   4.620  16.908  0.00  0.00    +0.000 A 
ATOM      4  C   UNL     1       5.771   4.168  17.530  0.00  0.00    +0.000 A 
ATOM      5  N   UNL     1       4.649   3.897  16.822  0.00  0.00    +0.000 NA
ATOM      6  N   UNL     1       4.660   4.009  15.458  0.00  0.00    +0.000 NA
ENDROOT
BRANCH   1   7
ATOM      7  O   UNL     1       5.841   4.525  13.474  0.00  0.00    +0.000 OA
BRANCH   7   8
ATOM      8  C   UNL     1       6.524   3.441  12.852  0.00  0.00    +0.000 C 
BRANCH   8   9
ATOM      9  C   UNL     1       5.550   2.767  11.908  0.00  0.00    +0.000 C 
ATOM     10  O   UNL     1       5.700   1.666  11.393  0.00  0.00    +0.000 OA
BRANCH   9  11
ATOM     11  O   UNL     1       4.501   3.606  11.667  0.00  0.00    +0.000 OA
BRANCH  11  13
ATOM     12  C   UNL     1       3.096   4.151   9.818  0.00  0.00    +0.000 C 
ATOM     13  C   UNL     1       3.484   3.070  10.810  0.00  0.00    +0.000 C 
ENDBRANCH  11  13
ENDBRANCH   9  11
ENDBRANCH   8   9
ENDBRANCH   7   8
ENDBRANCH   1   7
BRANCH   4  14
ATOM     14  O   UNL     1       5.643   4.080  18.893  0.00  0.00    +0.000 OA
BRANCH  14  15
ATOM     15  C   UNL     1       4.429   4.458  19.433  0.00  0.00    +0.000 A 
ATOM     16  N   UNL     1       3.768   3.493  20.090  0.00  0.00    +0.000 NA
ATOM     17  C   UNL     1       2.565   3.824  20.606  0.00  0.00    +0.000 A 
ATOM     18  C   UNL     1       1.820   2.748  21.337  0.00  0.00    +0.000 C 
ATOM     19  C   UNL     1       2.026   5.084  20.477  0.00  0.00    +0.000 A 
ATOM     20  C   UNL     1       2.793   5.996  19.792  0.00  0.00    +0.000 A 
ATOM     21  N   UNL     1       3.995   5.718  19.269  0.00  0.00    +0.000 NA
BRANCH  20  22
ATOM     22  O   UNL     1       2.258   7.259  19.630  0.00  0.00    +0.000 OA
ATOM     23  C   UNL     1       2.486   7.795  18.327  0.00  0.00    +0.000 C 
ENDBRANCH  20  22
ENDBRANCH  14  15
ENDBRANCH   4  14
TORSDOF 8
ENDMDL
MODEL 2
REMARK VINA RESULT:      -7.0      1.636      2.033
REMARK  Name = 
REMARK  11 active torsions:
REMARK  status: ('A' for Active; 'I' for Inactive)
REMARK    1  A    between atoms: C_1  and  C_2
REMARK    2  A    between atoms: C_2  and  O_3
REMARK    3  A    between atoms: O_3  and  C_4
REMARK    4  A    between atoms: C_4  and  C_6
REMARK    5  A    between atoms: C_6  and  O_7
REMARK    6  A    between atoms: O_7  and  C_8
REMARK    7  A    between atoms: C_11  and  O_12
REMARK    8  A    between atoms: O_12  and  C_13
REMARK    9  A    between atoms: C_15  and  C_16
REMARK   10  A    between atoms: C_18  and  O_19
REMARK   11  A    between atoms: O_19  and  C_20
REMARK                            x       y       z     vdW  Elec       q    Type
REMARK                         _______ _______ _______ _____ _____    ______ ____
ROOT
ATOM      1  C   UNL     1       6.422   4.446  15.470  0.00  0.00    +0.000 A 
ATOM      2  C   UNL     1       5.087   4.272  15.773  0.00  0.00    +0.000 A 
ATOM      3  C   UNL     1       4.716   4.283  17.106  0.00  0.00    +0.000 A 
ATOM      4  C   UNL     1       5.694   4.481  18.071  0.00  0.00    +0.000 A 
ATOM      5  N   UNL     1       7.000   4.606  17.736  0.00  0.00    +0.000 NA
ATOM      6  N   UNL     1       7.370   4.598  16.418  0.00  0.00    +0.000 NA
ENDROOT
BRANCH   1   7
ATOM      7  O   UNL     1       6.754   4.440  14.138  0.00  0.00    +0.000 OA
BRANCH   7   8
ATOM      8  C   UNL     1       5.774   3.800  13.328  0.00  0.00    +0.000 C 
BRANCH   8   9
ATOM      9  C   UNL     1       6.453   3.365  12.046  0.00  0.00    +0.000 C 
ATOM     10  O   UNL     1       7.374   3.950  11.490  0.00  0.00    +0.000 OA
BRANCH   9  11
ATOM     11  O   UNL     1       5.836   2.246  11.566  0.00  0.00    +0.000 OA
BRANCH  11  13
ATOM     12  C   UNL     1       6.162  -0.104  11.321  0.00  0.00    +0.000 C 
ATOM     13  C   UNL     1       6.716   1.270  10.992  0.00  0.00    +0.000 C 
ENDBRANCH  11  13
ENDBRANCH   9  11
ENDBRANCH   8   9
ENDBRANCH   7   8
ENDBRANCH   1   7
BRANCH   4  14
ATOM     14  O   UNL     1       5.432   4.446  19.417  0.00  0.00    +0.000 OA
BRANCH  14  15
ATOM     15  C   UNL     1       4.143   4.749  19.812  0.00  0.00    +0.000 A 
ATOM     16  N   UNL     1       3.455   3.731  20.350  0.00  0.00    +0.000 NA
ATOM     17  C   UNL     1       2.182   3.987  20.721  0.00  0.00    +0.000 A 
ATOM     18  C   UNL     1       1.407   2.853  21.319  0.00  0.00    +0.000 C 
ATOM     19  C   UNL     1       1.602   5.225  20.564  0.00  0.00    +0.000 A 
ATOM     20  C   UNL     1       2.401   6.196  20.009  0.00  0.00    +0.000 A 
ATOM     21  N   UNL     1       3.671   5.993  19.633  0.00  0.00    +0.000 NA
BRANCH  20  22
ATOM     22  O   UNL     1       1.828   7.438  19.819  0.00  0.00    +0.000 OA
ATOM     23  C   UNL     1       1.309   7.999  21.024  0.00  0.00    +0.000 C 
ENDBRANCH  20  22
ENDBRANCH  14  15
ENDBRANCH   4  14
TORSDOF 8
ENDMDL
MODEL 3
REMARK VINA RESULT:      -6.9      4.935      7.293
REMARK  Name = 
REMARK  11 active torsions:
REMARK  status: ('A' for Active; 'I' for Inactive)
REMARK    1  A    between atoms: C_1  and  C_2
REMARK    2  A    between atoms: C_2  and  O_3
REMARK    3  A    between atoms: O_3  and  C_4
REMARK    4  A    between atoms: C_4  and  C_6
REMARK    5  A    between atoms: C_6  and  O_7
REMARK    6  A    between atoms: O_7  and  C_8
REMARK    7  A    between atoms: C_11  and  O_12
REMARK    8  A    between atoms: O_12  and  C_13
REMARK    9  A    between atoms: C_15  and  C_16
REMARK   10  A    between atoms: C_18  and  O_19
REMARK   11  A    between atoms: O_19  and  C_20
REMARK                            x       y       z     vdW  Elec       q    Type
REMARK                         _______ _______ _______ _____ _____    ______ ____
ROOT
ATOM      1  C   UNL     1       8.138   7.698  18.265  0.00  0.00    +0.000 A 
ATOM      2  C   UNL     1       8.099   6.497  18.945  0.00  0.00    +0.000 A 
ATOM      3  C   UNL     1       7.340   5.471  18.409  0.00  0.00    +0.000 A 
ATOM      4  C   UNL     1       6.671   5.689  17.212  0.00  0.00    +0.000 A 
ATOM      5  N   UNL     1       6.701   6.894  16.597  0.00  0.00    +0.000 NA
ATOM      6  N   UNL     1       7.451   7.911  17.124  0.00  0.00    +0.000 NA
ENDROOT
BRANCH   1   7
ATOM      7  O   UNL     1       8.907   8.690  18.819  0.00  0.00    +0.000 OA
BRANCH   7   8
ATOM      8  C   UNL     1       8.689   9.959  18.214  0.00  0.00    +0.000 C 
BRANCH   8   9
ATOM      9  C   UNL     1       9.770  10.896  18.711  0.00  0.00    +0.000 C 
ATOM     10  O   UNL     1       9.979  11.190  19.881  0.00  0.00    +0.000 OA
BRANCH   9  11
ATOM     11  O   UNL     1      10.442  11.417  17.643  0.00  0.00    +0.000 OA
BRANCH  11  13
ATOM     12  C   UNL     1      11.834  13.354  17.607  0.00  0.00    +0.000 C 
ATOM     13  C   UNL     1      10.405  12.847  17.544  0.00  0.00    +0.000 C 
ENDBRANCH  11  13
ENDBRANCH   9  11
ENDBRANCH   8   9
ENDBRANCH   7   8
ENDBRANCH   1   7
BRANCH   4  14
ATOM     14  O   UNL     1       5.848   4.754  16.637  0.00  0.00    +0.000 OA
BRANCH  14  15
ATOM     15  C   UNL     1       4.544   4.706  17.091  0.00  0.00    +0.000 A 
ATOM     16  N   UNL     1       4.048   5.870  17.537  0.00  0.00    +0.000 NA
ATOM     17  C   UNL     1       2.784   5.850  18.013  0.00  0.00    +0.000 A 
ATOM     18  C   UNL     1       2.227   7.147  18.515  0.00  0.00    +0.000 C 
ATOM     19  C   UNL     1       2.026   4.702  18.047  0.00  0.00    +0.000 A 
ATOM     20  C   UNL     1       2.631   3.569  17.558  0.00  0.00    +0.000 A 
ATOM     21  N   UNL     1       3.878   3.540  17.068  0.00  0.00    +0.000 NA
BRANCH  20  22
ATOM     22  O   UNL     1       1.894   2.402  17.608  0.00  0.00    +0.000 OA
ATOM     23  C   UNL     1       1.131   2.278  18.807  0.00  0.00    +0.000 C 
ENDBRANCH  20  22
ENDBRANCH  14  15
ENDBRANCH   4  14
TORSDOF 8
ENDMDL
MODEL 4
REMARK VINA RESULT:      -6.9      1.596      2.470
REMARK  Name = 
REMARK  11 active torsions:
REMARK  status: ('A' for Active; 'I' for Inactive)
REMARK    1  A    between atoms: C_1  and  C_2
REMARK    2  A    between atoms: C_2  and  O_3
REMARK    3  A    between atoms: O_3  and  C_4
REMARK    4  A    between atoms: C_4  and  C_6
REMARK    5  A    between atoms: C_6  and  O_7
REMARK    6  A    between atoms: O_7  and  C_8
REMARK    7  A    between atoms: C_11  and  O_12
REMARK    8  A    between atoms: O_12  and  C_13
REMARK    9  A    between atoms: C_15  and  C_16
REMARK   10  A    between atoms: C_18  and  O_19
REMARK   11  A    between atoms: O_19  and  C_20
REMARK                            x       y       z     vdW  Elec       q    Type
REMARK                         _______ _______ _______ _____ _____    ______ ____
ROOT
ATOM      1  C   UNL     1       6.491   4.259  15.240  0.00  0.00    +0.000 A 
ATOM      2  C   UNL     1       5.150   4.198  15.559  0.00  0.00    +0.000 A 
ATOM      3  C   UNL     1       4.787   4.385  16.882  0.00  0.00    +0.000 A 
ATOM      4  C   UNL     1       5.780   4.638  17.819  0.00  0.00    +0.000 A 
ATOM      5  N   UNL     1       7.089   4.648  17.473  0.00  0.00    +0.000 NA
ATOM      6  N   UNL     1       7.451   4.465  16.166  0.00  0.00    +0.000 NA
ENDROOT
BRANCH   1   7
ATOM      7  O   UNL     1       6.815   4.079  13.919  0.00  0.00    +0.000 OA
BRANCH   7   8
ATOM      8  C   UNL     1       5.675   3.859  13.096  0.00  0.00    +0.000 C 
BRANCH   8   9
ATOM      9  C   UNL     1       6.101   2.962  11.953  0.00  0.00    +0.000 C 
ATOM     10  O   UNL     1       7.256   2.712  11.633  0.00  0.00    +0.000 OA
BRANCH   9  11
ATOM     11  O   UNL     1       4.993   2.520  11.289  0.00  0.00    +0.000 OA
BRANCH  11  13
ATOM     12  C   UNL     1       3.251   3.577  10.051  0.00  0.00    +0.000 C 
ATOM     13  C   UNL     1       3.832   3.348  11.434  0.00  0.00    +0.000 C 
ENDBRANCH  11  13
ENDBRANCH   9  11
ENDBRANCH   8   9
ENDBRANCH   7   8
ENDBRANCH   1   7
BRANCH   4  14
ATOM     14  O   UNL     1       5.523   4.775  19.159  0.00  0.00    +0.000 OA
BRANCH  14  15
ATOM     15  C   UNL     1       4.197   4.861  19.537  0.00  0.00    +0.000 A 
ATOM     16  N   UNL     1       3.702   6.106  19.613  0.00  0.00    +0.000 NA
ATOM     17  C   UNL     1       2.416   6.226  20.006  0.00  0.00    +0.000 A 
ATOM     18  C   UNL     1       1.859   7.614  20.096  0.00  0.00    +0.000 C 
ATOM     19  C   UNL     1       1.635   5.136  20.318  0.00  0.00    +0.000 A 
ATOM     20  C   UNL     1       2.242   3.909  20.198  0.00  0.00    +0.000 A 
ATOM     21  N   UNL     1       3.511   3.739  19.804  0.00  0.00    +0.000 NA
BRANCH  20  22
ATOM     22  O   UNL     1       1.481   2.806  20.531  0.00  0.00    +0.000 OA
ATOM     23  C   UNL     1       1.254   1.934  19.424  0.00  0.00    +0.000 C 
ENDBRANCH  20  22
ENDBRANCH  14  15
ENDBRANCH   4  14
TORSDOF 8
ENDMDL
MODEL 5
REMARK VINA RESULT:      -6.7      1.435      1.501
REMARK  Name = 
REMARK  11 active torsions:
REMARK  status: ('A' for Active; 'I' for Inactive)
REMARK    1  A    between atoms: C_1  and  C_2
REMARK    2  A    between atoms: C_2  and  O_3
REMARK    3  A    between atoms: O_3  and  C_4
REMARK    4  A    between atoms: C_4  and  C_6
REMARK    5  A    between atoms: C_6  and  O_7
REMARK    6  A    between atoms: O_7  and  C_8
REMARK    7  A    between atoms: C_11  and  O_12
REMARK    8  A    between atoms: O_12  and  C_13
REMARK    9  A    between atoms: C_15  and  C_16
REMARK   10  A    between atoms: C_18  and  O_19
REMARK   11  A    between atoms: O_19  and  C_20
REMARK                            x       y       z     vdW  Elec       q    Type
REMARK                         _______ _______ _______ _____ _____    ______ ____
ROOT
ATOM      1  C   UNL     1       6.412   4.589  15.149  0.00  0.00    +0.000 A 
ATOM      2  C   UNL     1       5.204   5.228  15.336  0.00  0.00    +0.000 A 
ATOM      3  C   UNL     1       4.836   5.559  16.628  0.00  0.00    +0.000 A 
ATOM      4  C   UNL     1       5.701   5.249  17.670  0.00  0.00    +0.000 A 
ATOM      5  N   UNL     1       6.859   4.583  17.450  0.00  0.00    +0.000 NA
ATOM      6  N   UNL     1       7.226   4.256  16.172  0.00  0.00    +0.000 NA
ENDROOT
BRANCH   1   7
ATOM      7  O   UNL     1       6.750   4.284  13.854  0.00  0.00    +0.000 OA
BRANCH   7   8
ATOM      8  C   UNL     1       5.624   3.936  13.057  0.00  0.00    +0.000 C 
BRANCH   8   9
ATOM      9  C   UNL     1       6.112   3.036  11.941  0.00  0.00    +0.000 C 
ATOM     10  O   UNL     1       7.284   2.812  11.664  0.00  0.00    +0.000 OA
BRANCH   9  11
ATOM     11  O   UNL     1       5.040   2.555  11.247  0.00  0.00    +0.000 OA
BRANCH  11  13
ATOM     12  C   UNL     1       3.268   3.630  10.066  0.00  0.00    +0.000 C 
ATOM     13  C   UNL     1       3.821   3.286  11.437  0.00  0.00    +0.000 C 
ENDBRANCH  11  13
ENDBRANCH   9  11
ENDBRANCH   8   9
ENDBRANCH   7   8
ENDBRANCH   1   7
BRANCH   4  14
ATOM     14  O   UNL     1       5.396   5.482  18.987  0.00  0.00    +0.000 OA
BRANCH  14  15
ATOM     15  C   UNL     1       4.120   5.154  19.401  0.00  0.00    +0.000 A 
ATOM     16  N   UNL     1       3.784   3.863  19.257  0.00  0.00    +0.000 NA
ATOM     17  C   UNL     1       2.533   3.515  19.628  0.00  0.00    +0.000 A 
ATOM     18  C   UNL     1       2.152   2.074  19.466  0.00  0.00    +0.000 C 
ATOM     19  C   UNL     1       1.632   4.425  20.130  0.00  0.00    +0.000 A 
ATOM     20  C   UNL     1       2.084   5.718  20.241  0.00  0.00    +0.000 A 
ATOM     21  N   UNL     1       3.317   6.110  19.895  0.00  0.00    +0.000 NA
BRANCH  20  22
ATOM     22  O   UNL     1       1.185   6.651  20.720  0.00  0.00    +0.000 OA
ATOM     23  C   UNL     1       1.666   7.990  20.615  0.00  0.00    +0.000 C 
ENDBRANCH  20  22
ENDBRANCH  14  15
ENDBRANCH   4  14
TORSDOF 8
ENDMDL
MODEL 6
REMARK VINA RESULT:      -6.6      1.467      2.334
REMARK  Name = 
REMARK  11 active torsions:
REMARK  status: ('A' for Active; 'I' for Inactive)
REMARK    1  A    between atoms: C_1  and  C_2
REMARK    2  A    between atoms: C_2  and  O_3
REMARK    3  A    between atoms: O_3  and  C_4
REMARK    4  A    between atoms: C_4  and  C_6
REMARK    5  A    between atoms: C_6  and  O_7
REMARK    6  A    between atoms: O_7  and  C_8
REMARK    7  A    between atoms: C_11  and  O_12
REMARK    8  A    between atoms: O_12  and  C_13
REMARK    9  A    between atoms: C_15  and  C_16
REMARK   10  A    between atoms: C_18  and  O_19
REMARK   11  A    between atoms: O_19  and  C_20
REMARK                            x       y       z     vdW  Elec       q    Type
REMARK                         _______ _______ _______ _____ _____    ______ ____
ROOT
ATOM      1  C   UNL     1       5.579   4.919  14.770  0.00  0.00    +0.000 A 
ATOM      2  C   UNL     1       5.739   3.808  15.573  0.00  0.00    +0.000 A 
ATOM      3  C   UNL     1       5.607   3.969  16.941  0.00  0.00    +0.000 A 
ATOM      4  C   UNL     1       5.306   5.230  17.440  0.00  0.00    +0.000 A 
ATOM      5  N   UNL     1       5.199   6.304  16.623  0.00  0.00    +0.000 NA
ATOM      6  N   UNL     1       5.327   6.147  15.269  0.00  0.00    +0.000 NA
ENDROOT
BRANCH   1   7
ATOM      7  O   UNL     1       5.707   4.721  13.419  0.00  0.00    +0.000 OA
BRANCH   7   8
ATOM      8  C   UNL     1       6.327   3.481  13.098  0.00  0.00    +0.000 C 
BRANCH   8   9
ATOM      9  C   UNL     1       5.535   2.849  11.972  0.00  0.00    +0.000 C 
ATOM     10  O   UNL     1       5.765   1.761  11.459  0.00  0.00    +0.000 OA
BRANCH   9  11
ATOM     11  O   UNL     1       4.555   3.711  11.571  0.00  0.00    +0.000 OA
BRANCH  11  13
ATOM     12  C   UNL     1       3.007   4.152   9.811  0.00  0.00    +0.000 C 
ATOM     13  C   UNL     1       3.504   3.114  10.801  0.00  0.00    +0.000 C 
ENDBRANCH  11  13
ENDBRANCH   9  11
ENDBRANCH   8   9
ENDBRANCH   7   8
ENDBRANCH   1   7
BRANCH   4  14
ATOM     14  O   UNL     1       5.217   5.499  18.782  0.00  0.00    +0.000 OA
BRANCH  14  15
ATOM     15  C   UNL     1       3.978   5.337  19.372  0.00  0.00    +0.000 A 
ATOM     16  N   UNL     1       3.331   6.474  19.669  0.00  0.00    +0.000 NA
ATOM     17  C   UNL     1       2.129   6.349  20.272  0.00  0.00    +0.000 A 
ATOM     18  C   UNL     1       1.404   7.616  20.610  0.00  0.00    +0.000 C 
ATOM     19  C   UNL     1       1.578   5.125  20.575  0.00  0.00    +0.000 A 
ATOM     20  C   UNL     1       2.324   4.027  20.218  0.00  0.00    +0.000 A 
ATOM     21  N   UNL     1       3.517   4.099  19.612  0.00  0.00    +0.000 NA
BRANCH  20  22
ATOM     22  O   UNL     1       1.799   2.790  20.536  0.00  0.00    +0.000 OA
ATOM     23  C   UNL     1       1.551   1.980  19.388  0.00  0.00    +0.000 C 
ENDBRANCH  20  22
ENDBRANCH  14  15
ENDBRANCH   4  14
TORSDOF 8
ENDMDL
MODEL 7
REMARK VINA RESULT:      -6.6      3.122      7.073
REMARK  Name = 
REMARK  11 active torsions:
REMARK  status: ('A' for Active; 'I' for Inactive)
REMARK    1  A    between atoms: C_1  and  C_2
REMARK    2  A    between atoms: C_2  and  O_3
REMARK    3  A    between atoms: O_3  and  C_4
REMARK    4  A    between atoms: C_4  and  C_6
REMARK    5  A    between atoms: C_6  and  O_7
REMARK    6  A    between atoms: O_7  and  C_8
REMARK    7  A    between atoms: C_11  and  O_12
REMARK    8  A    between atoms: O_12  and  C_13
REMARK    9  A    between atoms: C_15  and  C_16
REMARK   10  A    between atoms: C_18  and  O_19
REMARK   11  A    between atoms: O_19  and  C_20
REMARK                            x       y       z     vdW  Elec       q    Type
REMARK                         _______ _______ _______ _____ _____    ______ ____
ROOT
ATOM      1  C   UNL     1       1.484   5.036  19.677  0.00  0.00    +0.000 A 
ATOM      2  C   UNL     1       2.167   6.146  20.132  0.00  0.00    +0.000 A 
ATOM      3  C   UNL     1       3.015   6.794  19.251  0.00  0.00    +0.000 A 
ATOM      4  C   UNL     1       3.127   6.312  17.953  0.00  0.00    +0.000 A 
ATOM      5  N   UNL     1       2.472   5.195  17.557  0.00  0.00    +0.000 NA
ATOM      6  N   UNL     1       1.631   4.552  18.426  0.00  0.00    +0.000 NA
ENDROOT
BRANCH   1   7
ATOM      7  O   UNL     1       0.645   4.424  20.573  0.00  0.00    +0.000 OA
BRANCH   7   8
ATOM      8  C   UNL     1       0.769   3.006  20.565  0.00  0.00    +0.000 C 
BRANCH   8   9
ATOM      9  C   UNL     1       2.097   2.658  21.204  0.00  0.00    +0.000 C 
ATOM     10  O   UNL     1       2.429   2.922  22.353  0.00  0.00    +0.000 OA
BRANCH   9  11
ATOM     11  O   UNL     1       2.899   2.056  20.278  0.00  0.00    +0.000 OA
BRANCH  11  13
ATOM     12  C   UNL     1       4.766   3.225  19.364  0.00  0.00    +0.000 C 
ATOM     13  C   UNL     1       4.304   2.280  20.458  0.00  0.00    +0.000 C 
ENDBRANCH  11  13
ENDBRANCH   9  11
ENDBRANCH   8   9
ENDBRANCH   7   8
ENDBRANCH   1   7
BRANCH   4  14
ATOM     14  O   UNL     1       3.987   6.850  17.030  0.00  0.00    +0.000 OA
BRANCH  14  15
ATOM     15  C   UNL     1       5.113   6.113  16.720  0.00  0.00    +0.000 A 
ATOM     16  N   UNL     1       5.114   5.551  15.501  0.00  0.00    +0.000 NA
ATOM     17  C   UNL     1       6.189   4.801  15.178  0.00  0.00    +0.000 A 
ATOM     18  C   UNL     1       6.193   4.168  13.820  0.00  0.00    +0.000 C 
ATOM     19  C   UNL     1       7.243   4.611  16.042  0.00  0.00    +0.000 A 
ATOM     20  C   UNL     1       7.141   5.238  17.260  0.00  0.00    +0.000 A 
ATOM     21  N   UNL     1       6.099   5.999  17.624  0.00  0.00    +0.000 NA
BRANCH  20  22
ATOM     22  O   UNL     1       8.178   5.039  18.151  0.00  0.00    +0.000 OA
ATOM     23  C   UNL     1       7.931   5.621  19.430  0.00  0.00    +0.000 C 
ENDBRANCH  20  22
ENDBRANCH  14  15
ENDBRANCH   4  14
TORSDOF 8
ENDMDL
MODEL 8
REMARK VINA RESULT:      -6.6      3.569      9.098
REMARK  Name = 
REMARK  11 active torsions:
REMARK  status: ('A' for Active; 'I' for Inactive)
REMARK    1  A    between atoms: C_1  and  C_2
REMARK    2  A    between atoms: C_2  and  O_3
REMARK    3  A    between atoms: O_3  and  C_4
REMARK    4  A    between atoms: C_4  and  C_6
REMARK    5  A    between atoms: C_6  and  O_7
REMARK    6  A    between atoms: O_7  and  C_8
REMARK    7  A    between atoms: C_11  and  O_12
REMARK    8  A    between atoms: O_12  and  C_13
REMARK    9  A    between atoms: C_15  and  C_16
REMARK   10  A    between atoms: C_18  and  O_19
REMARK   11  A    between atoms: O_19  and  C_20
REMARK                            x       y       z     vdW  Elec       q    Type
REMARK                         _______ _______ _______ _____ _____    ______ ____
ROOT
ATOM      1  C   UNL     1       1.458   8.326  20.240  0.00  0.00    +0.000 A 
ATOM      2  C   UNL     1       1.479   7.143  20.949  0.00  0.00    +0.000 A 
ATOM      3  C   UNL     1       2.080   6.043  20.362  0.00  0.00    +0.000 A 
ATOM      4  C   UNL     1       2.644   6.182  19.101  0.00  0.00    +0.000 A 
ATOM      5  N   UNL     1       2.566   7.349  18.420  0.00  0.00    +0.000 NA
ATOM      6  N   UNL     1       1.974   8.439  18.998  0.00  0.00    +0.000 NA
ENDROOT
BRANCH   1   7
ATOM      7  O   UNL     1       0.865   9.399  20.855  0.00  0.00    +0.000 OA
BRANCH   7   8
ATOM      8  C   UNL     1      -0.265   9.030  21.638  0.00  0.00    +0.000 C 
BRANCH   8   9
ATOM      9  C   UNL     1      -0.149   9.737  22.973  0.00  0.00    +0.000 C 
ATOM     10  O   UNL     1       0.765   9.600  23.776  0.00  0.00    +0.000 OA
BRANCH   9  11
ATOM     11  O   UNL     1      -1.256  10.509  23.173  0.00  0.00    +0.000 OA
BRANCH  11  13
ATOM     12  C   UNL     1      -1.388  12.890  23.178  0.00  0.00    +0.000 C 
ATOM     13  C   UNL     1      -1.364  11.647  22.307  0.00  0.00    +0.000 C 
ENDBRANCH  11  13
ENDBRANCH   9  11
ENDBRANCH   8   9
ENDBRANCH   7   8
ENDBRANCH   1   7
BRANCH   4  14
ATOM     14  O   UNL     1       3.205   5.135  18.416  0.00  0.00    +0.000 OA
BRANCH  14  15
ATOM     15  C   UNL     1       4.481   5.324  17.920  0.00  0.00    +0.000 A 
ATOM     16  N   UNL     1       5.448   5.417  18.845  0.00  0.00    +0.000 NA
ATOM     17  C   UNL     1       6.702   5.630  18.393  0.00  0.00    +0.000 A 
ATOM     18  C   UNL     1       7.786   5.738  19.422  0.00  0.00    +0.000 C 
ATOM     19  C   UNL     1       6.995   5.748  17.054  0.00  0.00    +0.000 A 
ATOM     20  C   UNL     1       5.929   5.629  16.194  0.00  0.00    +0.000 A 
ATOM     21  N   UNL     1       4.669   5.409  16.593  0.00  0.00    +0.000 NA
BRANCH  20  22
ATOM     22  O   UNL     1       6.200   5.769  14.847  0.00  0.00    +0.000 OA
ATOM     23  C   UNL     1       6.650   4.558  14.242  0.00  0.00    +0.000 C 
ENDBRANCH  20  22
ENDBRANCH  14  15
ENDBRANCH   4  14
TORSDOF 8
ENDMDL
MODEL 9
REMARK VINA RESULT:      -6.6      4.369      6.437
REMARK  Name = 
REMARK  11 active torsions:
REMARK  status: ('A' for Active; 'I' for Inactive)
REMARK    1  A    between atoms: C_1  and  C_2
REMARK    2  A    between atoms: C_2  and  O_3
REMARK    3  A    between atoms: O_3  and  C_4
REMARK    4  A    between atoms: C_4  and  C_6
REMARK    5  A    between atoms: C_6  and  O_7
REMARK    6  A    between atoms: O_7  and  C_8
REMARK    7  A    between atoms: C_11  and  O_12
REMARK    8  A    between atoms: O_12  and  C_13
REMARK    9  A    between atoms: C_15  and  C_16
REMARK   10  A    between atoms: C_18  and  O_19
REMARK   11  A    between atoms: O_19  and  C_20
REMARK                            x       y       z     vdW  Elec       q    Type
REMARK                         _______ _______ _______ _____ _____    ______ ____
ROOT
ATOM      1  C   UNL     1       7.574   7.301  17.637  0.00  0.00    +0.000 A 
ATOM      2  C   UNL     1       8.026   6.732  18.810  0.00  0.00    +0.000 A 
ATOM      3  C   UNL     1       7.387   5.593  19.269  0.00  0.00    +0.000 A 
ATOM      4  C   UNL     1       6.338   5.069  18.525  0.00  0.00    +0.000 A 
ATOM      5  N   UNL     1       5.897   5.681  17.401  0.00  0.00    +0.000 NA
ATOM      6  N   UNL     1       6.528   6.807  16.943  0.00  0.00    +0.000 NA
ENDROOT
BRANCH   1   7
ATOM      7  O   UNL     1       8.236   8.423  17.206  0.00  0.00    +0.000 OA
BRANCH   7   8
ATOM      8  C   UNL     1       7.844   9.598  17.906  0.00  0.00    +0.000 C 
BRANCH   8   9
ATOM      9  C   UNL     1       9.087  10.198  18.528  0.00  0.00    +0.000 C 
ATOM     10  O   UNL     1       9.480  10.002  19.672  0.00  0.00    +0.000 OA
BRANCH   9  11
ATOM     11  O   UNL     1       9.675  11.046  17.635  0.00  0.00    +0.000 OA
BRANCH  11  13
ATOM     12  C   UNL     1      11.487  12.532  18.078  0.00  0.00    +0.000 C 
ATOM     13  C   UNL     1       9.982  12.348  18.150  0.00  0.00    +0.000 C 
ENDBRANCH  11  13
ENDBRANCH   9  11
ENDBRANCH   8   9
ENDBRANCH   7   8
ENDBRANCH   1   7
BRANCH   4  14
ATOM     14  O   UNL     1       5.606   3.982  18.930  0.00  0.00    +0.000 OA
BRANCH  14  15
ATOM     15  C   UNL     1       4.263   4.190  19.180  0.00  0.00    +0.000 A 
ATOM     16  N   UNL     1       3.451   3.184  18.820  0.00  0.00    +0.000 NA
ATOM     17  C   UNL     1       2.129   3.368  19.026  0.00  0.00    +0.000 A 
ATOM     18  C   UNL     1       1.217   2.249  18.623  0.00  0.00    +0.000 C 
ATOM     19  C   UNL     1       1.620   4.522  19.577  0.00  0.00    +0.000 A 
ATOM     20  C   UNL     1       2.543   5.483  19.914  0.00  0.00    +0.000 A 
ATOM     21  N   UNL     1       3.864   5.344  19.738  0.00  0.00    +0.000 NA
BRANCH  20  22
ATOM     22  O   UNL     1       2.050   6.658  20.445  0.00  0.00    +0.000 OA
ATOM     23  C   UNL     1       2.071   7.739  19.514  0.00  0.00    +0.000 C 
ENDBRANCH  20  22
ENDBRANCH  14  15
ENDBRANCH   4  14
TORSDOF 8
ENDMDL
