MODEL 1
REMARK VINA RESULT:      -7.6      0.000      0.000
REMARK  Name = 
REMARK  8 active torsions:
REMARK  status: ('A' for Active; 'I' for Inactive)
REMARK    1  A    between atoms: C_1  and  C_2
REMARK    2  A    between atoms: C_2  and  O_3
REMARK    3  A    between atoms: O_3  and  C_4
REMARK    4  A    between atoms: C_4  and  C_6
REMARK    5  A    between atoms: C_9  and  N_10
REMARK    6  A    between atoms: C_15  and  N_16
REMARK    7  A    between atoms: N_16  and  C_17
REMARK    8  A    between atoms: N_16  and  C_18
REMARK                            x       y       z     vdW  Elec       q    Type
REMARK                         _______ _______ _______ _____ _____    ______ ____
ROOT
ATOM      1  N   UNL     1       0.631  10.298  20.660  0.00  0.00    +0.000 N 
ATOM      2  C   UNL     1       0.032  11.384  20.078  0.00  0.00    +0.000 A 
ATOM      3  N   UNL     1      -1.138  11.148  19.389  0.00  0.00    +0.000 N 
ATOM      4  C   UNL     1      -1.899   9.907  19.409  0.00  0.00    +0.000 C 
ATOM      5  C   UNL     1      -2.311   9.832  17.962  0.00  0.00    +0.000 C 
ATOM      6  C   UNL     1      -2.806  11.269  17.687  0.00  0.00    +0.000 C 
ATOM      7  C   UNL     1      -1.869  12.132  18.616  0.00  0.00    +0.000 C 
ATOM      8  N   UNL     1       0.387  12.536  20.545  0.00  0.00    +0.000 NA
ATOM      9  C   UNL     1      -0.143  12.622  21.855  0.00  0.00    +0.000 A 
ATOM     10  C   UNL     1      -0.721  13.837  22.212  0.00  0.00    +0.000 A 
ATOM     11  F   UNL     1      -0.245  14.987  21.708  0.00  0.00    +0.000 F 
ATOM     12  C   UNL     1      -1.928  13.840  22.885  0.00  0.00    +0.000 A 
ATOM     13  C   UNL     1      -2.509  12.620  23.250  0.00  0.00    +0.000 A 
ATOM     14  C   UNL     1      -1.805  11.407  23.096  0.00  0.00    +0.000 A 
ATOM     15  C   UNL     1      -0.558  11.410  22.462  0.00  0.00    +0.000 A 
ATOM     16  C   UNL     1       0.144  10.138  21.951  0.00  0.00    +0.000 A 
ATOM     17  O   UNL     1       0.126   9.111  22.618  0.00  0.00    +0.000 OA
ENDROOT
BRANCH   1  21
ATOM     18  C   UNL     1       2.829   7.469  18.327  0.00  0.00    +0.000 A 
ATOM     19  C   UNL     1       2.377   8.657  17.714  0.00  0.00    +0.000 A 
ATOM     20  C   UNL     1       1.598   9.610  18.419  0.00  0.00    +0.000 A 
ATOM     21  C   UNL     1       1.245   9.369  19.745  0.00  0.00    +0.000 A 
ATOM     22  C   UNL     1       1.599   8.103  20.284  0.00  0.00    +0.000 A 
ATOM     23  C   UNL     1       2.403   7.190  19.617  0.00  0.00    +0.000 A 
BRANCH  18  24
ATOM     24  C   UNL     1       3.755   6.541  17.642  0.00  0.00    +0.000 C 
ATOM     25  O   UNL     1       4.456   6.841  16.685  0.00  0.00    +0.000 OA
BRANCH  24  26
ATOM     26  O   UNL     1       3.749   5.321  18.256  0.00  0.00    +0.000 OA
BRANCH  26  28
ATOM     27  C   UNL     1       1.785   4.012  17.697  0.00  0.00    +0.000 C 
ATOM     28  C   UNL     1       3.279   4.190  17.505  0.00  0.00    +0.000 C 
ENDBRANCH  26  28
ENDBRANCH  24  26
ENDBRANCH  18  24
ENDBRANCH   1  21
BRANCH   6  29
ATOM     29  N   UNL     1      -4.264  11.401  17.948  0.00  0.00    +0.000 NA
ATOM     30  C   UNL     1      -4.523  12.336  19.050  0.00  0.00    +0.000 C 
ATOM     31  C   UNL     1      -4.971  11.891  16.754  0.00  0.00    +0.000 C 
ENDBRANCH   6  29
TORSDOF 5
ENDMDL
MODEL 2
REMARK VINA RESULT:      -7.5      0.834      1.440
REMARK  Name = 
REMARK  8 active torsions:
REMARK  status: ('A' for Active; 'I' for Inactive)
REMARK    1  A    between atoms: C_1  and  C_2
REMARK    2  A    between atoms: C_2  and  O_3
REMARK    3  A    between atoms: O_3  and  C_4
REMARK    4  A    between atoms: C_4  and  C_6
REMARK    5  A    between atoms: C_9  and  N_10
REMARK    6  A    between atoms: C_15  and  N_16
REMARK    7  A    between atoms: N_16  and  C_17
REMARK    8  A    between atoms: N_16  and  C_18
REMARK                            x       y       z     vdW  Elec       q    Type
REMARK                         _______ _______ _______ _____ _____    ______ ____
ROOT
ATOM      1  N   UNL     1       0.808  10.175  20.531  0.00  0.00    +0.000 N 
ATOM      2  C   UNL     1       0.214  11.262  19.945  0.00  0.00    +0.000 A 
ATOM      3  N   UNL     1      -0.973  11.033  19.282  0.00  0.00    +0.000 N 
ATOM      4  C   UNL     1      -1.752   9.804  19.334  0.00  0.00    +0.000 C 
ATOM      5  C   UNL     1      -2.193   9.714  17.897  0.00  0.00    +0.000 C 
ATOM      6  C   UNL     1      -2.671  11.155  17.610  0.00  0.00    +0.000 C 
ATOM      7  C   UNL     1      -1.703  12.017  18.508  0.00  0.00    +0.000 C 
ATOM      8  N   UNL     1       0.595  12.415  20.388  0.00  0.00    +0.000 NA
ATOM      9  C   UNL     1       0.092  12.528  21.706  0.00  0.00    +0.000 A 
ATOM     10  C   UNL     1      -0.461  13.756  22.056  0.00  0.00    +0.000 A 
ATOM     11  F   UNL     1       0.023  14.892  21.526  0.00  0.00    +0.000 F 
ATOM     12  C   UNL     1      -1.655  13.788  22.751  0.00  0.00    +0.000 A 
ATOM     13  C   UNL     1      -2.247  12.583  23.145  0.00  0.00    +0.000 A 
ATOM     14  C   UNL     1      -1.564  11.357  22.996  0.00  0.00    +0.000 A 
ATOM     15  C   UNL     1      -0.330  11.332  22.338  0.00  0.00    +0.000 A 
ATOM     16  C   UNL     1       0.343  10.042  21.834  0.00  0.00    +0.000 A 
ATOM     17  O   UNL     1       0.322   9.024  22.516  0.00  0.00    +0.000 OA
ENDROOT
BRANCH   1  21
ATOM     18  C   UNL     1       2.906   7.264  18.208  0.00  0.00    +0.000 A 
ATOM     19  C   UNL     1       2.505   8.469  17.594  0.00  0.00    +0.000 A 
ATOM     20  C   UNL     1       1.760   9.451  18.295  0.00  0.00    +0.000 A 
ATOM     21  C   UNL     1       1.389   9.223  19.619  0.00  0.00    +0.000 A 
ATOM     22  C   UNL     1       1.690   7.944  20.159  0.00  0.00    +0.000 A 
ATOM     23  C   UNL     1       2.462   7.000  19.495  0.00  0.00    +0.000 A 
BRANCH  18  24
ATOM     24  C   UNL     1       3.799   6.300  17.528  0.00  0.00    +0.000 C 
ATOM     25  O   UNL     1       3.570   5.103  17.413  0.00  0.00    +0.000 OA
BRANCH  24  26
ATOM     26  O   UNL     1       4.886   6.942  17.008  0.00  0.00    +0.000 OA
BRANCH  26  28
ATOM     27  C   UNL     1       7.242   7.213  17.517  0.00  0.00    +0.000 C 
ATOM     28  C   UNL     1       6.153   6.266  17.051  0.00  0.00    +0.000 C 
ENDBRANCH  26  28
ENDBRANCH  24  26
ENDBRANCH  18  24
ENDBRANCH   1  21
BRANCH   6  29
ATOM     29  N   UNL     1      -4.122  11.313  17.897  0.00  0.00    +0.000 NA
ATOM     30  C   UNL     1      -4.345  12.263  18.994  0.00  0.00    +0.000 C 
ATOM     31  C   UNL     1      -4.843  11.802  16.711  0.00  0.00    +0.000 C 
ENDBRANCH   6  29
TORSDOF 5
ENDMDL
MODEL 3
REMARK VINA RESULT:      -7.3      4.405      9.040
REMARK  Name = 
REMARK  8 active torsions:
REMARK  status: ('A' for Active; 'I' for Inactive)
REMARK    1  A    between atoms: C_1  and  C_2
REMARK    2  A    between atoms: C_2  and  O_3
REMARK    3  A    between atoms: O_3  and  C_4
REMARK    4  A    between atoms: C_4  and  C_6
REMARK    5  A    between atoms: C_9  and  N_10
REMARK    6  A    between atoms: C_15  and  N_16
REMARK    7  A    between atoms: N_16  and  C_17
REMARK    8  A    between atoms: N_16  and  C_18
REMARK                            x       y       z     vdW  Elec       q    Type
REMARK                         _______ _______ _______ _____ _____    ______ ____
ROOT
ATOM      1  N   UNL     1       2.277   5.946  19.117  0.00  0.00    +0.000 N 
ATOM      2  C   UNL     1       2.720   5.357  17.962  0.00  0.00    +0.000 A 
ATOM      3  N   UNL     1       4.007   5.658  17.570  0.00  0.00    +0.000 N 
ATOM      4  C   UNL     1       4.998   6.359  18.374  0.00  0.00    +0.000 C 
ATOM      5  C   UNL     1       5.638   7.214  17.312  0.00  0.00    +0.000 C 
ATOM      6  C   UNL     1       5.859   6.201  16.166  0.00  0.00    +0.000 C 
ATOM      7  C   UNL     1       4.629   5.229  16.332  0.00  0.00    +0.000 C 
ATOM      8  N   UNL     1       2.065   4.310  17.580  0.00  0.00    +0.000 NA
ATOM      9  C   UNL     1       2.353   3.288  18.515  0.00  0.00    +0.000 A 
ATOM     10  C   UNL     1       2.602   2.022  17.995  0.00  0.00    +0.000 A 
ATOM     11  F   UNL     1       1.982   1.616  16.875  0.00  0.00    +0.000 F 
ATOM     12  C   UNL     1       3.662   1.284  18.488  0.00  0.00    +0.000 A 
ATOM     13  C   UNL     1       4.420   1.800  19.544  0.00  0.00    +0.000 A 
ATOM     14  C   UNL     1       4.017   2.971  20.221  0.00  0.00    +0.000 A 
ATOM     15  C   UNL     1       2.912   3.690  19.755  0.00  0.00    +0.000 A 
ATOM     16  C   UNL     1       2.579   5.127  20.198  0.00  0.00    +0.000 A 
ATOM     17  O   UNL     1       2.707   5.459  21.370  0.00  0.00    +0.000 OA
ENDROOT
BRANCH   1  21
ATOM     18  C   UNL     1       1.050  10.040  19.101  0.00  0.00    +0.000 A 
ATOM     19  C   UNL     1       1.596   9.485  17.924  0.00  0.00    +0.000 A 
ATOM     20  C   UNL     1       2.071   8.150  17.881  0.00  0.00    +0.000 A 
ATOM     21  C   UNL     1       2.022   7.361  19.028  0.00  0.00    +0.000 A 
ATOM     22  C   UNL     1       1.595   7.995  20.225  0.00  0.00    +0.000 A 
ATOM     23  C   UNL     1       1.083   9.284  20.263  0.00  0.00    +0.000 A 
BRANCH  18  24
ATOM     24  C   UNL     1       0.427  11.382  19.116  0.00  0.00    +0.000 C 
ATOM     25  O   UNL     1       1.046  12.435  19.034  0.00  0.00    +0.000 OA
BRANCH  24  26
ATOM     26  O   UNL     1      -0.932  11.277  19.187  0.00  0.00    +0.000 OA
BRANCH  26  28
ATOM     27  C   UNL     1      -2.272  10.041  17.587  0.00  0.00    +0.000 C 
ATOM     28  C   UNL     1      -1.683  11.386  17.968  0.00  0.00    +0.000 C 
ENDBRANCH  26  28
ENDBRANCH  24  26
ENDBRANCH  18  24
ENDBRANCH   1  21
BRANCH   6  29
ATOM     29  N   UNL     1       7.198   5.561  16.257  0.00  0.00    +0.000 NA
ATOM     30  C   UNL     1       7.256   4.610  17.374  0.00  0.00    +0.000 C 
ATOM     31  C   UNL     1       7.521   4.837  15.018  0.00  0.00    +0.000 C 
ENDBRANCH   6  29
TORSDOF 5
ENDMDL
MODEL 4
REMARK VINA RESULT:      -7.3      2.485      3.888
REMARK  Name = 
REMARK  8 active torsions:
REMARK  status: ('A' for Active; 'I' for Inactive)
REMARK    1  A    between atoms: C_1  and  C_2
REMARK    2  A    between atoms: C_2  and  O_3
REMARK    3  A    between atoms: O_3  and  C_4
REMARK    4  A    between atoms: C_4  and  C_6
REMARK    5  A    between atoms: C_9  and  N_10
REMARK    6  A    between atoms: C_15  and  N_16
REMARK    7  A    between atoms: N_16  and  C_17
REMARK    8  A    between atoms: N_16  and  C_18
REMARK                            x       y       z     vdW  Elec       q    Type
REMARK                         _______ _______ _______ _____ _____    ______ ____
ROOT
ATOM      1  N   UNL     1      -0.327  10.965  20.080  0.00  0.00    +0.000 N 
ATOM      2  C   UNL     1       0.417  11.861  20.801  0.00  0.00    +0.000 A 
ATOM      3  N   UNL     1       1.219  12.719  20.079  0.00  0.00    +0.000 N 
ATOM      4  C   UNL     1       1.182  12.903  18.635  0.00  0.00    +0.000 C 
ATOM      5  C   UNL     1       2.655  13.031  18.351  0.00  0.00    +0.000 C 
ATOM      6  C   UNL     1       3.114  14.022  19.444  0.00  0.00    +0.000 C 
ATOM      7  C   UNL     1       2.159  13.665  20.646  0.00  0.00    +0.000 C 
ATOM      8  N   UNL     1       0.015  12.079  22.010  0.00  0.00    +0.000 NA
ATOM      9  C   UNL     1      -1.208  12.784  21.909  0.00  0.00    +0.000 A 
ATOM     10  C   UNL     1      -1.384  13.852  22.784  0.00  0.00    +0.000 A 
ATOM     11  F   UNL     1      -0.841  13.816  24.012  0.00  0.00    +0.000 F 
ATOM     12  C   UNL     1      -1.902  15.040  22.306  0.00  0.00    +0.000 A 
ATOM     13  C   UNL     1      -2.301  15.121  20.968  0.00  0.00    +0.000 A 
ATOM     14  C   UNL     1      -2.342  13.970  20.152  0.00  0.00    +0.000 A 
ATOM     15  C   UNL     1      -1.865  12.755  20.653  0.00  0.00    +0.000 A 
ATOM     16  C   UNL     1      -1.559  11.528  19.773  0.00  0.00    +0.000 A 
ATOM     17  O   UNL     1      -2.307  11.225  18.851  0.00  0.00    +0.000 OA
ENDROOT
BRANCH   1  21
ATOM     18  C   UNL     1       2.278   7.911  18.609  0.00  0.00    +0.000 A 
ATOM     19  C   UNL     1       1.639   8.768  17.687  0.00  0.00    +0.000 A 
ATOM     20  C   UNL     1       0.723   9.765  18.108  0.00  0.00    +0.000 A 
ATOM     21  C   UNL     1       0.421   9.899  19.462  0.00  0.00    +0.000 A 
ATOM     22  C   UNL     1       0.975   8.932  20.342  0.00  0.00    +0.000 A 
ATOM     23  C   UNL     1       1.910   7.987  19.943  0.00  0.00    +0.000 A 
BRANCH  18  24
ATOM     24  C   UNL     1       3.335   6.965  18.191  0.00  0.00    +0.000 C 
ATOM     25  O   UNL     1       4.269   7.249  17.452  0.00  0.00    +0.000 OA
BRANCH  24  26
ATOM     26  O   UNL     1       3.148   5.748  18.781  0.00  0.00    +0.000 OA
BRANCH  26  28
ATOM     27  C   UNL     1       1.559   4.221  17.769  0.00  0.00    +0.000 C 
ATOM     28  C   UNL     1       3.018   4.598  17.930  0.00  0.00    +0.000 C 
ENDBRANCH  26  28
ENDBRANCH  24  26
ENDBRANCH  18  24
ENDBRANCH   1  21
BRANCH   6  29
ATOM     29  N   UNL     1       3.044  15.429  18.967  0.00  0.00    +0.000 NA
ATOM     30  C   UNL     1       3.211  16.374  20.077  0.00  0.00    +0.000 C 
ATOM     31  C   UNL     1       4.093  15.700  17.970  0.00  0.00    +0.000 C 
ENDBRANCH   6  29
TORSDOF 5
ENDMDL
MODEL 5
REMARK VINA RESULT:      -7.1      2.545      4.074
REMARK  Name = 
REMARK  8 active torsions:
REMARK  status: ('A' for Active; 'I' for Inactive)
REMARK    1  A    between atoms: C_1  and  C_2
REMARK    2  A    between atoms: C_2  and  O_3
REMARK    3  A    between atoms: O_3  and  C_4
REMARK    4  A    between atoms: C_4  and  C_6
REMARK    5  A    between atoms: C_9  and  N_10
REMARK    6  A    between atoms: C_15  and  N_16
REMARK    7  A    between atoms: N_16  and  C_17
REMARK    8  A    between atoms: N_16  and  C_18
REMARK                            x       y       z     vdW  Elec       q    Type
REMARK                         _______ _______ _______ _____ _____    ______ ____
ROOT
ATOM      1  N   UNL     1      -0.278  10.888  20.092  0.00  0.00    +0.000 N 
ATOM      2  C   UNL     1       0.462  11.798  20.800  0.00  0.00    +0.000 A 
ATOM      3  N   UNL     1       1.268  12.642  20.066  0.00  0.00    +0.000 N 
ATOM      4  C   UNL     1       1.238  12.801  18.619  0.00  0.00    +0.000 C 
ATOM      5  C   UNL     1       2.713  12.924  18.341  0.00  0.00    +0.000 C 
ATOM      6  C   UNL     1       3.166  13.934  19.418  0.00  0.00    +0.000 C 
ATOM      7  C   UNL     1       2.205  13.599  20.621  0.00  0.00    +0.000 C 
ATOM      8  N   UNL     1       0.053  12.038  22.003  0.00  0.00    +0.000 NA
ATOM      9  C   UNL     1      -1.169  12.740  21.882  0.00  0.00    +0.000 A 
ATOM     10  C   UNL     1      -1.350  13.824  22.736  0.00  0.00    +0.000 A 
ATOM     11  F   UNL     1      -0.814  13.811  23.968  0.00  0.00    +0.000 F 
ATOM     12  C   UNL     1      -1.866  15.004  22.234  0.00  0.00    +0.000 A 
ATOM     13  C   UNL     1      -2.257  15.060  20.892  0.00  0.00    +0.000 A 
ATOM     14  C   UNL     1      -2.294  13.894  20.097  0.00  0.00    +0.000 A 
ATOM     15  C   UNL     1      -1.820  12.688  20.623  0.00  0.00    +0.000 A 
ATOM     16  C   UNL     1      -1.508  11.446  19.767  0.00  0.00    +0.000 A 
ATOM     17  O   UNL     1      -2.251  11.126  18.847  0.00  0.00    +0.000 OA
ENDROOT
BRANCH   1  21
ATOM     18  C   UNL     1       2.328   7.799  18.701  0.00  0.00    +0.000 A 
ATOM     19  C   UNL     1       1.724   8.660  17.760  0.00  0.00    +0.000 A 
ATOM     20  C   UNL     1       0.810   9.669  18.152  0.00  0.00    +0.000 A 
ATOM     21  C   UNL     1       0.473   9.812  19.497  0.00  0.00    +0.000 A 
ATOM     22  C   UNL     1       0.992   8.842  20.395  0.00  0.00    +0.000 A 
ATOM     23  C   UNL     1       1.926   7.884  20.025  0.00  0.00    +0.000 A 
BRANCH  18  24
ATOM     24  C   UNL     1       3.385   6.838  18.314  0.00  0.00    +0.000 C 
ATOM     25  O   UNL     1       3.565   5.752  18.848  0.00  0.00    +0.000 OA
BRANCH  24  26
ATOM     26  O   UNL     1       4.099   7.316  17.253  0.00  0.00    +0.000 OA
BRANCH  26  28
ATOM     27  C   UNL     1       6.488   6.896  17.222  0.00  0.00    +0.000 C 
ATOM     28  C   UNL     1       5.127   6.479  16.699  0.00  0.00    +0.000 C 
ENDBRANCH  26  28
ENDBRANCH  24  26
ENDBRANCH  18  24
ENDBRANCH   1  21
BRANCH   6  29
ATOM     29  N   UNL     1       3.098  15.332  18.914  0.00  0.00    +0.000 NA
ATOM     30  C   UNL     1       3.630  16.278  19.903  0.00  0.00    +0.000 C 
ATOM     31  C   UNL     1       3.872  15.482  17.671  0.00  0.00    +0.000 C 
ENDBRANCH   6  29
TORSDOF 5
ENDMDL
MODEL 6
REMARK VINA RESULT:      -7.1      4.641      9.119
REMARK  Name = 
REMARK  8 active torsions:
REMARK  status: ('A' for Active; 'I' for Inactive)
REMARK    1  A    between atoms: C_1  and  C_2
REMARK    2  A    between atoms: C_2  and  O_3
REMARK    3  A    between atoms: O_3  and  C_4
REMARK    4  A    between atoms: C_4  and  C_6
REMARK    5  A    between atoms: C_9  and  N_10
REMARK    6  A    between atoms: C_15  and  N_16
REMARK    7  A    between atoms: N_16  and  C_17
REMARK    8  A    between atoms: N_16  and  C_18
REMARK                            x       y       z     vdW  Elec       q    Type
REMARK                         _______ _______ _______ _____ _____    ______ ____
ROOT
ATOM      1  N   UNL     1       2.223   5.976  19.127  0.00  0.00    +0.000 N 
ATOM      2  C   UNL     1       2.757   5.406  18.002  0.00  0.00    +0.000 A 
ATOM      3  N   UNL     1       4.074   5.705  17.725  0.00  0.00    +0.000 N 
ATOM      4  C   UNL     1       4.998   6.383  18.622  0.00  0.00    +0.000 C 
ATOM      5  C   UNL     1       5.729   7.253  17.635  0.00  0.00    +0.000 C 
ATOM      6  C   UNL     1       6.039   6.262  16.492  0.00  0.00    +0.000 C 
ATOM      7  C   UNL     1       4.794   5.296  16.535  0.00  0.00    +0.000 C 
ATOM      8  N   UNL     1       2.130   4.371  17.546  0.00  0.00    +0.000 NA
ATOM      9  C   UNL     1       2.333   3.330  18.482  0.00  0.00    +0.000 A 
ATOM     10  C   UNL     1       2.618   2.072  17.959  0.00  0.00    +0.000 A 
ATOM     11  F   UNL     1       2.091   1.693  16.783  0.00  0.00    +0.000 F 
ATOM     12  C   UNL     1       3.628   1.316  18.524  0.00  0.00    +0.000 A 
ATOM     13  C   UNL     1       4.298   1.807  19.650  0.00  0.00    +0.000 A 
ATOM     14  C   UNL     1       3.847   2.967  20.314  0.00  0.00    +0.000 A 
ATOM     15  C   UNL     1       2.789   3.703  19.771  0.00  0.00    +0.000 A 
ATOM     16  C   UNL     1       2.428   5.134  20.213  0.00  0.00    +0.000 A 
ATOM     17  O   UNL     1       2.459   5.443  21.398  0.00  0.00    +0.000 OA
ENDROOT
BRANCH   1  21
ATOM     18  C   UNL     1       1.038  10.083  19.124  0.00  0.00    +0.000 A 
ATOM     19  C   UNL     1       1.598   9.531  17.952  0.00  0.00    +0.000 A 
ATOM     20  C   UNL     1       2.059   8.192  17.905  0.00  0.00    +0.000 A 
ATOM     21  C   UNL     1       1.984   7.394  19.045  0.00  0.00    +0.000 A 
ATOM     22  C   UNL     1       1.544   8.024  20.241  0.00  0.00    +0.000 A 
ATOM     23  C   UNL     1       1.045   9.318  20.280  0.00  0.00    +0.000 A 
BRANCH  18  24
ATOM     24  C   UNL     1       0.430  11.432  19.139  0.00  0.00    +0.000 C 
ATOM     25  O   UNL     1      -0.629  11.721  18.599  0.00  0.00    +0.000 OA
BRANCH  24  26
ATOM     26  O   UNL     1       1.193  12.292  19.876  0.00  0.00    +0.000 OA
BRANCH  26  28
ATOM     27  C   UNL     1       2.679  13.293  18.242  0.00  0.00    +0.000 C 
ATOM     28  C   UNL     1       1.590  13.531  19.269  0.00  0.00    +0.000 C 
ENDBRANCH  26  28
ENDBRANCH  24  26
ENDBRANCH  18  24
ENDBRANCH   1  21
BRANCH   6  29
ATOM     29  N   UNL     1       7.362   5.610  16.681  0.00  0.00    +0.000 NA
ATOM     30  C   UNL     1       7.785   5.667  18.086  0.00  0.00    +0.000 C 
ATOM     31  C   UNL     1       7.318   4.198  16.271  0.00  0.00    +0.000 C 
ENDBRANCH   6  29
TORSDOF 5
ENDMDL
MODEL 7
REMARK VINA RESULT:      -7.0      1.113      1.315
REMARK  Name = 
REMARK  8 active torsions:
REMARK  status: ('A' for Active; 'I' for Inactive)
REMARK    1  A    between atoms: C_1  and  C_2
REMARK    2  A    between atoms: C_2  and  O_3
REMARK    3  A    between atoms: O_3  and  C_4
REMARK    4  A    between atoms: C_4  and  C_6
REMARK    5  A    between atoms: C_9  and  N_10
REMARK    6  A    between atoms: C_15  and  N_16
REMARK    7  A    between atoms: N_16  and  C_17
REMARK    8  A    between atoms: N_16  and  C_18
REMARK                            x       y       z     vdW  Elec       q    Type
REMARK                         _______ _______ _______ _____ _____    ______ ____
ROOT
ATOM      1  N   UNL     1       0.956  10.811  19.925  0.00  0.00    +0.000 N 
ATOM      2  C   UNL     1       0.276  11.668  19.100  0.00  0.00    +0.000 A 
ATOM      3  N   UNL     1      -0.997  11.289  18.731  0.00  0.00    +0.000 N 
ATOM      4  C   UNL     1      -1.755  10.187  19.304  0.00  0.00    +0.000 C 
ATOM      5  C   UNL     1      -2.409   9.646  18.061  0.00  0.00    +0.000 C 
ATOM      6  C   UNL     1      -2.930  10.930  17.379  0.00  0.00    +0.000 C 
ATOM      7  C   UNL     1      -1.840  11.994  17.786  0.00  0.00    +0.000 C 
ATOM      8  N   UNL     1       0.716  12.884  19.070  0.00  0.00    +0.000 NA
ATOM      9  C   UNL     1       0.419  13.452  20.332  0.00  0.00    +0.000 A 
ATOM     10  C   UNL     1      -0.079  14.752  20.326  0.00  0.00    +0.000 A 
ATOM     11  F   UNL     1       0.315  15.622  19.381  0.00  0.00    +0.000 F 
ATOM     12  C   UNL     1      -1.153  15.070  21.135  0.00  0.00    +0.000 A 
ATOM     13  C   UNL     1      -1.674  14.094  21.991  0.00  0.00    +0.000 A 
ATOM     14  C   UNL     1      -1.018  12.856  22.165  0.00  0.00    +0.000 A 
ATOM     15  C   UNL     1       0.102  12.555  21.383  0.00  0.00    +0.000 A 
ATOM     16  C   UNL     1       0.695  11.140  21.249  0.00  0.00    +0.000 A 
ATOM     17  O   UNL     1       0.781  10.410  22.229  0.00  0.00    +0.000 OA
ENDROOT
BRANCH   1  21
ATOM     18  C   UNL     1       2.600   7.123  18.522  0.00  0.00    +0.000 A 
ATOM     19  C   UNL     1       2.427   8.186  17.610  0.00  0.00    +0.000 A 
ATOM     20  C   UNL     1       1.838   9.415  18.001  0.00  0.00    +0.000 A 
ATOM     21  C   UNL     1       1.395   9.584  19.311  0.00  0.00    +0.000 A 
ATOM     22  C   UNL     1       1.460   8.448  20.162  0.00  0.00    +0.000 A 
ATOM     23  C   UNL     1       2.081   7.261  19.800  0.00  0.00    +0.000 A 
BRANCH  18  24
ATOM     24  C   UNL     1       3.338   5.894  18.157  0.00  0.00    +0.000 C 
ATOM     25  O   UNL     1       4.538   5.726  18.332  0.00  0.00    +0.000 OA
BRANCH  24  26
ATOM     26  O   UNL     1       2.485   4.960  17.642  0.00  0.00    +0.000 OA
BRANCH  26  28
ATOM     27  C   UNL     1       1.240   3.773  19.351  0.00  0.00    +0.000 C 
ATOM     28  C   UNL     1       2.360   3.707  18.331  0.00  0.00    +0.000 C 
ENDBRANCH  26  28
ENDBRANCH  24  26
ENDBRANCH  18  24
ENDBRANCH   1  21
BRANCH   6  29
ATOM     29  N   UNL     1      -4.320  11.244  17.802  0.00  0.00    +0.000 NA
ATOM     30  C   UNL     1      -4.331  12.105  18.991  0.00  0.00    +0.000 C 
ATOM     31  C   UNL     1      -5.055  11.933  16.729  0.00  0.00    +0.000 C 
ENDBRANCH   6  29
TORSDOF 5
ENDMDL
MODEL 8
REMARK VINA RESULT:      -7.0      4.031      9.042
REMARK  Name = 
REMARK  8 active torsions:
REMARK  status: ('A' for Active; 'I' for Inactive)
REMARK    1  A    between atoms: C_1  and  C_2
REMARK    2  A    between atoms: C_2  and  O_3
REMARK    3  A    between atoms: O_3  and  C_4
REMARK    4  A    between atoms: C_4  and  C_6
REMARK    5  A    between atoms: C_9  and  N_10
REMARK    6  A    between atoms: C_15  and  N_16
REMARK    7  A    between atoms: N_16  and  C_17
REMARK    8  A    between atoms: N_16  and  C_18
REMARK                            x       y       z     vdW  Elec       q    Type
REMARK                         _______ _______ _______ _____ _____    ______ ____
ROOT
ATOM      1  N   UNL     1       3.738   7.257  18.076  0.00  0.00    +0.000 N 
ATOM      2  C   UNL     1       4.240   6.230  18.830  0.00  0.00    +0.000 A 
ATOM      3  N   UNL     1       3.478   5.083  18.895  0.00  0.00    +0.000 N 
ATOM      4  C   UNL     1       2.315   4.788  18.070  0.00  0.00    +0.000 C 
ATOM      5  C   UNL     1       1.430   4.128  19.095  0.00  0.00    +0.000 C 
ATOM      6  C   UNL     1       2.404   3.147  19.785  0.00  0.00    +0.000 C 
ATOM      7  C   UNL     1       3.773   3.926  19.718  0.00  0.00    +0.000 C 
ATOM      8  N   UNL     1       5.509   6.280  19.072  0.00  0.00    +0.000 NA
ATOM      9  C   UNL     1       6.165   6.039  17.842  0.00  0.00    +0.000 A 
ATOM     10  C   UNL     1       7.264   5.187  17.880  0.00  0.00    +0.000 A 
ATOM     11  F   UNL     1       8.051   5.146  18.969  0.00  0.00    +0.000 F 
ATOM     12  C   UNL     1       7.402   4.214  16.908  0.00  0.00    +0.000 A 
ATOM     13  C   UNL     1       6.467   4.152  15.869  0.00  0.00    +0.000 A 
ATOM     14  C   UNL     1       5.496   5.163  15.705  0.00  0.00    +0.000 A 
ATOM     15  C   UNL     1       5.391   6.178  16.662  0.00  0.00    +0.000 A 
ATOM     16  C   UNL     1       4.186   7.132  16.767  0.00  0.00    +0.000 A 
ATOM     17  O   UNL     1       3.668   7.589  15.756  0.00  0.00    +0.000 OA
ENDROOT
BRANCH   1  21
ATOM     18  C   UNL     1       0.578   9.719  19.568  0.00  0.00    +0.000 A 
ATOM     19  C   UNL     1       1.097   8.697  20.392  0.00  0.00    +0.000 A 
ATOM     20  C   UNL     1       2.107   7.814  19.937  0.00  0.00    +0.000 A 
ATOM     21  C   UNL     1       2.595   7.932  18.637  0.00  0.00    +0.000 A 
ATOM     22  C   UNL     1       1.953   8.879  17.795  0.00  0.00    +0.000 A 
ATOM     23  C   UNL     1       1.000   9.780  18.249  0.00  0.00    +0.000 A 
BRANCH  18  24
ATOM     24  C   UNL     1      -0.373  10.729  20.082  0.00  0.00    +0.000 C 
ATOM     25  O   UNL     1      -1.434  11.020  19.545  0.00  0.00    +0.000 OA
BRANCH  24  26
ATOM     26  O   UNL     1       0.077  11.254  21.260  0.00  0.00    +0.000 OA
BRANCH  26  28
ATOM     27  C   UNL     1      -0.754  10.070  23.207  0.00  0.00    +0.000 C 
ATOM     28  C   UNL     1      -0.841  11.326  22.362  0.00  0.00    +0.000 C 
ENDBRANCH  26  28
ENDBRANCH  24  26
ENDBRANCH  18  24
ENDBRANCH   1  21
BRANCH   6  29
ATOM     29  N   UNL     1       2.391   1.815  19.125  0.00  0.00    +0.000 NA
ATOM     30  C   UNL     1       1.155   1.614  18.359  0.00  0.00    +0.000 C 
ATOM     31  C   UNL     1       3.531   1.672  18.205  0.00  0.00    +0.000 C 
ENDBRANCH   6  29
TORSDOF 5
ENDMDL
MODEL 9
REMARK VINA RESULT:      -7.0      4.272      9.116
REMARK  Name = 
REMARK  8 active torsions:
REMARK  status: ('A' for Active; 'I' for Inactive)
REMARK    1  A    between atoms: C_1  and  C_2
REMARK    2  A    between atoms: C_2  and  O_3
REMARK    3  A    between atoms: O_3  and  C_4
REMARK    4  A    between atoms: C_4  and  C_6
REMARK    5  A    between atoms: C_9  and  N_10
REMARK    6  A    between atoms: C_15  and  N_16
REMARK    7  A    between atoms: N_16  and  C_17
REMARK    8  A    between atoms: N_16  and  C_18
REMARK                            x       y       z     vdW  Elec       q    Type
REMARK                         _______ _______ _______ _____ _____    ______ ____
ROOT
ATOM      1  N   UNL     1       2.185   5.937  19.211  0.00  0.00    +0.000 N 
ATOM      2  C   UNL     1       2.722   5.408  18.068  0.00  0.00    +0.000 A 
ATOM      3  N   UNL     1       4.033   5.732  17.795  0.00  0.00    +0.000 N 
ATOM      4  C   UNL     1       4.953   6.395  18.708  0.00  0.00    +0.000 C 
ATOM      5  C   UNL     1       5.668   7.304  17.744  0.00  0.00    +0.000 C 
ATOM      6  C   UNL     1       5.986   6.350  16.571  0.00  0.00    +0.000 C 
ATOM      7  C   UNL     1       4.754   5.367  16.591  0.00  0.00    +0.000 C 
ATOM      8  N   UNL     1       2.106   4.379  17.584  0.00  0.00    +0.000 NA
ATOM      9  C   UNL     1       2.327   3.313  18.488  0.00  0.00    +0.000 A 
ATOM     10  C   UNL     1       2.625   2.075  17.928  0.00  0.00    +0.000 A 
ATOM     11  F   UNL     1       2.098   1.724  16.743  0.00  0.00    +0.000 F 
ATOM     12  C   UNL     1       3.648   1.317  18.466  0.00  0.00    +0.000 A 
ATOM     13  C   UNL     1       4.316   1.782  19.603  0.00  0.00    +0.000 A 
ATOM     14  C   UNL     1       3.853   2.917  20.303  0.00  0.00    +0.000 A 
ATOM     15  C   UNL     1       2.783   3.655  19.786  0.00  0.00    +0.000 A 
ATOM     16  C   UNL     1       2.406   5.067  20.272  0.00  0.00    +0.000 A 
ATOM     17  O   UNL     1       2.438   5.341  21.465  0.00  0.00    +0.000 OA
ENDROOT
BRANCH   1  21
ATOM     18  C   UNL     1       0.962  10.031  19.361  0.00  0.00    +0.000 A 
ATOM     19  C   UNL     1       1.456   9.508  18.147  0.00  0.00    +0.000 A 
ATOM     20  C   UNL     1       1.927   8.175  18.046  0.00  0.00    +0.000 A 
ATOM     21  C   UNL     1       1.927   7.354  19.173  0.00  0.00    +0.000 A 
ATOM     22  C   UNL     1       1.553   7.956  20.404  0.00  0.00    +0.000 A 
ATOM     23  C   UNL     1       1.045   9.243  20.499  0.00  0.00    +0.000 A 
BRANCH  18  24
ATOM     24  C   UNL     1       0.342  11.372  19.439  0.00  0.00    +0.000 C 
ATOM     25  O   UNL     1      -0.342  11.873  18.556  0.00  0.00    +0.000 OA
BRANCH  24  26
ATOM     26  O   UNL     1       0.602  11.949  20.649  0.00  0.00    +0.000 OA
BRANCH  26  28
ATOM     27  C   UNL     1      -0.840  11.645  22.575  0.00  0.00    +0.000 C 
ATOM     28  C   UNL     1      -0.499  12.512  21.379  0.00  0.00    +0.000 C 
ENDBRANCH  26  28
ENDBRANCH  24  26
ENDBRANCH  18  24
ENDBRANCH   1  21
BRANCH   6  29
ATOM     29  N   UNL     1       7.318   5.711  16.736  0.00  0.00    +0.000 NA
ATOM     30  C   UNL     1       7.822   5.880  18.105  0.00  0.00    +0.000 C 
ATOM     31  C   UNL     1       7.251   4.270  16.445  0.00  0.00    +0.000 C 
ENDBRANCH   6  29
TORSDOF 5
ENDMDL
