MODEL 1
REMARK VINA RESULT:      -7.3      0.000      0.000
REMARK  Name = 
REMARK  9 active torsions:
REMARK  status: ('A' for Active; 'I' for Inactive)
REMARK    1  A    between atoms: C_1  and  O_2
REMARK    2  A    between atoms: O_2  and  C_3
REMARK    3  A    between atoms: C_6  and  C_7
REMARK    4  A    between atoms: C_7  and  C_17
REMARK    5  A    between atoms: N_8  and  C_9
REMARK    6  A    between atoms: C_9  and  C_10
REMARK    7  A    between atoms: N_22  and  C_23
REMARK    8  A    between atoms: C_23  and  C_24
REMARK    9  A    between atoms: C_32  and  O_33
REMARK                            x       y       z     vdW  Elec       q    Type
REMARK                         _______ _______ _______ _____ _____    ______ ____
ROOT
ATOM      1  C   UNL     1      -0.334  10.874  19.207  0.00  0.00    +0.000 C 
ATOM      2  N   UNL     1      -1.269  10.785  18.311  0.00  0.00    +0.000 NA
ENDROOT
BRANCH   1   3
ATOM      3  C   UNL     1      -0.067  12.072  20.097  0.00  0.00    +0.000 A 
ATOM      4  C   UNL     1       0.926  13.085  19.796  0.00  0.00    +0.000 A 
ATOM      5  C   UNL     1       1.196  14.052  20.688  0.00  0.00    +0.000 A 
ATOM      6  C   UNL     1       0.416  14.163  21.960  0.00  0.00    +0.000 A 
ATOM      7  O   UNL     1       0.692  15.055  22.750  0.00  0.00    +0.000 OA
ATOM      8  N   UNL     1      -0.568  13.201  22.154  0.00  0.00    +0.000 N 
ATOM      9  C   UNL     1      -0.746  12.165  21.257  0.00  0.00    +0.000 A 
BRANCH   8  10
ATOM     10  C   UNL     1      -1.390  13.225  23.371  0.00  0.00    +0.000 C 
BRANCH  10  11
ATOM     11  C   UNL     1      -2.800  13.725  23.177  0.00  0.00    +0.000 A 
ATOM     12  C   UNL     1      -3.043  14.933  22.507  0.00  0.00    +0.000 A 
ATOM     13  C   UNL     1      -4.348  15.394  22.311  0.00  0.00    +0.000 A 
ATOM     14  C   UNL     1      -5.432  14.653  22.778  0.00  0.00    +0.000 A 
ATOM     15  C   UNL     1      -5.207  13.464  23.471  0.00  0.00    +0.000 A 
ATOM     16  C   UNL     1      -3.899  13.015  23.671  0.00  0.00    +0.000 A 
ATOM     17  F   UNL     1      -3.707  11.887  24.371  0.00  0.00    +0.000 F 
ENDBRANCH  10  11
ENDBRANCH   8  10
ENDBRANCH   1   3
BRANCH   1  21
ATOM     18  C   UNL     1       2.182   7.366  19.805  0.00  0.00    +0.000 A 
ATOM     19  C   UNL     1       1.310   7.826  20.791  0.00  0.00    +0.000 A 
ATOM     20  C   UNL     1       0.518   8.963  20.571  0.00  0.00    +0.000 A 
ATOM     21  C   UNL     1       0.592   9.681  19.363  0.00  0.00    +0.000 A 
ATOM     22  C   UNL     1       1.522   9.234  18.409  0.00  0.00    +0.000 A 
ATOM     23  C   UNL     1       2.275   8.072  18.612  0.00  0.00    +0.000 A 
BRANCH  18  25
ATOM     24  C   UNL     1       2.147   5.144  20.636  0.00  0.00    +0.000 C 
ATOM     25  O   UNL     1       2.895   6.241  20.118  0.00  0.00    +0.000 OA
ENDBRANCH  18  25
BRANCH  22  26
ATOM     26  O   UNL     1       1.818   9.870  17.233  0.00  0.00    +0.000 OA
ATOM     27  H   UNL     1       1.554   9.300  16.491  0.00  0.00    +0.000 HD
ENDBRANCH  22  26
ENDBRANCH   1  21
BRANCH   2  28
ATOM     28  C   UNL     1      -2.190  11.907  18.083  0.00  0.00    +0.000 C 
BRANCH  28  29
ATOM     29  C   UNL     1      -3.582  11.733  18.600  0.00  0.00    +0.000 A 
ATOM     30  C   UNL     1      -4.062  12.445  19.695  0.00  0.00    +0.000 A 
ATOM     31  C   UNL     1      -5.394  12.306  20.085  0.00  0.00    +0.000 A 
ATOM     32  C   UNL     1      -6.250  11.450  19.381  0.00  0.00    +0.000 A 
ATOM     33  C   UNL     1      -5.784  10.756  18.268  0.00  0.00    +0.000 A 
ATOM     34  C   UNL     1      -4.463  10.903  17.888  0.00  0.00    +0.000 A 
ATOM     35  F   UNL     1      -4.032  10.251  16.795  0.00  0.00    +0.000 F 
ENDBRANCH  28  29
ENDBRANCH   2  28
TORSDOF 8
ENDMDL
MODEL 2
REMARK VINA RESULT:      -7.0      5.311     11.289
REMARK  Name = 
REMARK  9 active torsions:
REMARK  status: ('A' for Active; 'I' for Inactive)
REMARK    1  A    between atoms: C_1  and  O_2
REMARK    2  A    between atoms: O_2  and  C_3
REMARK    3  A    between atoms: C_6  and  C_7
REMARK    4  A    between atoms: C_7  and  C_17
REMARK    5  A    between atoms: N_8  and  C_9
REMARK    6  A    between atoms: C_9  and  C_10
REMARK    7  A    between atoms: N_22  and  C_23
REMARK    8  A    between atoms: C_23  and  C_24
REMARK    9  A    between atoms: C_32  and  O_33
REMARK                            x       y       z     vdW  Elec       q    Type
REMARK                         _______ _______ _______ _____ _____    ______ ____
ROOT
ATOM      1  C   UNL     1       2.592   6.196  18.250  0.00  0.00    +0.000 C 
ATOM      2  N   UNL     1       1.649   5.342  17.996  0.00  0.00    +0.000 NA
ENDROOT
BRANCH   1   3
ATOM      3  C   UNL     1       4.080   5.908  18.237  0.00  0.00    +0.000 A 
ATOM      4  C   UNL     1       4.814   5.444  19.398  0.00  0.00    +0.000 A 
ATOM      5  C   UNL     1       6.150   5.326  19.350  0.00  0.00    +0.000 A 
ATOM      6  C   UNL     1       6.898   5.575  18.077  0.00  0.00    +0.000 A 
ATOM      7  O   UNL     1       8.115   5.461  18.072  0.00  0.00    +0.000 OA
ATOM      8  N   UNL     1       6.126   5.950  16.985  0.00  0.00    +0.000 N 
ATOM      9  C   UNL     1       4.765   6.156  17.104  0.00  0.00    +0.000 A 
BRANCH   8  10
ATOM     10  C   UNL     1       6.766   6.216  15.689  0.00  0.00    +0.000 C 
BRANCH  10  11
ATOM     11  C   UNL     1       6.467   5.202  14.612  0.00  0.00    +0.000 A 
ATOM     12  C   UNL     1       5.323   4.395  14.689  0.00  0.00    +0.000 A 
ATOM     13  C   UNL     1       5.034   3.464  13.687  0.00  0.00    +0.000 A 
ATOM     14  C   UNL     1       5.883   3.328  12.589  0.00  0.00    +0.000 A 
ATOM     15  C   UNL     1       7.040   4.102  12.512  0.00  0.00    +0.000 A 
ATOM     16  C   UNL     1       7.326   5.023  13.523  0.00  0.00    +0.000 A 
ATOM     17  F   UNL     1       8.462   5.732  13.443  0.00  0.00    +0.000 F 
ENDBRANCH  10  11
ENDBRANCH   8  10
ENDBRANCH   1   3
BRANCH   1  21
ATOM     18  C   UNL     1       1.326  10.282  19.090  0.00  0.00    +0.000 A 
ATOM     19  C   UNL     1       1.792   9.897  17.834  0.00  0.00    +0.000 A 
ATOM     20  C   UNL     1       2.199   8.575  17.596  0.00  0.00    +0.000 A 
ATOM     21  C   UNL     1       2.168   7.608  18.617  0.00  0.00    +0.000 A 
ATOM     22  C   UNL     1       1.753   8.034  19.890  0.00  0.00    +0.000 A 
ATOM     23  C   UNL     1       1.301   9.340  20.112  0.00  0.00    +0.000 A 
BRANCH  18  25
ATOM     24  C   UNL     1      -0.292  11.942  18.584  0.00  0.00    +0.000 C 
ATOM     25  O   UNL     1       0.941  11.589  19.207  0.00  0.00    +0.000 OA
ENDBRANCH  18  25
BRANCH  22  26
ATOM     26  O   UNL     1       1.770   7.270  21.026  0.00  0.00    +0.000 OA
ATOM     27  H   UNL     1       0.957   6.739  21.062  0.00  0.00    +0.000 HD
ENDBRANCH  22  26
ENDBRANCH   1  21
BRANCH   2  28
ATOM     28  C   UNL     1       1.977   3.951  17.657  0.00  0.00    +0.000 C 
BRANCH  28  29
ATOM     29  C   UNL     1       2.604   3.137  18.743  0.00  0.00    +0.000 A 
ATOM     30  C   UNL     1       3.748   2.373  18.534  0.00  0.00    +0.000 A 
ATOM     31  C   UNL     1       4.338   1.698  19.602  0.00  0.00    +0.000 A 
ATOM     32  C   UNL     1       3.783   1.784  20.885  0.00  0.00    +0.000 A 
ATOM     33  C   UNL     1       2.655   2.568  21.108  0.00  0.00    +0.000 A 
ATOM     34  C   UNL     1       2.079   3.235  20.043  0.00  0.00    +0.000 A 
ATOM     35  F   UNL     1       1.008   4.013  20.274  0.00  0.00    +0.000 F 
ENDBRANCH  28  29
ENDBRANCH   2  28
TORSDOF 8
ENDMDL
MODEL 3
REMARK VINA RESULT:      -7.0      1.364      1.822
REMARK  Name = 
REMARK  9 active torsions:
REMARK  status: ('A' for Active; 'I' for Inactive)
REMARK    1  A    between atoms: C_1  and  O_2
REMARK    2  A    between atoms: O_2  and  C_3
REMARK    3  A    between atoms: C_6  and  C_7
REMARK    4  A    between atoms: C_7  and  C_17
REMARK    5  A    between atoms: N_8  and  C_9
REMARK    6  A    between atoms: C_9  and  C_10
REMARK    7  A    between atoms: N_22  and  C_23
REMARK    8  A    between atoms: C_23  and  C_24
REMARK    9  A    between atoms: C_32  and  O_33
REMARK                            x       y       z     vdW  Elec       q    Type
REMARK                         _______ _______ _______ _____ _____    ______ ____
ROOT
ATOM      1  C   UNL     1      -0.106  10.763  18.632  0.00  0.00    +0.000 C 
ATOM      2  N   UNL     1      -1.203  10.562  17.970  0.00  0.00    +0.000 NA
ENDROOT
BRANCH   1   3
ATOM      3  C   UNL     1       0.414  12.107  19.104  0.00  0.00    +0.000 A 
ATOM      4  C   UNL     1       1.286  12.950  18.310  0.00  0.00    +0.000 A 
ATOM      5  C   UNL     1       1.807  14.069  18.837  0.00  0.00    +0.000 A 
ATOM      6  C   UNL     1       1.425  14.521  20.212  0.00  0.00    +0.000 A 
ATOM      7  O   UNL     1       1.923  15.544  20.661  0.00  0.00    +0.000 OA
ATOM      8  N   UNL     1       0.532  13.702  20.892  0.00  0.00    +0.000 N 
ATOM      9  C   UNL     1       0.097  12.507  20.351  0.00  0.00    +0.000 A 
BRANCH   8  10
ATOM     10  C   UNL     1       0.094  14.059  22.248  0.00  0.00    +0.000 C 
BRANCH  10  11
ATOM     11  C   UNL     1      -1.358  13.770  22.545  0.00  0.00    +0.000 A 
ATOM     12  C   UNL     1      -2.340  14.745  22.316  0.00  0.00    +0.000 A 
ATOM     13  C   UNL     1      -3.688  14.477  22.575  0.00  0.00    +0.000 A 
ATOM     14  C   UNL     1      -4.075  13.230  23.063  0.00  0.00    +0.000 A 
ATOM     15  C   UNL     1      -3.108  12.260  23.322  0.00  0.00    +0.000 A 
ATOM     16  C   UNL     1      -1.762  12.538  23.069  0.00  0.00    +0.000 A 
ATOM     17  F   UNL     1      -0.847  11.602  23.359  0.00  0.00    +0.000 F 
ENDBRANCH  10  11
ENDBRANCH   8  10
ENDBRANCH   1   3
BRANCH   1  21
ATOM     18  C   UNL     1       2.479   7.329  19.355  0.00  0.00    +0.000 A 
ATOM     19  C   UNL     1       2.368   7.917  18.096  0.00  0.00    +0.000 A 
ATOM     20  C   UNL     1       1.522   9.018  17.893  0.00  0.00    +0.000 A 
ATOM     21  C   UNL     1       0.749   9.547  18.943  0.00  0.00    +0.000 A 
ATOM     22  C   UNL     1       0.831   8.900  20.188  0.00  0.00    +0.000 A 
ATOM     23  C   UNL     1       1.713   7.833  20.399  0.00  0.00    +0.000 A 
BRANCH  18  25
ATOM     24  C   UNL     1       4.085   5.962  18.268  0.00  0.00    +0.000 C 
ATOM     25  O   UNL     1       3.344   6.273  19.445  0.00  0.00    +0.000 OA
ENDBRANCH  18  25
BRANCH  22  26
ATOM     26  O   UNL     1       0.071   9.196  21.287  0.00  0.00    +0.000 OA
ATOM     27  H   UNL     1       0.655   9.301  22.057  0.00  0.00    +0.000 HD
ENDBRANCH  22  26
ENDBRANCH   1  21
BRANCH   2  28
ATOM     28  C   UNL     1      -2.072  11.690  17.610  0.00  0.00    +0.000 C 
BRANCH  28  29
ATOM     29  C   UNL     1      -3.452  11.670  18.184  0.00  0.00    +0.000 A 
ATOM     30  C   UNL     1      -3.758  12.267  19.404  0.00  0.00    +0.000 A 
ATOM     31  C   UNL     1      -5.078  12.291  19.854  0.00  0.00    +0.000 A 
ATOM     32  C   UNL     1      -6.097  11.713  19.087  0.00  0.00    +0.000 A 
ATOM     33  C   UNL     1      -5.803  11.139  17.853  0.00  0.00    +0.000 A 
ATOM     34  C   UNL     1      -4.492  11.123  17.415  0.00  0.00    +0.000 A 
ATOM     35  F   UNL     1      -4.224  10.592  16.209  0.00  0.00    +0.000 F 
ENDBRANCH  28  29
ENDBRANCH   2  28
TORSDOF 8
ENDMDL
MODEL 4
REMARK VINA RESULT:      -7.0      0.889      1.271
REMARK  Name = 
REMARK  9 active torsions:
REMARK  status: ('A' for Active; 'I' for Inactive)
REMARK    1  A    between atoms: C_1  and  O_2
REMARK    2  A    between atoms: O_2  and  C_3
REMARK    3  A    between atoms: C_6  and  C_7
REMARK    4  A    between atoms: C_7  and  C_17
REMARK    5  A    between atoms: N_8  and  C_9
REMARK    6  A    between atoms: C_9  and  C_10
REMARK    7  A    between atoms: N_22  and  C_23
REMARK    8  A    between atoms: C_23  and  C_24
REMARK    9  A    between atoms: C_32  and  O_33
REMARK                            x       y       z     vdW  Elec       q    Type
REMARK                         _______ _______ _______ _____ _____    ______ ____
ROOT
ATOM      1  C   UNL     1      -0.436  10.773  19.218  0.00  0.00    +0.000 C 
ATOM      2  N   UNL     1      -1.358  10.689  18.309  0.00  0.00    +0.000 NA
ENDROOT
BRANCH   1   3
ATOM      3  C   UNL     1      -0.162  11.975  20.100  0.00  0.00    +0.000 A 
ATOM      4  C   UNL     1       0.836  12.981  19.793  0.00  0.00    +0.000 A 
ATOM      5  C   UNL     1       1.110  13.952  20.678  0.00  0.00    +0.000 A 
ATOM      6  C   UNL     1       0.331  14.075  21.950  0.00  0.00    +0.000 A 
ATOM      7  O   UNL     1       0.611  14.971  22.734  0.00  0.00    +0.000 OA
ATOM      8  N   UNL     1      -0.657  13.119  22.149  0.00  0.00    +0.000 N 
ATOM      9  C   UNL     1      -0.840  12.078  21.259  0.00  0.00    +0.000 A 
BRANCH   8  10
ATOM     10  C   UNL     1      -1.479  13.155  23.367  0.00  0.00    +0.000 C 
BRANCH  10  11
ATOM     11  C   UNL     1      -2.887  13.661  23.169  0.00  0.00    +0.000 A 
ATOM     12  C   UNL     1      -3.130  14.822  22.419  0.00  0.00    +0.000 A 
ATOM     13  C   UNL     1      -4.434  15.287  22.221  0.00  0.00    +0.000 A 
ATOM     14  C   UNL     1      -5.515  14.597  22.765  0.00  0.00    +0.000 A 
ATOM     15  C   UNL     1      -5.290  13.457  23.537  0.00  0.00    +0.000 A 
ATOM     16  C   UNL     1      -3.983  13.005  23.738  0.00  0.00    +0.000 A 
ATOM     17  F   UNL     1      -3.789  11.927  24.513  0.00  0.00    +0.000 F 
ENDBRANCH  10  11
ENDBRANCH   8  10
ENDBRANCH   1   3
BRANCH   1  21
ATOM     18  C   UNL     1       2.296   7.395  19.586  0.00  0.00    +0.000 A 
ATOM     19  C   UNL     1       2.208   8.150  18.418  0.00  0.00    +0.000 A 
ATOM     20  C   UNL     1       1.314   9.228  18.326  0.00  0.00    +0.000 A 
ATOM     21  C   UNL     1       0.469   9.566  19.400  0.00  0.00    +0.000 A 
ATOM     22  C   UNL     1       0.531   8.754  20.544  0.00  0.00    +0.000 A 
ATOM     23  C   UNL     1       1.458   7.710  20.650  0.00  0.00    +0.000 A 
BRANCH  18  25
ATOM     24  C   UNL     1       3.197   5.533  18.425  0.00  0.00    +0.000 C 
ATOM     25  O   UNL     1       3.211   6.379  19.572  0.00  0.00    +0.000 OA
ENDBRANCH  18  25
BRANCH  22  26
ATOM     26  O   UNL     1      -0.291   8.855  21.634  0.00  0.00    +0.000 OA
ATOM     27  H   UNL     1      -0.431   9.795  21.838  0.00  0.00    +0.000 HD
ENDBRANCH  22  26
ENDBRANCH   1  21
BRANCH   2  28
ATOM     28  C   UNL     1      -2.257  11.823  18.056  0.00  0.00    +0.000 C 
BRANCH  28  29
ATOM     29  C   UNL     1      -3.654  11.685  18.571  0.00  0.00    +0.000 A 
ATOM     30  C   UNL     1      -4.097  12.357  19.707  0.00  0.00    +0.000 A 
ATOM     31  C   UNL     1      -5.432  12.257  20.097  0.00  0.00    +0.000 A 
ATOM     32  C   UNL     1      -6.330  11.481  19.352  0.00  0.00    +0.000 A 
ATOM     33  C   UNL     1      -5.901  10.829  18.200  0.00  0.00    +0.000 A 
ATOM     34  C   UNL     1      -4.576  10.936  17.821  0.00  0.00    +0.000 A 
ATOM     35  F   UNL     1      -4.179  10.327  16.690  0.00  0.00    +0.000 F 
ENDBRANCH  28  29
ENDBRANCH   2  28
TORSDOF 8
ENDMDL
MODEL 5
REMARK VINA RESULT:      -7.0      2.444      4.154
REMARK  Name = 
REMARK  9 active torsions:
REMARK  status: ('A' for Active; 'I' for Inactive)
REMARK    1  A    between atoms: C_1  and  O_2
REMARK    2  A    between atoms: O_2  and  C_3
REMARK    3  A    between atoms: C_6  and  C_7
REMARK    4  A    between atoms: C_7  and  C_17
REMARK    5  A    between atoms: N_8  and  C_9
REMARK    6  A    between atoms: C_9  and  C_10
REMARK    7  A    between atoms: N_22  and  C_23
REMARK    8  A    between atoms: C_23  and  C_24
REMARK    9  A    between atoms: C_32  and  O_33
REMARK                            x       y       z     vdW  Elec       q    Type
REMARK                         _______ _______ _______ _____ _____    ______ ____
ROOT
ATOM      1  C   UNL     1      -0.151  10.877  19.322  0.00  0.00    +0.000 C 
ATOM      2  N   UNL     1      -1.078  10.873  18.414  0.00  0.00    +0.000 NA
ENDROOT
BRANCH   1   3
ATOM      3  C   UNL     1       0.141  12.006  20.292  0.00  0.00    +0.000 A 
ATOM      4  C   UNL     1      -0.631  12.243  21.496  0.00  0.00    +0.000 A 
ATOM      5  C   UNL     1      -0.395  13.332  22.245  0.00  0.00    +0.000 A 
ATOM      6  C   UNL     1       0.725  14.267  21.911  0.00  0.00    +0.000 A 
ATOM      7  O   UNL     1       0.908  15.250  22.614  0.00  0.00    +0.000 OA
ATOM      8  N   UNL     1       1.469  13.942  20.783  0.00  0.00    +0.000 N 
ATOM      9  C   UNL     1       1.130  12.866  19.984  0.00  0.00    +0.000 A 
BRANCH   8  10
ATOM     10  C   UNL     1       2.592  14.795  20.372  0.00  0.00    +0.000 C 
BRANCH  10  11
ATOM     11  C   UNL     1       2.277  15.772  19.265  0.00  0.00    +0.000 A 
ATOM     12  C   UNL     1       1.100  16.534  19.300  0.00  0.00    +0.000 A 
ATOM     13  C   UNL     1       0.810  17.451  18.284  0.00  0.00    +0.000 A 
ATOM     14  C   UNL     1       1.694  17.623  17.221  0.00  0.00    +0.000 A 
ATOM     15  C   UNL     1       2.855  16.853  17.157  0.00  0.00    +0.000 A 
ATOM     16  C   UNL     1       3.132  15.932  18.170  0.00  0.00    +0.000 A 
ATOM     17  F   UNL     1       4.237  15.179  18.069  0.00  0.00    +0.000 F 
ENDBRANCH  10  11
ENDBRANCH   8  10
ENDBRANCH   1   3
BRANCH   1  21
ATOM     18  C   UNL     1       2.267   7.272  19.723  0.00  0.00    +0.000 A 
ATOM     19  C   UNL     1       1.462   7.740  20.760  0.00  0.00    +0.000 A 
ATOM     20  C   UNL     1       0.700   8.908  20.603  0.00  0.00    +0.000 A 
ATOM     21  C   UNL     1       0.739   9.649  19.408  0.00  0.00    +0.000 A 
ATOM     22  C   UNL     1       1.605   9.193  18.400  0.00  0.00    +0.000 A 
ATOM     23  C   UNL     1       2.326   8.001  18.541  0.00  0.00    +0.000 A 
BRANCH  18  25
ATOM     24  C   UNL     1       2.904   5.117  18.964  0.00  0.00    +0.000 C 
ATOM     25  O   UNL     1       2.955   6.117  19.977  0.00  0.00    +0.000 OA
ENDBRANCH  18  25
BRANCH  22  26
ATOM     26  O   UNL     1       1.865   9.843  17.223  0.00  0.00    +0.000 OA
ATOM     27  H   UNL     1       1.989  10.789  17.406  0.00  0.00    +0.000 HD
ENDBRANCH  22  26
ENDBRANCH   1  21
BRANCH   2  28
ATOM     28  C   UNL     1      -1.964  12.034  18.252  0.00  0.00    +0.000 C 
BRANCH  28  29
ATOM     29  C   UNL     1      -3.375  11.856  18.714  0.00  0.00    +0.000 A 
ATOM     30  C   UNL     1      -3.879  12.513  19.833  0.00  0.00    +0.000 A 
ATOM     31  C   UNL     1      -5.225  12.376  20.172  0.00  0.00    +0.000 A 
ATOM     32  C   UNL     1      -6.072  11.577  19.393  0.00  0.00    +0.000 A 
ATOM     33  C   UNL     1      -5.581  10.939  18.257  0.00  0.00    +0.000 A 
ATOM     34  C   UNL     1      -4.246  11.084  17.928  0.00  0.00    +0.000 A 
ATOM     35  F   UNL     1      -3.790  10.488  16.813  0.00  0.00    +0.000 F 
ENDBRANCH  28  29
ENDBRANCH   2  28
TORSDOF 8
ENDMDL
MODEL 6
REMARK VINA RESULT:      -6.9      3.035      6.971
REMARK  Name = 
REMARK  9 active torsions:
REMARK  status: ('A' for Active; 'I' for Inactive)
REMARK    1  A    between atoms: C_1  and  O_2
REMARK    2  A    between atoms: O_2  and  C_3
REMARK    3  A    between atoms: C_6  and  C_7
REMARK    4  A    between atoms: C_7  and  C_17
REMARK    5  A    between atoms: N_8  and  C_9
REMARK    6  A    between atoms: C_9  and  C_10
REMARK    7  A    between atoms: N_22  and  C_23
REMARK    8  A    between atoms: C_23  and  C_24
REMARK    9  A    between atoms: C_32  and  O_33
REMARK                            x       y       z     vdW  Elec       q    Type
REMARK                         _______ _______ _______ _____ _____    ______ ____
ROOT
ATOM      1  C   UNL     1      -1.147  11.529  18.867  0.00  0.00    +0.000 C 
ATOM      2  N   UNL     1      -0.365  10.704  18.242  0.00  0.00    +0.000 NA
ENDROOT
BRANCH   1   3
ATOM      3  C   UNL     1      -0.760  12.402  20.046  0.00  0.00    +0.000 A 
ATOM      4  C   UNL     1      -0.944  12.004  21.428  0.00  0.00    +0.000 A 
ATOM      5  C   UNL     1      -0.694  12.874  22.419  0.00  0.00    +0.000 A 
ATOM      6  C   UNL     1      -0.130  14.230  22.128  0.00  0.00    +0.000 A 
ATOM      7  O   UNL     1       0.082  14.997  23.056  0.00  0.00    +0.000 OA
ATOM      8  N   UNL     1       0.087  14.520  20.787  0.00  0.00    +0.000 N 
ATOM      9  C   UNL     1      -0.278  13.633  19.791  0.00  0.00    +0.000 A 
BRANCH   8  10
ATOM     10  C   UNL     1       0.639  15.824  20.397  0.00  0.00    +0.000 C 
BRANCH  10  11
ATOM     11  C   UNL     1       1.873  15.759  19.531  0.00  0.00    +0.000 A 
ATOM     12  C   UNL     1       2.992  15.018  19.937  0.00  0.00    +0.000 A 
ATOM     13  C   UNL     1       4.133  14.942  19.131  0.00  0.00    +0.000 A 
ATOM     14  C   UNL     1       4.171  15.603  17.905  0.00  0.00    +0.000 A 
ATOM     15  C   UNL     1       3.078  16.368  17.499  0.00  0.00    +0.000 A 
ATOM     16  C   UNL     1       1.946  16.446  18.314  0.00  0.00    +0.000 A 
ATOM     17  F   UNL     1       0.921  17.216  17.918  0.00  0.00    +0.000 F 
ENDBRANCH  10  11
ENDBRANCH   8  10
ENDBRANCH   1   3
BRANCH   1  21
ATOM     18  C   UNL     1      -5.321  11.912  17.671  0.00  0.00    +0.000 A 
ATOM     19  C   UNL     1      -4.905  12.136  18.982  0.00  0.00    +0.000 A 
ATOM     20  C   UNL     1      -3.555  11.997  19.339  0.00  0.00    +0.000 A 
ATOM     21  C   UNL     1      -2.587  11.613  18.393  0.00  0.00    +0.000 A 
ATOM     22  C   UNL     1      -3.039  11.334  17.092  0.00  0.00    +0.000 A 
ATOM     23  C   UNL     1      -4.377  11.520  16.728  0.00  0.00    +0.000 A 
BRANCH  18  25
ATOM     24  C   UNL     1      -7.239  13.279  17.959  0.00  0.00    +0.000 C 
ATOM     25  O   UNL     1      -6.655  12.091  17.430  0.00  0.00    +0.000 OA
ENDBRANCH  18  25
BRANCH  22  26
ATOM     26  O   UNL     1      -2.269  10.837  16.075  0.00  0.00    +0.000 OA
ATOM     27  H   UNL     1      -1.860  10.004  16.366  0.00  0.00    +0.000 HD
ENDBRANCH  22  26
ENDBRANCH   1  21
BRANCH   2  28
ATOM     28  C   UNL     1       1.036  10.547  18.658  0.00  0.00    +0.000 C 
BRANCH  28  29
ATOM     29  C   UNL     1       1.509   9.145  18.867  0.00  0.00    +0.000 A 
ATOM     30  C   UNL     1       2.178   8.431  17.876  0.00  0.00    +0.000 A 
ATOM     31  C   UNL     1       2.670   7.155  18.152  0.00  0.00    +0.000 A 
ATOM     32  C   UNL     1       2.493   6.588  19.420  0.00  0.00    +0.000 A 
ATOM     33  C   UNL     1       1.850   7.307  20.424  0.00  0.00    +0.000 A 
ATOM     34  C   UNL     1       1.367   8.571  20.141  0.00  0.00    +0.000 A 
ATOM     35  F   UNL     1       0.774   9.268  21.126  0.00  0.00    +0.000 F 
ENDBRANCH  28  29
ENDBRANCH   2  28
TORSDOF 8
ENDMDL
MODEL 7
REMARK VINA RESULT:      -6.9      3.168      6.897
REMARK  Name = 
REMARK  9 active torsions:
REMARK  status: ('A' for Active; 'I' for Inactive)
REMARK    1  A    between atoms: C_1  and  O_2
REMARK    2  A    between atoms: O_2  and  C_3
REMARK    3  A    between atoms: C_6  and  C_7
REMARK    4  A    between atoms: C_7  and  C_17
REMARK    5  A    between atoms: N_8  and  C_9
REMARK    6  A    between atoms: C_9  and  C_10
REMARK    7  A    between atoms: N_22  and  C_23
REMARK    8  A    between atoms: C_23  and  C_24
REMARK    9  A    between atoms: C_32  and  O_33
REMARK                            x       y       z     vdW  Elec       q    Type
REMARK                         _______ _______ _______ _____ _____    ______ ____
ROOT
ATOM      1  C   UNL     1      -1.060  11.462  18.833  0.00  0.00    +0.000 C 
ATOM      2  N   UNL     1      -0.279  10.623  18.226  0.00  0.00    +0.000 NA
ENDROOT
BRANCH   1   3
ATOM      3  C   UNL     1      -0.675  12.354  19.997  0.00  0.00    +0.000 A 
ATOM      4  C   UNL     1      -0.865  11.981  21.385  0.00  0.00    +0.000 A 
ATOM      5  C   UNL     1      -0.616  12.867  22.362  0.00  0.00    +0.000 A 
ATOM      6  C   UNL     1      -0.047  14.216  22.050  0.00  0.00    +0.000 A 
ATOM      7  O   UNL     1       0.164  14.998  22.965  0.00  0.00    +0.000 OA
ATOM      8  N   UNL     1       0.175  14.482  20.704  0.00  0.00    +0.000 N 
ATOM      9  C   UNL     1      -0.189  13.579  19.723  0.00  0.00    +0.000 A 
BRANCH   8  10
ATOM     10  C   UNL     1       0.732  15.778  20.294  0.00  0.00    +0.000 C 
BRANCH  10  11
ATOM     11  C   UNL     1       1.994  15.696  19.469  0.00  0.00    +0.000 A 
ATOM     12  C   UNL     1       3.094  14.951  19.920  0.00  0.00    +0.000 A 
ATOM     13  C   UNL     1       4.259  14.860  19.153  0.00  0.00    +0.000 A 
ATOM     14  C   UNL     1       4.342  15.508  17.922  0.00  0.00    +0.000 A 
ATOM     15  C   UNL     1       3.268  16.275  17.472  0.00  0.00    +0.000 A 
ATOM     16  C   UNL     1       2.111  16.370  18.249  0.00  0.00    +0.000 A 
ATOM     17  F   UNL     1       1.105  17.142  17.812  0.00  0.00    +0.000 F 
ENDBRANCH  10  11
ENDBRANCH   8  10
ENDBRANCH   1   3
BRANCH   1  21
ATOM     18  C   UNL     1      -5.227  11.841  17.611  0.00  0.00    +0.000 A 
ATOM     19  C   UNL     1      -4.816  12.089  18.920  0.00  0.00    +0.000 A 
ATOM     20  C   UNL     1      -3.468  11.952  19.285  0.00  0.00    +0.000 A 
ATOM     21  C   UNL     1      -2.498  11.543  18.350  0.00  0.00    +0.000 A 
ATOM     22  C   UNL     1      -2.946  11.240  17.054  0.00  0.00    +0.000 A 
ATOM     23  C   UNL     1      -4.282  11.425  16.680  0.00  0.00    +0.000 A 
BRANCH  18  25
ATOM     24  C   UNL     1      -7.323  12.619  18.406  0.00  0.00    +0.000 C 
ATOM     25  O   UNL     1      -6.560  12.021  17.361  0.00  0.00    +0.000 OA
ENDBRANCH  18  25
BRANCH  22  26
ATOM     26  O   UNL     1      -2.174  10.719  16.050  0.00  0.00    +0.000 OA
ATOM     27  H   UNL     1      -2.748  10.254  15.419  0.00  0.00    +0.000 HD
ENDBRANCH  22  26
ENDBRANCH   1  21
BRANCH   2  28
ATOM     28  C   UNL     1       1.119  10.469  18.650  0.00  0.00    +0.000 C 
BRANCH  28  29
ATOM     29  C   UNL     1       1.496   9.134  19.208  0.00  0.00    +0.000 A 
ATOM     30  C   UNL     1       1.109   8.724  20.481  0.00  0.00    +0.000 A 
ATOM     31  C   UNL     1       1.418   7.437  20.920  0.00  0.00    +0.000 A 
ATOM     32  C   UNL     1       2.118   6.555  20.088  0.00  0.00    +0.000 A 
ATOM     33  C   UNL     1       2.484   6.948  18.804  0.00  0.00    +0.000 A 
ATOM     34  C   UNL     1       2.172   8.225  18.377  0.00  0.00    +0.000 A 
ATOM     35  F   UNL     1       2.503   8.584  17.124  0.00  0.00    +0.000 F 
ENDBRANCH  28  29
ENDBRANCH   2  28
TORSDOF 8
ENDMDL
MODEL 8
REMARK VINA RESULT:      -6.9      2.898      6.306
REMARK  Name = 
REMARK  9 active torsions:
REMARK  status: ('A' for Active; 'I' for Inactive)
REMARK    1  A    between atoms: C_1  and  O_2
REMARK    2  A    between atoms: O_2  and  C_3
REMARK    3  A    between atoms: C_6  and  C_7
REMARK    4  A    between atoms: C_7  and  C_17
REMARK    5  A    between atoms: N_8  and  C_9
REMARK    6  A    between atoms: C_9  and  C_10
REMARK    7  A    between atoms: N_22  and  C_23
REMARK    8  A    between atoms: C_23  and  C_24
REMARK    9  A    between atoms: C_32  and  O_33
REMARK                            x       y       z     vdW  Elec       q    Type
REMARK                         _______ _______ _______ _____ _____    ______ ____
ROOT
ATOM      1  C   UNL     1       0.144  13.068  19.817  0.00  0.00    +0.000 C 
ATOM      2  N   UNL     1       0.493  12.188  18.930  0.00  0.00    +0.000 NA
ENDROOT
BRANCH   1   3
ATOM      3  C   UNL     1      -0.950  12.902  20.853  0.00  0.00    +0.000 A 
ATOM      4  C   UNL     1      -0.722  12.356  22.177  0.00  0.00    +0.000 A 
ATOM      5  C   UNL     1      -1.757  12.123  22.999  0.00  0.00    +0.000 A 
ATOM      6  C   UNL     1      -3.149  12.511  22.611  0.00  0.00    +0.000 A 
ATOM      7  O   UNL     1      -4.067  12.281  23.384  0.00  0.00    +0.000 OA
ATOM      8  N   UNL     1      -3.288  13.093  21.357  0.00  0.00    +0.000 N 
ATOM      9  C   UNL     1      -2.210  13.223  20.502  0.00  0.00    +0.000 A 
BRANCH   8  10
ATOM     10  C   UNL     1      -4.615  13.510  20.883  0.00  0.00    +0.000 C 
BRANCH  10  11
ATOM     11  C   UNL     1      -5.395  12.443  20.155  0.00  0.00    +0.000 A 
ATOM     12  C   UNL     1      -5.072  12.099  18.833  0.00  0.00    +0.000 A 
ATOM     13  C   UNL     1      -5.782  11.101  18.159  0.00  0.00    +0.000 A 
ATOM     14  C   UNL     1      -6.823  10.427  18.797  0.00  0.00    +0.000 A 
ATOM     15  C   UNL     1      -7.174  10.776  20.100  0.00  0.00    +0.000 A 
ATOM     16  C   UNL     1      -6.466  11.781  20.763  0.00  0.00    +0.000 A 
ATOM     17  F   UNL     1      -6.846  12.123  22.004  0.00  0.00    +0.000 F 
ENDBRANCH  10  11
ENDBRANCH   8  10
ENDBRANCH   1   3
BRANCH   1  21
ATOM     18  C   UNL     1       2.451  16.767  19.834  0.00  0.00    +0.000 A 
ATOM     19  C   UNL     1       2.833  15.655  20.583  0.00  0.00    +0.000 A 
ATOM     20  C   UNL     1       2.066  14.480  20.563  0.00  0.00    +0.000 A 
ATOM     21  C   UNL     1       0.883  14.395  19.805  0.00  0.00    +0.000 A 
ATOM     22  C   UNL     1       0.486  15.547  19.107  0.00  0.00    +0.000 A 
ATOM     23  C   UNL     1       1.278  16.701  19.090  0.00  0.00    +0.000 A 
BRANCH  18  25
ATOM     24  C   UNL     1       3.453  18.419  21.210  0.00  0.00    +0.000 C 
ATOM     25  O   UNL     1       3.279  17.852  19.914  0.00  0.00    +0.000 OA
ENDBRANCH  18  25
BRANCH  22  26
ATOM     26  O   UNL     1      -0.688  15.691  18.416  0.00  0.00    +0.000 OA
ATOM     27  H   UNL     1      -1.420  15.363  18.966  0.00  0.00    +0.000 HD
ENDBRANCH  22  26
ENDBRANCH   1  21
BRANCH   2  28
ATOM     28  C   UNL     1      -0.191  10.889  18.863  0.00  0.00    +0.000 C 
BRANCH  28  29
ATOM     29  C   UNL     1       0.684   9.678  18.926  0.00  0.00    +0.000 A 
ATOM     30  C   UNL     1       1.413   9.230  17.828  0.00  0.00    +0.000 A 
ATOM     31  C   UNL     1       2.276   8.144  17.964  0.00  0.00    +0.000 A 
ATOM     32  C   UNL     1       2.412   7.499  19.200  0.00  0.00    +0.000 A 
ATOM     33  C   UNL     1       1.708   7.959  20.309  0.00  0.00    +0.000 A 
ATOM     34  C   UNL     1       0.856   9.038  20.164  0.00  0.00    +0.000 A 
ATOM     35  F   UNL     1       0.203   9.492  21.248  0.00  0.00    +0.000 F 
ENDBRANCH  28  29
ENDBRANCH   2  28
TORSDOF 8
ENDMDL
MODEL 9
REMARK VINA RESULT:      -6.9      3.101      5.473
REMARK  Name = 
REMARK  9 active torsions:
REMARK  status: ('A' for Active; 'I' for Inactive)
REMARK    1  A    between atoms: C_1  and  O_2
REMARK    2  A    between atoms: O_2  and  C_3
REMARK    3  A    between atoms: C_6  and  C_7
REMARK    4  A    between atoms: C_7  and  C_17
REMARK    5  A    between atoms: N_8  and  C_9
REMARK    6  A    between atoms: C_9  and  C_10
REMARK    7  A    between atoms: N_22  and  C_23
REMARK    8  A    between atoms: C_23  and  C_24
REMARK    9  A    between atoms: C_32  and  O_33
REMARK                            x       y       z     vdW  Elec       q    Type
REMARK                         _______ _______ _______ _____ _____    ______ ____
ROOT
ATOM      1  C   UNL     1      -0.726  12.753  20.136  0.00  0.00    +0.000 C 
ATOM      2  N   UNL     1      -0.640  11.927  19.139  0.00  0.00    +0.000 NA
ENDROOT
BRANCH   1   3
ATOM      3  C   UNL     1      -1.690  12.645  21.300  0.00  0.00    +0.000 A 
ATOM      4  C   UNL     1      -1.376  11.956  22.536  0.00  0.00    +0.000 A 
ATOM      5  C   UNL     1      -2.319  11.793  23.477  0.00  0.00    +0.000 A 
ATOM      6  C   UNL     1      -3.678  12.400  23.317  0.00  0.00    +0.000 A 
ATOM      7  O   UNL     1      -4.512  12.229  24.194  0.00  0.00    +0.000 OA
ATOM      8  N   UNL     1      -3.890  13.107  22.139  0.00  0.00    +0.000 N 
ATOM      9  C   UNL     1      -2.924  13.165  21.153  0.00  0.00    +0.000 A 
BRANCH   8  10
ATOM     10  C   UNL     1      -5.190  13.742  21.887  0.00  0.00    +0.000 C 
BRANCH  10  11
ATOM     11  C   UNL     1      -5.916  13.241  20.662  0.00  0.00    +0.000 A 
ATOM     12  C   UNL     1      -6.358  11.912  20.589  0.00  0.00    +0.000 A 
ATOM     13  C   UNL     1      -7.044  11.447  19.462  0.00  0.00    +0.000 A 
ATOM     14  C   UNL     1      -7.302  12.305  18.394  0.00  0.00    +0.000 A 
ATOM     15  C   UNL     1      -6.845  13.621  18.440  0.00  0.00    +0.000 A 
ATOM     16  C   UNL     1      -6.152  14.075  19.564  0.00  0.00    +0.000 A 
ATOM     17  F   UNL     1      -5.692  15.335  19.570  0.00  0.00    +0.000 F 
ENDBRANCH  10  11
ENDBRANCH   8  10
ENDBRANCH   1   3
BRANCH   1  21
ATOM     18  C   UNL     1       1.782  16.318  20.061  0.00  0.00    +0.000 A 
ATOM     19  C   UNL     1       0.583  16.244  19.355  0.00  0.00    +0.000 A 
ATOM     20  C   UNL     1      -0.200  15.080  19.392  0.00  0.00    +0.000 A 
ATOM     21  C   UNL     1       0.209  13.950  20.126  0.00  0.00    +0.000 A 
ATOM     22  C   UNL     1       1.450  14.026  20.779  0.00  0.00    +0.000 A 
ATOM     23  C   UNL     1       2.205  15.205  20.780  0.00  0.00    +0.000 A 
BRANCH  18  25
ATOM     24  C   UNL     1       3.863  17.450  20.192  0.00  0.00    +0.000 C 
ATOM     25  O   UNL     1       2.456  17.504  19.968  0.00  0.00    +0.000 OA
ENDBRANCH  18  25
BRANCH  22  26
ATOM     26  O   UNL     1       2.064  12.995  21.438  0.00  0.00    +0.000 OA
ATOM     27  H   UNL     1       2.046  12.204  20.873  0.00  0.00    +0.000 HD
ENDBRANCH  22  26
ENDBRANCH   1  21
BRANCH   2  28
ATOM     28  C   UNL     1      -1.527  10.758  19.064  0.00  0.00    +0.000 C 
BRANCH  28  29
ATOM     29  C   UNL     1      -2.436  10.695  17.879  0.00  0.00    +0.000 A 
ATOM     30  C   UNL     1      -3.605  11.447  17.798  0.00  0.00    +0.000 A 
ATOM     31  C   UNL     1      -4.375  11.412  16.635  0.00  0.00    +0.000 A 
ATOM     32  C   UNL     1      -3.978  10.621  15.549  0.00  0.00    +0.000 A 
ATOM     33  C   UNL     1      -2.797   9.888  15.612  0.00  0.00    +0.000 A 
ATOM     34  C   UNL     1      -2.040   9.931  16.768  0.00  0.00    +0.000 A 
ATOM     35  F   UNL     1      -0.886   9.243  16.807  0.00  0.00    +0.000 F 
ENDBRANCH  28  29
ENDBRANCH   2  28
TORSDOF 8
ENDMDL
