MODEL 1
REMARK VINA RESULT:      -8.3      0.000      0.000
REMARK  Name = 
REMARK  8 active torsions:
REMARK  status: ('A' for Active; 'I' for Inactive)
REMARK    1  A    between atoms: C_1  and  C_2
REMARK    2  A    between atoms: C_5  and  C_6
REMARK    3  A    between atoms: C_6  and  N_7
REMARK    4  A    between atoms: N_10  and  CA_11
REMARK    5  A    between atoms: CA_11  and  CB_12
REMARK    6  A    between atoms: CA_11  and  C_19
REMARK    7  A    between atoms: CB_12  and  CG_13
REMARK    8  A    between atoms: C_19  and  OXT_21
REMARK                            x       y       z     vdW  Elec       q    Type
REMARK                         _______ _______ _______ _____ _____    ______ ____
ROOT
ATOM      1  N   UNK A   0       8.237   9.006  17.975  0.00  0.00    +0.000 N 
ATOM      2  C   UNK A   0       7.835   7.711  18.056  0.00  0.00    +0.000 C 
ATOM      3  O   UNK A   0       8.218   6.924  18.910  0.00  0.00    +0.000 OA
ATOM      4  N   PHE A   1       6.920   7.381  17.103  0.00  0.00    +0.000 N 
ATOM      5  H   UNK A   0       7.924   9.588  17.214  0.00  0.00    +0.000 HD
ATOM      6  H   PHE A   1       6.801   7.980  16.294  0.00  0.00    +0.000 HD
ENDROOT
BRANCH   1   7
ATOM      7  C   UNK A   0       9.121   9.589  18.966  0.00  0.00    +0.000 C 
BRANCH   7  12
ATOM      8  C   UNK A   0      11.000  14.918  17.527  0.00  0.00    +0.000 C 
ATOM      9  C   UNK A   0      10.520  13.536  17.860  0.00  0.00    +0.000 A 
ATOM     10  C   UNK A   0       9.234  13.116  17.508  0.00  0.00    +0.000 A 
ATOM     11  C   UNK A   0       8.790  11.834  17.846  0.00  0.00    +0.000 A 
ATOM     12  C   UNK A   0       9.625  10.946  18.540  0.00  0.00    +0.000 A 
ATOM     13  C   UNK A   0      10.915  11.369  18.887  0.00  0.00    +0.000 A 
ATOM     14  C   UNK A   0      11.358  12.652  18.549  0.00  0.00    +0.000 A 
ENDBRANCH   7  12
ENDBRANCH   1   7
BRANCH   4  15
ATOM     15  CA  PHE A   1       6.369   6.029  17.007  0.00  0.00    +0.000 C 
BRANCH  15  16
ATOM     16  C   PHE A   1       7.384   5.147  16.264  0.00  0.00    +0.000 C 
ATOM     17  O   PHE A   1       8.003   4.232  16.800  0.00  0.00    +0.000 OA
BRANCH  16  18
ATOM     18  OXT PHE A   1       7.507   5.394  14.941  0.00  0.00    +0.000 OA
ATOM     19  HXT PHE A   1       7.812   6.289  14.703  0.00  0.00    +0.000 HD
ENDBRANCH  16  18
ENDBRANCH  15  16
BRANCH  15  20
ATOM     20  CB  PHE A   1       4.938   5.995  16.425  0.00  0.00    +0.000 C 
BRANCH  20  21
ATOM     21  CG  PHE A   1       3.931   5.113  17.128  0.00  0.00    +0.000 A 
ATOM     22  CD1 PHE A   1       2.954   5.660  17.970  0.00  0.00    +0.000 A 
ATOM     23  CE1 PHE A   1       2.021   4.838  18.607  0.00  0.00    +0.000 A 
ATOM     24  CZ  PHE A   1       2.044   3.462  18.399  0.00  0.00    +0.000 A 
ATOM     25  CE2 PHE A   1       2.989   2.907  17.541  0.00  0.00    +0.000 A 
ATOM     26  CD2 PHE A   1       3.926   3.727  16.907  0.00  0.00    +0.000 A 
ENDBRANCH  20  21
ENDBRANCH  15  20
ENDBRANCH   4  15
TORSDOF 7
ENDMDL
MODEL 2
REMARK VINA RESULT:      -8.1      1.136      2.085
REMARK  Name = 
REMARK  8 active torsions:
REMARK  status: ('A' for Active; 'I' for Inactive)
REMARK    1  A    between atoms: C_1  and  C_2
REMARK    2  A    between atoms: C_5  and  C_6
REMARK    3  A    between atoms: C_6  and  N_7
REMARK    4  A    between atoms: N_10  and  CA_11
REMARK    5  A    between atoms: CA_11  and  CB_12
REMARK    6  A    between atoms: CA_11  and  C_19
REMARK    7  A    between atoms: CB_12  and  CG_13
REMARK    8  A    between atoms: C_19  and  OXT_21
REMARK                            x       y       z     vdW  Elec       q    Type
REMARK                         _______ _______ _______ _____ _____    ______ ____
ROOT
ATOM      1  N   UNK A   0       8.205   9.041  17.914  0.00  0.00    +0.000 N 
ATOM      2  C   UNK A   0       7.776   7.752  17.958  0.00  0.00    +0.000 C 
ATOM      3  O   UNK A   0       8.152   6.931  18.783  0.00  0.00    +0.000 OA
ATOM      4  N   PHE A   1       6.844   7.472  17.007  0.00  0.00    +0.000 N 
ATOM      5  H   UNK A   0       7.895   9.652  17.175  0.00  0.00    +0.000 HD
ATOM      6  H   PHE A   1       6.729   8.098  16.218  0.00  0.00    +0.000 HD
ENDROOT
BRANCH   1   7
ATOM      7  C   UNK A   0       9.112   9.573  18.912  0.00  0.00    +0.000 C 
BRANCH   7  12
ATOM      8  C   UNK A   0      11.101  14.801  17.263  0.00  0.00    +0.000 C 
ATOM      9  C   UNK A   0      10.589  13.468  17.724  0.00  0.00    +0.000 A 
ATOM     10  C   UNK A   0      11.420  12.572  18.402  0.00  0.00    +0.000 A 
ATOM     11  C   UNK A   0      10.937  11.323  18.805  0.00  0.00    +0.000 A 
ATOM     12  C   UNK A   0       9.612  10.948  18.540  0.00  0.00    +0.000 A 
ATOM     13  C   UNK A   0       8.781  11.850  17.863  0.00  0.00    +0.000 A 
ATOM     14  C   UNK A   0       9.265  13.099  17.460  0.00  0.00    +0.000 A 
ENDBRANCH   7  12
ENDBRANCH   1   7
BRANCH   4  15
ATOM     15  CA  PHE A   1       6.264   6.135  16.875  0.00  0.00    +0.000 C 
BRANCH  15  16
ATOM     16  C   PHE A   1       7.118   5.335  15.880  0.00  0.00    +0.000 C 
ATOM     17  O   PHE A   1       7.093   5.520  14.667  0.00  0.00    +0.000 OA
BRANCH  16  18
ATOM     18  OXT PHE A   1       7.972   4.445  16.434  0.00  0.00    +0.000 OA
ATOM     19  HXT PHE A   1       8.831   4.805  16.724  0.00  0.00    +0.000 HD
ENDBRANCH  16  18
ENDBRANCH  15  16
BRANCH  15  20
ATOM     20  CB  PHE A   1       4.752   6.156  16.555  0.00  0.00    +0.000 C 
BRANCH  20  21
ATOM     21  CG  PHE A   1       3.811   6.453  17.701  0.00  0.00    +0.000 A 
ATOM     22  CD1 PHE A   1       3.635   5.538  18.747  0.00  0.00    +0.000 A 
ATOM     23  CE1 PHE A   1       2.772   5.825  19.807  0.00  0.00    +0.000 A 
ATOM     24  CZ  PHE A   1       2.085   7.035  19.842  0.00  0.00    +0.000 A 
ATOM     25  CE2 PHE A   1       2.272   7.967  18.824  0.00  0.00    +0.000 A 
ATOM     26  CD2 PHE A   1       3.132   7.679  17.762  0.00  0.00    +0.000 A 
ENDBRANCH  20  21
ENDBRANCH  15  20
ENDBRANCH   4  15
TORSDOF 7
ENDMDL
MODEL 3
REMARK VINA RESULT:      -8.1      0.803      1.223
REMARK  Name = 
REMARK  8 active torsions:
REMARK  status: ('A' for Active; 'I' for Inactive)
REMARK    1  A    between atoms: C_1  and  C_2
REMARK    2  A    between atoms: C_5  and  C_6
REMARK    3  A    between atoms: C_6  and  N_7
REMARK    4  A    between atoms: N_10  and  CA_11
REMARK    5  A    between atoms: CA_11  and  CB_12
REMARK    6  A    between atoms: CA_11  and  C_19
REMARK    7  A    between atoms: CB_12  and  CG_13
REMARK    8  A    between atoms: C_19  and  OXT_21
REMARK                            x       y       z     vdW  Elec       q    Type
REMARK                         _______ _______ _______ _____ _____    ______ ____
ROOT
ATOM      1  N   UNK A   0       8.140   9.093  17.835  0.00  0.00    +0.000 N 
ATOM      2  C   UNK A   0       7.734   7.800  17.939  0.00  0.00    +0.000 C 
ATOM      3  O   UNK A   0       8.175   7.004  18.756  0.00  0.00    +0.000 OA
ATOM      4  N   PHE A   1       6.744   7.484  17.059  0.00  0.00    +0.000 N 
ATOM      5  H   UNK A   0       7.773   9.681  17.105  0.00  0.00    +0.000 HD
ATOM      6  H   PHE A   1       6.568   8.089  16.265  0.00  0.00    +0.000 HD
ENDROOT
BRANCH   1   7
ATOM      7  C   UNK A   0       9.103   9.661  18.757  0.00  0.00    +0.000 C 
BRANCH   7  12
ATOM      8  C   UNK A   0      11.173  14.848  17.081  0.00  0.00    +0.000 C 
ATOM      9  C   UNK A   0      10.631  13.507  17.476  0.00  0.00    +0.000 A 
ATOM     10  C   UNK A   0       9.254  13.270  17.519  0.00  0.00    +0.000 A 
ATOM     11  C   UNK A   0       8.761  12.022  17.911  0.00  0.00    +0.000 A 
ATOM     12  C   UNK A   0       9.637  10.985  18.266  0.00  0.00    +0.000 A 
ATOM     13  C   UNK A   0      11.017  11.224  18.218  0.00  0.00    +0.000 A 
ATOM     14  C   UNK A   0      11.508  12.473  17.826  0.00  0.00    +0.000 A 
ENDBRANCH   7  12
ENDBRANCH   1   7
BRANCH   4  15
ATOM     15  CA  PHE A   1       6.177   6.136  16.999  0.00  0.00    +0.000 C 
BRANCH  15  16
ATOM     16  C   PHE A   1       7.013   5.305  16.015  0.00  0.00    +0.000 C 
ATOM     17  O   PHE A   1       6.933   5.419  14.795  0.00  0.00    +0.000 OA
BRANCH  16  18
ATOM     18  OXT PHE A   1       7.916   4.472  16.581  0.00  0.00    +0.000 OA
ATOM     19  HXT PHE A   1       7.691   4.146  17.472  0.00  0.00    +0.000 HD
ENDBRANCH  16  18
ENDBRANCH  15  16
BRANCH  15  20
ATOM     20  CB  PHE A   1       4.657   6.129  16.718  0.00  0.00    +0.000 C 
BRANCH  20  21
ATOM     21  CG  PHE A   1       3.743   5.858  17.892  0.00  0.00    +0.000 A 
ATOM     22  CD1 PHE A   1       3.050   6.898  18.525  0.00  0.00    +0.000 A 
ATOM     23  CE1 PHE A   1       2.200   6.636  19.602  0.00  0.00    +0.000 A 
ATOM     24  CZ  PHE A   1       2.020   5.331  20.050  0.00  0.00    +0.000 A 
ATOM     25  CE2 PHE A   1       2.678   4.282  19.412  0.00  0.00    +0.000 A 
ATOM     26  CD2 PHE A   1       3.533   4.544  18.338  0.00  0.00    +0.000 A 
ENDBRANCH  20  21
ENDBRANCH  15  20
ENDBRANCH   4  15
TORSDOF 7
ENDMDL
MODEL 4
REMARK VINA RESULT:      -7.9      1.036      1.524
REMARK  Name = 
REMARK  8 active torsions:
REMARK  status: ('A' for Active; 'I' for Inactive)
REMARK    1  A    between atoms: C_1  and  C_2
REMARK    2  A    between atoms: C_5  and  C_6
REMARK    3  A    between atoms: C_6  and  N_7
REMARK    4  A    between atoms: N_10  and  CA_11
REMARK    5  A    between atoms: CA_11  and  CB_12
REMARK    6  A    between atoms: CA_11  and  C_19
REMARK    7  A    between atoms: CB_12  and  CG_13
REMARK    8  A    between atoms: C_19  and  OXT_21
REMARK                            x       y       z     vdW  Elec       q    Type
REMARK                         _______ _______ _______ _____ _____    ______ ____
ROOT
ATOM      1  N   UNK A   0       8.109   8.823  17.710  0.00  0.00    +0.000 N 
ATOM      2  C   UNK A   0       7.656   7.545  17.790  0.00  0.00    +0.000 C 
ATOM      3  O   UNK A   0       7.907   6.783  18.713  0.00  0.00    +0.000 OA
ATOM      4  N   PHE A   1       6.852   7.203  16.747  0.00  0.00    +0.000 N 
ATOM      5  H   UNK A   0       7.910   9.382  16.895  0.00  0.00    +0.000 HD
ATOM      6  H   PHE A   1       6.852   7.770  15.907  0.00  0.00    +0.000 HD
ENDROOT
BRANCH   1   7
ATOM      7  C   UNK A   0       8.887   9.420  18.778  0.00  0.00    +0.000 C 
BRANCH   7  12
ATOM      8  C   UNK A   0      11.103  14.514  17.005  0.00  0.00    +0.000 C 
ATOM      9  C   UNK A   0      10.540  13.213  17.497  0.00  0.00    +0.000 A 
ATOM     10  C   UNK A   0      11.378  12.198  17.968  0.00  0.00    +0.000 A 
ATOM     11  C   UNK A   0      10.843  10.982  18.403  0.00  0.00    +0.000 A 
ATOM     12  C   UNK A   0       9.459  10.758  18.376  0.00  0.00    +0.000 A 
ATOM     13  C   UNK A   0       8.622  11.779  17.907  0.00  0.00    +0.000 A 
ATOM     14  C   UNK A   0       9.158  12.996  17.473  0.00  0.00    +0.000 A 
ENDBRANCH   7  12
ENDBRANCH   1   7
BRANCH   4  15
ATOM     15  CA  PHE A   1       6.271   5.864  16.636  0.00  0.00    +0.000 C 
BRANCH  15  16
ATOM     16  C   PHE A   1       6.918   5.156  15.436  0.00  0.00    +0.000 C 
ATOM     17  O   PHE A   1       7.841   5.637  14.785  0.00  0.00    +0.000 OA
BRANCH  16  18
ATOM     18  OXT PHE A   1       6.452   3.914  15.175  0.00  0.00    +0.000 OA
ATOM     19  HXT PHE A   1       6.176   3.393  15.952  0.00  0.00    +0.000 HD
ENDBRANCH  16  18
ENDBRANCH  15  16
BRANCH  15  20
ATOM     20  CB  PHE A   1       4.726   5.871  16.623  0.00  0.00    +0.000 C 
BRANCH  20  21
ATOM     21  CG  PHE A   1       4.027   5.460  17.900  0.00  0.00    +0.000 A 
ATOM     22  CD1 PHE A   1       3.020   6.255  18.462  0.00  0.00    +0.000 A 
ATOM     23  CE1 PHE A   1       2.373   5.862  19.635  0.00  0.00    +0.000 A 
ATOM     24  CZ  PHE A   1       2.713   4.663  20.254  0.00  0.00    +0.000 A 
ATOM     25  CE2 PHE A   1       3.690   3.846  19.691  0.00  0.00    +0.000 A 
ATOM     26  CD2 PHE A   1       4.342   4.241  18.520  0.00  0.00    +0.000 A 
ENDBRANCH  20  21
ENDBRANCH  15  20
ENDBRANCH   4  15
TORSDOF 7
ENDMDL
MODEL 5
REMARK VINA RESULT:      -7.9      0.789      1.569
REMARK  Name = 
REMARK  8 active torsions:
REMARK  status: ('A' for Active; 'I' for Inactive)
REMARK    1  A    between atoms: C_1  and  C_2
REMARK    2  A    between atoms: C_5  and  C_6
REMARK    3  A    between atoms: C_6  and  N_7
REMARK    4  A    between atoms: N_10  and  CA_11
REMARK    5  A    between atoms: CA_11  and  CB_12
REMARK    6  A    between atoms: CA_11  and  C_19
REMARK    7  A    between atoms: CB_12  and  CG_13
REMARK    8  A    between atoms: C_19  and  OXT_21
REMARK                            x       y       z     vdW  Elec       q    Type
REMARK                         _______ _______ _______ _____ _____    ______ ____
ROOT
ATOM      1  N   UNK A   0       8.219   8.972  17.901  0.00  0.00    +0.000 N 
ATOM      2  C   UNK A   0       7.775   7.694  18.026  0.00  0.00    +0.000 C 
ATOM      3  O   UNK A   0       8.131   6.925  18.908  0.00  0.00    +0.000 OA
ATOM      4  N   PHE A   1       6.851   7.361  17.084  0.00  0.00    +0.000 N 
ATOM      5  H   UNK A   0       7.926   9.536  17.120  0.00  0.00    +0.000 HD
ATOM      6  H   PHE A   1       6.753   7.934  16.253  0.00  0.00    +0.000 HD
ENDROOT
BRANCH   1   7
ATOM      7  C   UNK A   0       9.120   9.559  18.874  0.00  0.00    +0.000 C 
BRANCH   7  12
ATOM      8  C   UNK A   0      11.154  14.645  16.872  0.00  0.00    +0.000 C 
ATOM      9  C   UNK A   0      10.641  13.347  17.422  0.00  0.00    +0.000 A 
ATOM     10  C   UNK A   0      11.520  12.342  17.838  0.00  0.00    +0.000 A 
ATOM     11  C   UNK A   0      11.030  11.128  18.327  0.00  0.00    +0.000 A 
ATOM     12  C   UNK A   0       9.649  10.896  18.412  0.00  0.00    +0.000 A 
ATOM     13  C   UNK A   0       8.770  11.907  17.999  0.00  0.00    +0.000 A 
ATOM     14  C   UNK A   0       9.263  13.121  17.510  0.00  0.00    +0.000 A 
ENDBRANCH   7  12
ENDBRANCH   1   7
BRANCH   4  15
ATOM     15  CA  PHE A   1       6.257   6.024  17.034  0.00  0.00    +0.000 C 
BRANCH  15  16
ATOM     16  C   PHE A   1       6.990   5.211  15.957  0.00  0.00    +0.000 C 
ATOM     17  O   PHE A   1       7.536   5.719  14.981  0.00  0.00    +0.000 OA
BRANCH  16  18
ATOM     18  OXT PHE A   1       7.066   3.880  16.186  0.00  0.00    +0.000 OA
ATOM     19  HXT PHE A   1       6.305   3.486  16.652  0.00  0.00    +0.000 HD
ENDBRANCH  16  18
ENDBRANCH  15  16
BRANCH  15  20
ATOM     20  CB  PHE A   1       4.719   6.048  16.888  0.00  0.00    +0.000 C 
BRANCH  20  21
ATOM     21  CG  PHE A   1       3.929   5.118  17.783  0.00  0.00    +0.000 A 
ATOM     22  CD1 PHE A   1       4.575   4.234  18.657  0.00  0.00    +0.000 A 
ATOM     23  CE1 PHE A   1       3.837   3.387  19.487  0.00  0.00    +0.000 A 
ATOM     24  CZ  PHE A   1       2.445   3.424  19.465  0.00  0.00    +0.000 A 
ATOM     25  CE2 PHE A   1       1.789   4.319  18.623  0.00  0.00    +0.000 A 
ATOM     26  CD2 PHE A   1       2.527   5.163  17.789  0.00  0.00    +0.000 A 
ENDBRANCH  20  21
ENDBRANCH  15  20
ENDBRANCH   4  15
TORSDOF 7
ENDMDL
MODEL 6
REMARK VINA RESULT:      -7.8      1.260      1.635
REMARK  Name = 
REMARK  8 active torsions:
REMARK  status: ('A' for Active; 'I' for Inactive)
REMARK    1  A    between atoms: C_1  and  C_2
REMARK    2  A    between atoms: C_5  and  C_6
REMARK    3  A    between atoms: C_6  and  N_7
REMARK    4  A    between atoms: N_10  and  CA_11
REMARK    5  A    between atoms: CA_11  and  CB_12
REMARK    6  A    between atoms: CA_11  and  C_19
REMARK    7  A    between atoms: CB_12  and  CG_13
REMARK    8  A    between atoms: C_19  and  OXT_21
REMARK                            x       y       z     vdW  Elec       q    Type
REMARK                         _______ _______ _______ _____ _____    ______ ____
ROOT
ATOM      1  N   UNK A   0       7.957   8.540  17.630  0.00  0.00    +0.000 N 
ATOM      2  C   UNK A   0       7.550   7.244  17.647  0.00  0.00    +0.000 C 
ATOM      3  O   UNK A   0       7.850   6.440  18.518  0.00  0.00    +0.000 OA
ATOM      4  N   PHE A   1       6.730   6.934  16.606  0.00  0.00    +0.000 N 
ATOM      5  H   UNK A   0       7.717   9.137  16.855  0.00  0.00    +0.000 HD
ATOM      6  H   PHE A   1       6.689   7.548  15.800  0.00  0.00    +0.000 HD
ENDROOT
BRANCH   1   7
ATOM      7  C   UNK A   0       8.743   9.102  18.712  0.00  0.00    +0.000 C 
BRANCH   7  12
ATOM      8  C   UNK A   0      10.049  14.726  17.897  0.00  0.00    +0.000 C 
ATOM      9  C   UNK A   0       9.723  13.272  18.071  0.00  0.00    +0.000 A 
ATOM     10  C   UNK A   0       8.577  12.717  17.494  0.00  0.00    +0.000 A 
ATOM     11  C   UNK A   0       8.272  11.365  17.682  0.00  0.00    +0.000 A 
ATOM     12  C   UNK A   0       9.109  10.542  18.450  0.00  0.00    +0.000 A 
ATOM     13  C   UNK A   0      10.259  11.101  19.023  0.00  0.00    +0.000 A 
ATOM     14  C   UNK A   0      10.563  12.453  18.834  0.00  0.00    +0.000 A 
ENDBRANCH   7  12
ENDBRANCH   1   7
BRANCH   4  15
ATOM     15  CA  PHE A   1       6.192   5.584  16.432  0.00  0.00    +0.000 C 
BRANCH  15  16
ATOM     16  C   PHE A   1       6.927   4.920  15.257  0.00  0.00    +0.000 C 
ATOM     17  O   PHE A   1       7.843   5.459  14.642  0.00  0.00    +0.000 OA
BRANCH  16  18
ATOM     18  OXT PHE A   1       6.549   3.652  14.979  0.00  0.00    +0.000 OA
ATOM     19  HXT PHE A   1       6.580   3.027  15.727  0.00  0.00    +0.000 HD
ENDBRANCH  16  18
ENDBRANCH  15  16
BRANCH  15  20
ATOM     20  CB  PHE A   1       4.650   5.553  16.327  0.00  0.00    +0.000 C 
BRANCH  20  21
ATOM     21  CG  PHE A   1       3.870   6.003  17.542  0.00  0.00    +0.000 A 
ATOM     22  CD1 PHE A   1       3.249   7.259  17.578  0.00  0.00    +0.000 A 
ATOM     23  CE1 PHE A   1       2.523   7.662  18.700  0.00  0.00    +0.000 A 
ATOM     24  CZ  PHE A   1       2.394   6.811  19.794  0.00  0.00    +0.000 A 
ATOM     25  CE2 PHE A   1       2.979   5.547  19.760  0.00  0.00    +0.000 A 
ATOM     26  CD2 PHE A   1       3.711   5.145  18.640  0.00  0.00    +0.000 A 
ENDBRANCH  20  21
ENDBRANCH  15  20
ENDBRANCH   4  15
TORSDOF 7
ENDMDL
MODEL 7
REMARK VINA RESULT:      -7.8      0.923      1.544
REMARK  Name = 
REMARK  8 active torsions:
REMARK  status: ('A' for Active; 'I' for Inactive)
REMARK    1  A    between atoms: C_1  and  C_2
REMARK    2  A    between atoms: C_5  and  C_6
REMARK    3  A    between atoms: C_6  and  N_7
REMARK    4  A    between atoms: N_10  and  CA_11
REMARK    5  A    between atoms: CA_11  and  CB_12
REMARK    6  A    between atoms: CA_11  and  C_19
REMARK    7  A    between atoms: CB_12  and  CG_13
REMARK    8  A    between atoms: C_19  and  OXT_21
REMARK                            x       y       z     vdW  Elec       q    Type
REMARK                         _______ _______ _______ _____ _____    ______ ____
ROOT
ATOM      1  N   UNK A   0       8.097   9.012  17.871  0.00  0.00    +0.000 N 
ATOM      2  C   UNK A   0       7.916   7.667  17.944  0.00  0.00    +0.000 C 
ATOM      3  O   UNK A   0       8.414   6.952  18.801  0.00  0.00    +0.000 OA
ATOM      4  N   PHE A   1       7.081   7.193  16.979  0.00  0.00    +0.000 N 
ATOM      5  H   UNK A   0       7.700   9.536  17.107  0.00  0.00    +0.000 HD
ATOM      6  H   PHE A   1       6.874   7.766  16.169  0.00  0.00    +0.000 HD
ENDROOT
BRANCH   1   7
ATOM      7  C   UNK A   0       8.858   9.730  18.874  0.00  0.00    +0.000 C 
BRANCH   7  12
ATOM      8  C   UNK A   0      11.287  14.660  16.927  0.00  0.00    +0.000 C 
ATOM      9  C   UNK A   0      10.652  13.384  17.392  0.00  0.00    +0.000 A 
ATOM     10  C   UNK A   0       9.261  13.256  17.466  0.00  0.00    +0.000 A 
ATOM     11  C   UNK A   0       8.682  12.069  17.923  0.00  0.00    +0.000 A 
ATOM     12  C   UNK A   0       9.482  10.985  18.314  0.00  0.00    +0.000 A 
ATOM     13  C   UNK A   0      10.875  11.115  18.235  0.00  0.00    +0.000 A 
ATOM     14  C   UNK A   0      11.454  12.303  17.777  0.00  0.00    +0.000 A 
ENDBRANCH   7  12
ENDBRANCH   1   7
BRANCH   4  15
ATOM     15  CA  PHE A   1       6.766   5.767  16.873  0.00  0.00    +0.000 C 
BRANCH  15  16
ATOM     16  C   PHE A   1       6.043   5.531  15.538  0.00  0.00    +0.000 C 
ATOM     17  O   PHE A   1       5.328   6.371  15.000  0.00  0.00    +0.000 OA
BRANCH  16  18
ATOM     18  OXT PHE A   1       6.303   4.347  14.940  0.00  0.00    +0.000 OA
ATOM     19  HXT PHE A   1       7.246   4.116  14.848  0.00  0.00    +0.000 HD
ENDBRANCH  16  18
ENDBRANCH  15  16
BRANCH  15  20
ATOM     20  CB  PHE A   1       6.027   5.215  18.113  0.00  0.00    +0.000 C 
BRANCH  20  21
ATOM     21  CG  PHE A   1       4.540   4.976  17.976  0.00  0.00    +0.000 A 
ATOM     22  CD1 PHE A   1       4.038   3.711  17.644  0.00  0.00    +0.000 A 
ATOM     23  CE1 PHE A   1       2.662   3.497  17.530  0.00  0.00    +0.000 A 
ATOM     24  CZ  PHE A   1       1.771   4.541  17.761  0.00  0.00    +0.000 A 
ATOM     25  CE2 PHE A   1       2.253   5.797  18.121  0.00  0.00    +0.000 A 
ATOM     26  CD2 PHE A   1       3.629   6.012  18.230  0.00  0.00    +0.000 A 
ENDBRANCH  20  21
ENDBRANCH  15  20
ENDBRANCH   4  15
TORSDOF 7
ENDMDL
MODEL 8
REMARK VINA RESULT:      -7.7      1.093      1.573
REMARK  Name = 
REMARK  8 active torsions:
REMARK  status: ('A' for Active; 'I' for Inactive)
REMARK    1  A    between atoms: C_1  and  C_2
REMARK    2  A    between atoms: C_5  and  C_6
REMARK    3  A    between atoms: C_6  and  N_7
REMARK    4  A    between atoms: N_10  and  CA_11
REMARK    5  A    between atoms: CA_11  and  CB_12
REMARK    6  A    between atoms: CA_11  and  C_19
REMARK    7  A    between atoms: CB_12  and  CG_13
REMARK    8  A    between atoms: C_19  and  OXT_21
REMARK                            x       y       z     vdW  Elec       q    Type
REMARK                         _______ _______ _______ _____ _____    ______ ____
ROOT
ATOM      1  N   UNK A   0       8.193   8.985  17.954  0.00  0.00    +0.000 N 
ATOM      2  C   UNK A   0       7.764   7.696  18.005  0.00  0.00    +0.000 C 
ATOM      3  O   UNK A   0       8.203   6.855  18.776  0.00  0.00    +0.000 OA
ATOM      4  N   PHE A   1       6.753   7.441  17.129  0.00  0.00    +0.000 N 
ATOM      5  H   UNK A   0       7.826   9.614  17.258  0.00  0.00    +0.000 HD
ATOM      6  H   PHE A   1       6.576   8.086  16.367  0.00  0.00    +0.000 HD
ENDROOT
BRANCH   1   7
ATOM      7  C   UNK A   0       9.183   9.491  18.884  0.00  0.00    +0.000 C 
BRANCH   7  12
ATOM      8  C   UNK A   0       9.271  15.314  19.177  0.00  0.00    +0.000 C 
ATOM      9  C   UNK A   0       9.215  13.816  19.121  0.00  0.00    +0.000 A 
ATOM     10  C   UNK A   0       9.469  13.042  20.257  0.00  0.00    +0.000 A 
ATOM     11  C   UNK A   0       9.437  11.646  20.186  0.00  0.00    +0.000 A 
ATOM     12  C   UNK A   0       9.148  10.997  18.977  0.00  0.00    +0.000 A 
ATOM     13  C   UNK A   0       8.889  11.776  17.841  0.00  0.00    +0.000 A 
ATOM     14  C   UNK A   0       8.922  13.172  17.913  0.00  0.00    +0.000 A 
ENDBRANCH   7  12
ENDBRANCH   1   7
BRANCH   4  15
ATOM     15  CA  PHE A   1       6.158   6.109  17.016  0.00  0.00    +0.000 C 
BRANCH  15  16
ATOM     16  C   PHE A   1       7.032   5.269  16.072  0.00  0.00    +0.000 C 
ATOM     17  O   PHE A   1       6.970   5.344  14.848  0.00  0.00    +0.000 OA
BRANCH  16  18
ATOM     18  OXT PHE A   1       7.946   4.478  16.678  0.00  0.00    +0.000 OA
ATOM     19  HXT PHE A   1       8.859   4.821  16.695  0.00  0.00    +0.000 HD
ENDBRANCH  16  18
ENDBRANCH  15  16
BRANCH  15  20
ATOM     20  CB  PHE A   1       4.658   6.143  16.645  0.00  0.00    +0.000 C 
BRANCH  20  21
ATOM     21  CG  PHE A   1       3.686   5.596  17.666  0.00  0.00    +0.000 A 
ATOM     22  CD1 PHE A   1       3.411   6.293  18.850  0.00  0.00    +0.000 A 
ATOM     23  CE1 PHE A   1       2.504   5.785  19.782  0.00  0.00    +0.000 A 
ATOM     24  CZ  PHE A   1       1.848   4.582  19.536  0.00  0.00    +0.000 A 
ATOM     25  CE2 PHE A   1       2.087   3.892  18.350  0.00  0.00    +0.000 A 
ATOM     26  CD2 PHE A   1       2.999   4.397  17.419  0.00  0.00    +0.000 A 
ENDBRANCH  20  21
ENDBRANCH  15  20
ENDBRANCH   4  15
TORSDOF 7
ENDMDL
MODEL 9
REMARK VINA RESULT:      -7.7      0.932      1.214
REMARK  Name = 
REMARK  8 active torsions:
REMARK  status: ('A' for Active; 'I' for Inactive)
REMARK    1  A    between atoms: C_1  and  C_2
REMARK    2  A    between atoms: C_5  and  C_6
REMARK    3  A    between atoms: C_6  and  N_7
REMARK    4  A    between atoms: N_10  and  CA_11
REMARK    5  A    between atoms: CA_11  and  CB_12
REMARK    6  A    between atoms: CA_11  and  C_19
REMARK    7  A    between atoms: CB_12  and  CG_13
REMARK    8  A    between atoms: C_19  and  OXT_21
REMARK                            x       y       z     vdW  Elec       q    Type
REMARK                         _______ _______ _______ _____ _____    ______ ____
ROOT
ATOM      1  N   UNK A   0       8.091   9.075  17.901  0.00  0.00    +0.000 N 
ATOM      2  C   UNK A   0       7.885   7.733  17.945  0.00  0.00    +0.000 C 
ATOM      3  O   UNK A   0       8.407   6.984  18.758  0.00  0.00    +0.000 OA
ATOM      4  N   PHE A   1       6.996   7.303  17.008  0.00  0.00    +0.000 N 
ATOM      5  H   UNK A   0       7.671   9.629  17.171  0.00  0.00    +0.000 HD
ATOM      6  H   PHE A   1       6.765   7.904  16.225  0.00  0.00    +0.000 HD
ENDROOT
BRANCH   1   7
ATOM      7  C   UNK A   0       8.914   9.749  18.887  0.00  0.00    +0.000 C 
BRANCH   7  12
ATOM      8  C   UNK A   0      11.307  14.710  16.972  0.00  0.00    +0.000 C 
ATOM      9  C   UNK A   0      10.682  13.424  17.429  0.00  0.00    +0.000 A 
ATOM     10  C   UNK A   0       9.294  13.263  17.442  0.00  0.00    +0.000 A 
ATOM     11  C   UNK A   0       8.723  12.068  17.892  0.00  0.00    +0.000 A 
ATOM     12  C   UNK A   0       9.532  11.011  18.335  0.00  0.00    +0.000 A 
ATOM     13  C   UNK A   0      10.923  11.175  18.316  0.00  0.00    +0.000 A 
ATOM     14  C   UNK A   0      11.492  12.370  17.866  0.00  0.00    +0.000 A 
ENDBRANCH   7  12
ENDBRANCH   1   7
BRANCH   4  15
ATOM     15  CA  PHE A   1       6.646   5.888  16.878  0.00  0.00    +0.000 C 
BRANCH  15  16
ATOM     16  C   PHE A   1       5.873   5.702  15.564  0.00  0.00    +0.000 C 
ATOM     17  O   PHE A   1       5.167   6.574  15.066  0.00  0.00    +0.000 OA
BRANCH  16  18
ATOM     18  OXT PHE A   1       6.075   4.522  14.934  0.00  0.00    +0.000 OA
ATOM     19  HXT PHE A   1       6.996   4.335  14.671  0.00  0.00    +0.000 HD
ENDBRANCH  16  18
ENDBRANCH  15  16
BRANCH  15  20
ATOM     20  CB  PHE A   1       5.938   5.320  18.128  0.00  0.00    +0.000 C 
BRANCH  20  21
ATOM     21  CG  PHE A   1       4.462   5.015  18.002  0.00  0.00    +0.000 A 
ATOM     22  CD1 PHE A   1       3.498   6.014  18.192  0.00  0.00    +0.000 A 
ATOM     23  CE1 PHE A   1       2.138   5.725  18.064  0.00  0.00    +0.000 A 
ATOM     24  CZ  PHE A   1       1.724   4.438  17.729  0.00  0.00    +0.000 A 
ATOM     25  CE2 PHE A   1       2.671   3.442  17.508  0.00  0.00    +0.000 A 
ATOM     26  CD2 PHE A   1       4.032   3.729  17.641  0.00  0.00    +0.000 A 
ENDBRANCH  20  21
ENDBRANCH  15  20
ENDBRANCH   4  15
TORSDOF 7
ENDMDL
