MODEL 1
REMARK VINA RESULT:      -8.0      0.000      0.000
REMARK  Name = 
REMARK  8 active torsions:
REMARK  status: ('A' for Active; 'I' for Inactive)
REMARK    1  A    between atoms: C_1  and  C_2
REMARK    2  A    between atoms: C_2  and  C_3
REMARK    3  A    between atoms: C_2  and  N_4
REMARK    4  A    between atoms: C_7  and  N_8
REMARK    5  A    between atoms: C_9  and  C_11
REMARK    6  A    between atoms: C_14  and  C_15
REMARK    7  A    between atoms: C_15  and  O_16
REMARK    8  A    between atoms: O_16  and  C_17
REMARK                            x       y       z     vdW  Elec       q    Type
REMARK                         _______ _______ _______ _____ _____    ______ ____
ROOT
ATOM      1  C   UNL     1       2.508   7.055  19.073  0.00  0.00    +0.000 A 
ATOM      2  C   UNL     1       1.951   6.451  20.184  0.00  0.00    +0.000 A 
ATOM      3  C   UNL     1       2.673   5.255  20.409  0.00  0.00    +0.000 A 
ATOM      4  C   UNL     1       3.639   5.191  19.427  0.00  0.00    +0.000 A 
ATOM      5  O   UNL     1       3.550   6.286  18.611  0.00  0.00    +0.000 OA
ENDROOT
BRANCH   1   7
ATOM      6  N   UNL     1       1.263   9.075  19.082  0.00  0.00    +0.000 N 
ATOM      7  C   UNL     1       2.170   8.297  18.400  0.00  0.00    +0.000 C 
ATOM      8  O   UNL     1       2.639   8.625  17.313  0.00  0.00    +0.000 OA
ATOM      9  H   UNL     1       1.019   8.757  20.013  0.00  0.00    +0.000 HD
BRANCH   6  13
ATOM     10  N   UNL     1      -0.584  11.692  20.854  0.00  0.00    +0.000 NA
ATOM     11  C   UNL     1       0.886  11.620  20.797  0.00  0.00    +0.000 C 
ATOM     12  C   UNL     1       1.404  11.544  19.360  0.00  0.00    +0.000 C 
ATOM     13  C   UNL     1       0.782  10.369  18.603  0.00  0.00    +0.000 C 
ATOM     14  C   UNL     1      -0.738  10.449  18.705  0.00  0.00    +0.000 C 
ATOM     15  C   UNL     1      -1.213  10.566  20.155  0.00  0.00    +0.000 C 
BRANCH  10  17
ATOM     16  C   UNL     1      -2.490  12.519  22.261  0.00  0.00    +0.000 C 
ATOM     17  C   UNL     1      -1.079  11.911  22.234  0.00  0.00    +0.000 C 
ATOM     18  C   UNL     1      -1.040  10.679  23.149  0.00  0.00    +0.000 C 
ENDBRANCH  10  17
ENDBRANCH   6  13
ENDBRANCH   1   7
BRANCH   4  19
ATOM     19  C   UNL     1       4.709   4.199  19.126  0.00  0.00    +0.000 C 
BRANCH  19  20
ATOM     20  O   UNL     1       4.482   3.748  17.792  0.00  0.00    +0.000 OA
BRANCH  20  21
ATOM     21  C   UNL     1       5.345   4.189  16.824  0.00  0.00    +0.000 A 
ATOM     22  C   UNL     1       6.391   5.092  17.006  0.00  0.00    +0.000 A 
ATOM     23  C   UNL     1       7.202   5.451  15.922  0.00  0.00    +0.000 A 
ATOM     24  C   UNL     1       6.986   4.916  14.643  0.00  0.00    +0.000 A 
ATOM     25  C   UNL     1       7.796   5.264  13.550  0.00  0.00    +0.000 A 
ATOM     26  C   UNL     1       7.565   4.718  12.285  0.00  0.00    +0.000 A 
ATOM     27  C   UNL     1       6.518   3.819  12.097  0.00  0.00    +0.000 A 
ATOM     28  C   UNL     1       5.703   3.466  13.177  0.00  0.00    +0.000 A 
ATOM     29  C   UNL     1       5.923   4.004  14.454  0.00  0.00    +0.000 A 
ATOM     30  C   UNL     1       5.117   3.656  15.552  0.00  0.00    +0.000 A 
ENDBRANCH  20  21
ENDBRANCH  19  20
ENDBRANCH   4  19
TORSDOF 6
ENDMDL
MODEL 2
REMARK VINA RESULT:      -8.0      2.519      9.820
REMARK  Name = 
REMARK  8 active torsions:
REMARK  status: ('A' for Active; 'I' for Inactive)
REMARK    1  A    between atoms: C_1  and  C_2
REMARK    2  A    between atoms: C_2  and  C_3
REMARK    3  A    between atoms: C_2  and  N_4
REMARK    4  A    between atoms: C_7  and  N_8
REMARK    5  A    between atoms: C_9  and  C_11
REMARK    6  A    between atoms: C_14  and  C_15
REMARK    7  A    between atoms: C_15  and  O_16
REMARK    8  A    between atoms: O_16  and  C_17
REMARK                            x       y       z     vdW  Elec       q    Type
REMARK                         _______ _______ _______ _____ _____    ______ ____
ROOT
ATOM      1  C   UNL     1       1.753   6.976  20.374  0.00  0.00    +0.000 A 
ATOM      2  C   UNL     1       1.184   7.663  21.430  0.00  0.00    +0.000 A 
ATOM      3  C   UNL     1       0.924   8.977  20.975  0.00  0.00    +0.000 A 
ATOM      4  C   UNL     1       1.343   9.027  19.663  0.00  0.00    +0.000 A 
ATOM      5  O   UNL     1       1.845   7.811  19.286  0.00  0.00    +0.000 OA
ENDROOT
BRANCH   1   7
ATOM      6  N   UNL     1       2.759   5.281  19.054  0.00  0.00    +0.000 N 
ATOM      7  C   UNL     1       2.214   5.603  20.276  0.00  0.00    +0.000 C 
ATOM      8  O   UNL     1       2.119   4.791  21.193  0.00  0.00    +0.000 OA
ATOM      9  H   UNL     1       2.879   6.051  18.406  0.00  0.00    +0.000 HD
BRANCH   6  13
ATOM     10  N   UNL     1       5.848   4.371  17.313  0.00  0.00    +0.000 NA
ATOM     11  C   UNL     1       5.751   4.558  18.770  0.00  0.00    +0.000 C 
ATOM     12  C   UNL     1       4.650   3.698  19.390  0.00  0.00    +0.000 C 
ATOM     13  C   UNL     1       3.296   3.962  18.727  0.00  0.00    +0.000 C 
ATOM     14  C   UNL     1       3.430   3.794  17.216  0.00  0.00    +0.000 C 
ATOM     15  C   UNL     1       4.570   4.639  16.643  0.00  0.00    +0.000 C 
BRANCH  10  17
ATOM     16  C   UNL     1       7.044   5.004  15.199  0.00  0.00    +0.000 C 
ATOM     17  C   UNL     1       7.007   5.092  16.733  0.00  0.00    +0.000 C 
ATOM     18  C   UNL     1       7.148   6.560  17.161  0.00  0.00    +0.000 C 
ENDBRANCH  10  17
ENDBRANCH   6  13
ENDBRANCH   1   7
BRANCH   4  19
ATOM     19  C   UNL     1       1.334  10.109  18.639  0.00  0.00    +0.000 C 
BRANCH  19  20
ATOM     20  O   UNL     1       0.377   9.728  17.652  0.00  0.00    +0.000 OA
BRANCH  20  21
ATOM     21  C   UNL     1      -0.903  10.187  17.807  0.00  0.00    +0.000 A 
ATOM     22  C   UNL     1      -2.008   9.813  17.042  0.00  0.00    +0.000 A 
ATOM     23  C   UNL     1      -3.267  10.361  17.317  0.00  0.00    +0.000 A 
ATOM     24  C   UNL     1      -3.446  11.286  18.356  0.00  0.00    +0.000 A 
ATOM     25  C   UNL     1      -4.705  11.839  18.645  0.00  0.00    +0.000 A 
ATOM     26  C   UNL     1      -4.863  12.757  19.686  0.00  0.00    +0.000 A 
ATOM     27  C   UNL     1      -3.761  13.137  20.449  0.00  0.00    +0.000 A 
ATOM     28  C   UNL     1      -2.502  12.597  20.170  0.00  0.00    +0.000 A 
ATOM     29  C   UNL     1      -2.328  11.672  19.129  0.00  0.00    +0.000 A 
ATOM     30  C   UNL     1      -1.070  11.114  18.839  0.00  0.00    +0.000 A 
ENDBRANCH  20  21
ENDBRANCH  19  20
ENDBRANCH   4  19
TORSDOF 6
ENDMDL
MODEL 3
REMARK VINA RESULT:      -7.9      6.395      8.586
REMARK  Name = 
REMARK  8 active torsions:
REMARK  status: ('A' for Active; 'I' for Inactive)
REMARK    1  A    between atoms: C_1  and  C_2
REMARK    2  A    between atoms: C_2  and  C_3
REMARK    3  A    between atoms: C_2  and  N_4
REMARK    4  A    between atoms: C_7  and  N_8
REMARK    5  A    between atoms: C_9  and  C_11
REMARK    6  A    between atoms: C_14  and  C_15
REMARK    7  A    between atoms: C_15  and  O_16
REMARK    8  A    between atoms: O_16  and  C_17
REMARK                            x       y       z     vdW  Elec       q    Type
REMARK                         _______ _______ _______ _____ _____    ______ ____
ROOT
ATOM      1  C   UNL     1       8.884   9.557  18.935  0.00  0.00    +0.000 A 
ATOM      2  C   UNL     1       8.219   9.752  17.739  0.00  0.00    +0.000 A 
ATOM      3  C   UNL     1       7.695   8.496  17.350  0.00  0.00    +0.000 A 
ATOM      4  C   UNL     1       8.062   7.598  18.329  0.00  0.00    +0.000 A 
ATOM      5  O   UNL     1       8.782   8.236  19.302  0.00  0.00    +0.000 OA
ENDROOT
BRANCH   1   7
ATOM      6  N   UNL     1      10.526  11.261  19.112  0.00  0.00    +0.000 N 
ATOM      7  C   UNL     1       9.602  10.493  19.783  0.00  0.00    +0.000 C 
ATOM      8  O   UNL     1       9.414  10.589  20.993  0.00  0.00    +0.000 OA
ATOM      9  H   UNL     1      10.528  11.170  18.103  0.00  0.00    +0.000 HD
BRANCH   6  13
ATOM     10  N   UNL     1      10.802  14.847  18.432  0.00  0.00    +0.000 NA
ATOM     11  C   UNL     1       9.845  14.264  19.387  0.00  0.00    +0.000 C 
ATOM     12  C   UNL     1      10.533  13.376  20.424  0.00  0.00    +0.000 C 
ATOM     13  C   UNL     1      11.359  12.274  19.756  0.00  0.00    +0.000 C 
ATOM     14  C   UNL     1      12.319  12.901  18.750  0.00  0.00    +0.000 C 
ATOM     15  C   UNL     1      11.597  13.814  17.757  0.00  0.00    +0.000 C 
BRANCH  10  17
ATOM     16  C   UNL     1       8.634  15.884  17.712  0.00  0.00    +0.000 C 
ATOM     17  C   UNL     1      10.157  15.820  17.518  0.00  0.00    +0.000 C 
ATOM     18  C   UNL     1      10.734  17.242  17.559  0.00  0.00    +0.000 C 
ENDBRANCH  10  17
ENDBRANCH   6  13
ENDBRANCH   1   7
BRANCH   4  19
ATOM     19  C   UNL     1       7.815   6.140  18.508  0.00  0.00    +0.000 C 
BRANCH  19  20
ATOM     20  O   UNL     1       7.221   5.676  17.296  0.00  0.00    +0.000 OA
BRANCH  20  21
ATOM     21  C   UNL     1       5.958   5.155  17.375  0.00  0.00    +0.000 A 
ATOM     22  C   UNL     1       5.331   4.372  16.406  0.00  0.00    +0.000 A 
ATOM     23  C   UNL     1       4.030   3.899  16.623  0.00  0.00    +0.000 A 
ATOM     24  C   UNL     1       3.336   4.196  17.805  0.00  0.00    +0.000 A 
ATOM     25  C   UNL     1       2.034   3.723  18.037  0.00  0.00    +0.000 A 
ATOM     26  C   UNL     1       1.361   4.028  19.222  0.00  0.00    +0.000 A 
ATOM     27  C   UNL     1       1.981   4.814  20.190  0.00  0.00    +0.000 A 
ATOM     28  C   UNL     1       3.277   5.293  19.972  0.00  0.00    +0.000 A 
ATOM     29  C   UNL     1       3.967   4.994  18.787  0.00  0.00    +0.000 A 
ATOM     30  C   UNL     1       5.272   5.462  18.553  0.00  0.00    +0.000 A 
ENDBRANCH  20  21
ENDBRANCH  19  20
ENDBRANCH   4  19
TORSDOF 6
ENDMDL
MODEL 4
REMARK VINA RESULT:      -7.9      2.581     10.979
REMARK  Name = 
REMARK  8 active torsions:
REMARK  status: ('A' for Active; 'I' for Inactive)
REMARK    1  A    between atoms: C_1  and  C_2
REMARK    2  A    between atoms: C_2  and  C_3
REMARK    3  A    between atoms: C_2  and  N_4
REMARK    4  A    between atoms: C_7  and  N_8
REMARK    5  A    between atoms: C_9  and  C_11
REMARK    6  A    between atoms: C_14  and  C_15
REMARK    7  A    between atoms: C_15  and  O_16
REMARK    8  A    between atoms: O_16  and  C_17
REMARK                            x       y       z     vdW  Elec       q    Type
REMARK                         _______ _______ _______ _____ _____    ______ ____
ROOT
ATOM      1  C   UNL     1       1.827   6.956  20.268  0.00  0.00    +0.000 A 
ATOM      2  C   UNL     1       1.913   7.987  19.352  0.00  0.00    +0.000 A 
ATOM      3  C   UNL     1       1.326   9.125  19.954  0.00  0.00    +0.000 A 
ATOM      4  C   UNL     1       0.914   8.733  21.211  0.00  0.00    +0.000 A 
ATOM      5  O   UNL     1       1.220   7.415  21.413  0.00  0.00    +0.000 OA
ENDROOT
BRANCH   1   7
ATOM      6  N   UNL     1       2.809   5.232  18.966  0.00  0.00    +0.000 N 
ATOM      7  C   UNL     1       2.270   5.576  20.185  0.00  0.00    +0.000 C 
ATOM      8  O   UNL     1       2.166   4.776  21.112  0.00  0.00    +0.000 OA
ATOM      9  H   UNL     1       2.938   5.993  18.309  0.00  0.00    +0.000 HD
BRANCH   6  13
ATOM     10  N   UNL     1       5.908   4.262  17.277  0.00  0.00    +0.000 NA
ATOM     11  C   UNL     1       5.792   4.457  18.732  0.00  0.00    +0.000 C 
ATOM     12  C   UNL     1       4.667   3.619  19.339  0.00  0.00    +0.000 C 
ATOM     13  C   UNL     1       3.328   3.903  18.654  0.00  0.00    +0.000 C 
ATOM     14  C   UNL     1       3.483   3.725  17.146  0.00  0.00    +0.000 C 
ATOM     15  C   UNL     1       4.645   4.548  16.586  0.00  0.00    +0.000 C 
BRANCH  10  17
ATOM     16  C   UNL     1       7.149   4.862  15.180  0.00  0.00    +0.000 C 
ATOM     17  C   UNL     1       7.088   4.960  16.712  0.00  0.00    +0.000 C 
ATOM     18  C   UNL     1       7.246   6.428  17.133  0.00  0.00    +0.000 C 
ENDBRANCH  10  17
ENDBRANCH   6  13
ENDBRANCH   1   7
BRANCH   4  19
ATOM     19  C   UNL     1       0.243   9.458  22.326  0.00  0.00    +0.000 C 
BRANCH  19  20
ATOM     20  O   UNL     1       0.394  10.850  22.056  0.00  0.00    +0.000 OA
BRANCH  20  21
ATOM     21  C   UNL     1      -0.748  11.590  21.911  0.00  0.00    +0.000 A 
ATOM     22  C   UNL     1      -1.098  12.353  20.798  0.00  0.00    +0.000 A 
ATOM     23  C   UNL     1      -2.308  13.059  20.784  0.00  0.00    +0.000 A 
ATOM     24  C   UNL     1      -3.187  13.016  21.876  0.00  0.00    +0.000 A 
ATOM     25  C   UNL     1      -4.405  13.715  21.873  0.00  0.00    +0.000 A 
ATOM     26  C   UNL     1      -5.268  13.656  22.969  0.00  0.00    +0.000 A 
ATOM     27  C   UNL     1      -4.921  12.900  24.086  0.00  0.00    +0.000 A 
ATOM     28  C   UNL     1      -3.711  12.201  24.104  0.00  0.00    +0.000 A 
ATOM     29  C   UNL     1      -2.833  12.248  23.009  0.00  0.00    +0.000 A 
ATOM     30  C   UNL     1      -1.615  11.547  23.007  0.00  0.00    +0.000 A 
ENDBRANCH  20  21
ENDBRANCH  19  20
ENDBRANCH   4  19
TORSDOF 6
ENDMDL
MODEL 5
REMARK VINA RESULT:      -7.9      2.900      9.917
REMARK  Name = 
REMARK  8 active torsions:
REMARK  status: ('A' for Active; 'I' for Inactive)
REMARK    1  A    between atoms: C_1  and  C_2
REMARK    2  A    between atoms: C_2  and  C_3
REMARK    3  A    between atoms: C_2  and  N_4
REMARK    4  A    between atoms: C_7  and  N_8
REMARK    5  A    between atoms: C_9  and  C_11
REMARK    6  A    between atoms: C_14  and  C_15
REMARK    7  A    between atoms: C_15  and  O_16
REMARK    8  A    between atoms: O_16  and  C_17
REMARK                            x       y       z     vdW  Elec       q    Type
REMARK                         _______ _______ _______ _____ _____    ______ ____
ROOT
ATOM      1  C   UNL     1       1.602   7.602  20.471  0.00  0.00    +0.000 A 
ATOM      2  C   UNL     1       1.367   8.440  21.544  0.00  0.00    +0.000 A 
ATOM      3  C   UNL     1       0.900   9.667  21.016  0.00  0.00    +0.000 A 
ATOM      4  C   UNL     1       0.868   9.516  19.646  0.00  0.00    +0.000 A 
ATOM      5  O   UNL     1       1.289   8.259  19.304  0.00  0.00    +0.000 OA
ENDROOT
BRANCH   1   7
ATOM      6  N   UNL     1       3.337   6.097  19.874  0.00  0.00    +0.000 N 
ATOM      7  C   UNL     1       2.083   6.233  20.425  0.00  0.00    +0.000 C 
ATOM      8  O   UNL     1       1.430   5.274  20.830  0.00  0.00    +0.000 OA
ATOM      9  H   UNL     1       3.824   6.961  19.666  0.00  0.00    +0.000 HD
BRANCH   6  13
ATOM     10  N   UNL     1       5.044   4.663  16.971  0.00  0.00    +0.000 NA
ATOM     11  C   UNL     1       5.705   5.512  17.976  0.00  0.00    +0.000 C 
ATOM     12  C   UNL     1       5.510   4.983  19.397  0.00  0.00    +0.000 C 
ATOM     13  C   UNL     1       4.026   4.817  19.732  0.00  0.00    +0.000 C 
ATOM     14  C   UNL     1       3.358   3.961  18.660  0.00  0.00    +0.000 C 
ATOM     15  C   UNL     1       3.612   4.501  17.252  0.00  0.00    +0.000 C 
BRANCH  10  17
ATOM     16  C   UNL     1       5.229   6.613  15.403  0.00  0.00    +0.000 C 
ATOM     17  C   UNL     1       5.353   5.092  15.587  0.00  0.00    +0.000 C 
ATOM     18  C   UNL     1       6.711   4.625  15.042  0.00  0.00    +0.000 C 
ENDBRANCH  10  17
ENDBRANCH   6  13
ENDBRANCH   1   7
BRANCH   4  19
ATOM     19  C   UNL     1       0.467  10.427  18.538  0.00  0.00    +0.000 C 
BRANCH  19  20
ATOM     20  O   UNL     1      -0.424   9.688  17.705  0.00  0.00    +0.000 OA
BRANCH  20  21
ATOM     21  C   UNL     1      -1.654  10.237  17.457  0.00  0.00    +0.000 A 
ATOM     22  C   UNL     1      -2.360  10.160  16.258  0.00  0.00    +0.000 A 
ATOM     23  C   UNL     1      -3.618  10.768  16.146  0.00  0.00    +0.000 A 
ATOM     24  C   UNL     1      -4.190  11.459  17.225  0.00  0.00    +0.000 A 
ATOM     25  C   UNL     1      -5.452  12.067  17.127  0.00  0.00    +0.000 A 
ATOM     26  C   UNL     1      -6.005  12.748  18.214  0.00  0.00    +0.000 A 
ATOM     27  C   UNL     1      -5.300  12.832  19.413  0.00  0.00    +0.000 A 
ATOM     28  C   UNL     1      -4.042  12.232  19.523  0.00  0.00    +0.000 A 
ATOM     29  C   UNL     1      -3.473  11.543  18.440  0.00  0.00    +0.000 A 
ATOM     30  C   UNL     1      -2.212  10.929  18.535  0.00  0.00    +0.000 A 
ENDBRANCH  20  21
ENDBRANCH  19  20
ENDBRANCH   4  19
TORSDOF 6
ENDMDL
MODEL 6
REMARK VINA RESULT:      -7.8      3.613      5.815
REMARK  Name = 
REMARK  8 active torsions:
REMARK  status: ('A' for Active; 'I' for Inactive)
REMARK    1  A    between atoms: C_1  and  C_2
REMARK    2  A    between atoms: C_2  and  C_3
REMARK    3  A    between atoms: C_2  and  N_4
REMARK    4  A    between atoms: C_7  and  N_8
REMARK    5  A    between atoms: C_9  and  C_11
REMARK    6  A    between atoms: C_14  and  C_15
REMARK    7  A    between atoms: C_15  and  O_16
REMARK    8  A    between atoms: O_16  and  C_17
REMARK                            x       y       z     vdW  Elec       q    Type
REMARK                         _______ _______ _______ _____ _____    ______ ____
ROOT
ATOM      1  C   UNL     1      -0.109  11.026  19.640  0.00  0.00    +0.000 A 
ATOM      2  C   UNL     1      -1.117  10.685  18.759  0.00  0.00    +0.000 A 
ATOM      3  C   UNL     1      -0.567   9.760  17.840  0.00  0.00    +0.000 A 
ATOM      4  C   UNL     1       0.749   9.580  18.208  0.00  0.00    +0.000 A 
ATOM      5  O   UNL     1       1.037  10.343  19.307  0.00  0.00    +0.000 OA
ENDROOT
BRANCH   1   7
ATOM      6  N   UNL     1      -1.264  12.667  20.907  0.00  0.00    +0.000 N 
ATOM      7  C   UNL     1      -0.110  11.927  20.780  0.00  0.00    +0.000 C 
ATOM      8  O   UNL     1       0.834  12.032  21.559  0.00  0.00    +0.000 OA
ATOM      9  H   UNL     1      -2.015  12.428  20.270  0.00  0.00    +0.000 HD
BRANCH   6  13
ATOM     10  N   UNL     1      -4.347  13.482  22.703  0.00  0.00    +0.000 NA
ATOM     11  C   UNL     1      -3.403  12.434  23.126  0.00  0.00    +0.000 C 
ATOM     12  C   UNL     1      -1.978  12.966  23.272  0.00  0.00    +0.000 C 
ATOM     13  C   UNL     1      -1.494  13.630  21.981  0.00  0.00    +0.000 C 
ATOM     14  C   UNL     1      -2.504  14.689  21.547  0.00  0.00    +0.000 C 
ATOM     15  C   UNL     1      -3.924  14.125  21.454  0.00  0.00    +0.000 C 
BRANCH  10  17
ATOM     16  C   UNL     1      -6.745  14.100  23.111  0.00  0.00    +0.000 C 
ATOM     17  C   UNL     1      -5.750  13.002  22.702  0.00  0.00    +0.000 C 
ATOM     18  C   UNL     1      -6.221  12.353  21.392  0.00  0.00    +0.000 C 
ENDBRANCH  10  17
ENDBRANCH   6  13
ENDBRANCH   1   7
BRANCH   4  19
ATOM     19  C   UNL     1       1.846   8.737  17.655  0.00  0.00    +0.000 C 
BRANCH  19  20
ATOM     20  O   UNL     1       2.580   8.238  18.772  0.00  0.00    +0.000 OA
BRANCH  20  21
ATOM     21  C   UNL     1       2.300   6.965  19.190  0.00  0.00    +0.000 A 
ATOM     22  C   UNL     1       1.833   6.599  20.452  0.00  0.00    +0.000 A 
ATOM     23  C   UNL     1       1.583   5.252  20.742  0.00  0.00    +0.000 A 
ATOM     24  C   UNL     1       1.790   4.251  19.782  0.00  0.00    +0.000 A 
ATOM     25  C   UNL     1       1.537   2.897  20.058  0.00  0.00    +0.000 A 
ATOM     26  C   UNL     1       1.747   1.915  19.087  0.00  0.00    +0.000 A 
ATOM     27  C   UNL     1       2.218   2.276  17.826  0.00  0.00    +0.000 A 
ATOM     28  C   UNL     1       2.476   3.620  17.539  0.00  0.00    +0.000 A 
ATOM     29  C   UNL     1       2.268   4.618  18.503  0.00  0.00    +0.000 A 
ATOM     30  C   UNL     1       2.516   5.974  18.229  0.00  0.00    +0.000 A 
ENDBRANCH  20  21
ENDBRANCH  19  20
ENDBRANCH   4  19
TORSDOF 6
ENDMDL
MODEL 7
REMARK VINA RESULT:      -7.8      2.770     10.339
REMARK  Name = 
REMARK  8 active torsions:
REMARK  status: ('A' for Active; 'I' for Inactive)
REMARK    1  A    between atoms: C_1  and  C_2
REMARK    2  A    between atoms: C_2  and  C_3
REMARK    3  A    between atoms: C_2  and  N_4
REMARK    4  A    between atoms: C_7  and  N_8
REMARK    5  A    between atoms: C_9  and  C_11
REMARK    6  A    between atoms: C_14  and  C_15
REMARK    7  A    between atoms: C_15  and  O_16
REMARK    8  A    between atoms: O_16  and  C_17
REMARK                            x       y       z     vdW  Elec       q    Type
REMARK                         _______ _______ _______ _____ _____    ______ ____
ROOT
ATOM      1  C   UNL     1       2.648   7.334  18.840  0.00  0.00    +0.000 A 
ATOM      2  C   UNL     1       2.519   8.181  17.755  0.00  0.00    +0.000 A 
ATOM      3  C   UNL     1       1.696   9.256  18.166  0.00  0.00    +0.000 A 
ATOM      4  C   UNL     1       1.366   9.014  19.483  0.00  0.00    +0.000 A 
ATOM      5  O   UNL     1       1.946   7.848  19.904  0.00  0.00    +0.000 OA
ENDROOT
BRANCH   1   7
ATOM      6  N   UNL     1       4.504   6.001  18.200  0.00  0.00    +0.000 N 
ATOM      7  C   UNL     1       3.378   6.087  18.986  0.00  0.00    +0.000 C 
ATOM      8  O   UNL     1       3.022   5.180  19.735  0.00  0.00    +0.000 OA
ATOM      9  H   UNL     1       4.758   6.843  17.698  0.00  0.00    +0.000 HD
BRANCH   6  13
ATOM     10  N   UNL     1       6.274   4.437  15.404  0.00  0.00    +0.000 NA
ATOM     11  C   UNL     1       6.831   5.528  16.221  0.00  0.00    +0.000 C 
ATOM     12  C   UNL     1       6.809   5.199  17.714  0.00  0.00    +0.000 C 
ATOM     13  C   UNL     1       5.398   4.845  18.187  0.00  0.00    +0.000 C 
ATOM     14  C   UNL     1       4.831   3.736  17.305  0.00  0.00    +0.000 C 
ATOM     15  C   UNL     1       4.910   4.088  15.818  0.00  0.00    +0.000 C 
BRANCH  10  17
ATOM     16  C   UNL     1       7.812   5.262  13.601  0.00  0.00    +0.000 C 
ATOM     17  C   UNL     1       6.428   4.694  13.952  0.00  0.00    +0.000 C 
ATOM     18  C   UNL     1       6.124   3.498  13.038  0.00  0.00    +0.000 C 
ENDBRANCH  10  17
ENDBRANCH   6  13
ENDBRANCH   1   7
BRANCH   4  19
ATOM     19  C   UNL     1       0.546   9.765  20.474  0.00  0.00    +0.000 C 
BRANCH  19  20
ATOM     20  O   UNL     1       0.315  11.058  19.915  0.00  0.00    +0.000 OA
BRANCH  20  21
ATOM     21  C   UNL     1      -0.986  11.469  19.798  0.00  0.00    +0.000 A 
ATOM     22  C   UNL     1      -1.692  12.233  20.726  0.00  0.00    +0.000 A 
ATOM     23  C   UNL     1      -3.023  12.588  20.473  0.00  0.00    +0.000 A 
ATOM     24  C   UNL     1      -3.670  12.189  19.293  0.00  0.00    +0.000 A 
ATOM     25  C   UNL     1      -5.002  12.543  19.025  0.00  0.00    +0.000 A 
ATOM     26  C   UNL     1      -5.628  12.137  17.843  0.00  0.00    +0.000 A 
ATOM     27  C   UNL     1      -4.927  11.369  16.916  0.00  0.00    +0.000 A 
ATOM     28  C   UNL     1      -3.601  11.009  17.172  0.00  0.00    +0.000 A 
ATOM     29  C   UNL     1      -2.958  11.409  18.353  0.00  0.00    +0.000 A 
ATOM     30  C   UNL     1      -1.624  11.060  18.624  0.00  0.00    +0.000 A 
ENDBRANCH  20  21
ENDBRANCH  19  20
ENDBRANCH   4  19
TORSDOF 6
ENDMDL
MODEL 8
REMARK VINA RESULT:      -7.8      3.134      9.889
REMARK  Name = 
REMARK  8 active torsions:
REMARK  status: ('A' for Active; 'I' for Inactive)
REMARK    1  A    between atoms: C_1  and  C_2
REMARK    2  A    between atoms: C_2  and  C_3
REMARK    3  A    between atoms: C_2  and  N_4
REMARK    4  A    between atoms: C_7  and  N_8
REMARK    5  A    between atoms: C_9  and  C_11
REMARK    6  A    between atoms: C_14  and  C_15
REMARK    7  A    between atoms: C_15  and  O_16
REMARK    8  A    between atoms: O_16  and  C_17
REMARK                            x       y       z     vdW  Elec       q    Type
REMARK                         _______ _______ _______ _____ _____    ______ ____
ROOT
ATOM      1  C   UNL     1       1.507   7.799  20.534  0.00  0.00    +0.000 A 
ATOM      2  C   UNL     1       1.480   8.472  21.741  0.00  0.00    +0.000 A 
ATOM      3  C   UNL     1       1.058   9.795  21.466  0.00  0.00    +0.000 A 
ATOM      4  C   UNL     1       0.845   9.862  20.106  0.00  0.00    +0.000 A 
ATOM      5  O   UNL     1       1.111   8.650  19.530  0.00  0.00    +0.000 OA
ENDROOT
BRANCH   1   7
ATOM      6  N   UNL     1       2.672   6.290  19.122  0.00  0.00    +0.000 N 
ATOM      7  C   UNL     1       1.860   6.425  20.224  0.00  0.00    +0.000 C 
ATOM      8  O   UNL     1       1.463   5.462  20.877  0.00  0.00    +0.000 OA
ATOM      9  H   UNL     1       3.019   7.153  18.720  0.00  0.00    +0.000 HD
BRANCH   6  13
ATOM     10  N   UNL     1       6.030   5.319  18.036  0.00  0.00    +0.000 NA
ATOM     11  C   UNL     1       5.551   5.204  19.424  0.00  0.00    +0.000 C 
ATOM     12  C   UNL     1       4.250   4.407  19.520  0.00  0.00    +0.000 C 
ATOM     13  C   UNL     1       3.161   5.005  18.627  0.00  0.00    +0.000 C 
ATOM     14  C   UNL     1       3.693   5.143  17.203  0.00  0.00    +0.000 C 
ATOM     15  C   UNL     1       5.016   5.910  17.156  0.00  0.00    +0.000 C 
BRANCH  10  17
ATOM     16  C   UNL     1       7.298   7.369  17.336  0.00  0.00    +0.000 C 
ATOM     17  C   UNL     1       7.363   5.965  17.958  0.00  0.00    +0.000 C 
ATOM     18  C   UNL     1       8.139   6.031  19.281  0.00  0.00    +0.000 C 
ENDBRANCH  10  17
ENDBRANCH   6  13
ENDBRANCH   1   7
BRANCH   4  19
ATOM     19  C   UNL     1       0.389  10.960  19.208  0.00  0.00    +0.000 C 
BRANCH  19  20
ATOM     20  O   UNL     1      -0.207  10.336  18.072  0.00  0.00    +0.000 OA
BRANCH  20  21
ATOM     21  C   UNL     1      -1.518  10.632  17.808  0.00  0.00    +0.000 A 
ATOM     22  C   UNL     1      -2.228  10.267  16.665  0.00  0.00    +0.000 A 
ATOM     23  C   UNL     1      -3.573  10.636  16.530  0.00  0.00    +0.000 A 
ATOM     24  C   UNL     1      -4.230  11.370  17.528  0.00  0.00    +0.000 A 
ATOM     25  C   UNL     1      -5.579  11.740  17.407  0.00  0.00    +0.000 A 
ATOM     26  C   UNL     1      -6.216  12.469  18.414  0.00  0.00    +0.000 A 
ATOM     27  C   UNL     1      -5.509  12.841  19.555  0.00  0.00    +0.000 A 
ATOM     28  C   UNL     1      -4.164  12.480  19.688  0.00  0.00    +0.000 A 
ATOM     29  C   UNL     1      -3.511  11.746  18.686  0.00  0.00    +0.000 A 
ATOM     30  C   UNL     1      -2.162  11.370  18.805  0.00  0.00    +0.000 A 
ENDBRANCH  20  21
ENDBRANCH  19  20
ENDBRANCH   4  19
TORSDOF 6
ENDMDL
MODEL 9
REMARK VINA RESULT:      -7.7      3.140      9.777
REMARK  Name = 
REMARK  8 active torsions:
REMARK  status: ('A' for Active; 'I' for Inactive)
REMARK    1  A    between atoms: C_1  and  C_2
REMARK    2  A    between atoms: C_2  and  C_3
REMARK    3  A    between atoms: C_2  and  N_4
REMARK    4  A    between atoms: C_7  and  N_8
REMARK    5  A    between atoms: C_9  and  C_11
REMARK    6  A    between atoms: C_14  and  C_15
REMARK    7  A    between atoms: C_15  and  O_16
REMARK    8  A    between atoms: O_16  and  C_17
REMARK                            x       y       z     vdW  Elec       q    Type
REMARK                         _______ _______ _______ _____ _____    ______ ____
ROOT
ATOM      1  C   UNL     1       1.785   7.134  20.172  0.00  0.00    +0.000 A 
ATOM      2  C   UNL     1       1.193   7.887  21.168  0.00  0.00    +0.000 A 
ATOM      3  C   UNL     1       0.990   9.184  20.641  0.00  0.00    +0.000 A 
ATOM      4  C   UNL     1       1.464   9.158  19.347  0.00  0.00    +0.000 A 
ATOM      5  O   UNL     1       1.946   7.912  19.050  0.00  0.00    +0.000 OA
ENDROOT
BRANCH   1   7
ATOM      6  N   UNL     1       2.811   5.354  18.984  0.00  0.00    +0.000 N 
ATOM      7  C   UNL     1       2.209   5.745  20.158  0.00  0.00    +0.000 C 
ATOM      8  O   UNL     1       2.039   4.979  21.103  0.00  0.00    +0.000 OA
ATOM      9  H   UNL     1       2.989   6.091  18.312  0.00  0.00    +0.000 HD
BRANCH   6  13
ATOM     10  N   UNL     1       5.853   4.278  17.256  0.00  0.00    +0.000 NA
ATOM     11  C   UNL     1       5.788   4.572  18.698  0.00  0.00    +0.000 C 
ATOM     12  C   UNL     1       4.688   3.775  19.400  0.00  0.00    +0.000 C 
ATOM     13  C   UNL     1       3.325   4.008  18.745  0.00  0.00    +0.000 C 
ATOM     14  C   UNL     1       3.427   3.728  17.249  0.00  0.00    +0.000 C 
ATOM     15  C   UNL     1       4.565   4.513  16.593  0.00  0.00    +0.000 C 
BRANCH  10  17
ATOM     16  C   UNL     1       6.945   4.850  15.071  0.00  0.00    +0.000 C 
ATOM     17  C   UNL     1       7.009   4.939  16.604  0.00  0.00    +0.000 C 
ATOM     18  C   UNL     1       7.252   6.397  17.018  0.00  0.00    +0.000 C 
ENDBRANCH  10  17
ENDBRANCH   6  13
ENDBRANCH   1   7
BRANCH   4  19
ATOM     19  C   UNL     1       1.529  10.189  18.273  0.00  0.00    +0.000 C 
BRANCH  19  20
ATOM     20  O   UNL     1       0.692  11.266  18.692  0.00  0.00    +0.000 OA
BRANCH  20  21
ATOM     21  C   UNL     1       1.208  12.531  18.612  0.00  0.00    +0.000 A 
ATOM     22  C   UNL     1       2.543  12.861  18.378  0.00  0.00    +0.000 A 
ATOM     23  C   UNL     1       2.931  14.205  18.315  0.00  0.00    +0.000 A 
ATOM     24  C   UNL     1       1.999  15.240  18.482  0.00  0.00    +0.000 A 
ATOM     25  C   UNL     1       2.375  16.592  18.416  0.00  0.00    +0.000 A 
ATOM     26  C   UNL     1       1.431  17.607  18.583  0.00  0.00    +0.000 A 
ATOM     27  C   UNL     1       0.098  17.283  18.822  0.00  0.00    +0.000 A 
ATOM     28  C   UNL     1      -0.290  15.942  18.892  0.00  0.00    +0.000 A 
ATOM     29  C   UNL     1       0.646  14.910  18.725  0.00  0.00    +0.000 A 
ATOM     30  C   UNL     1       0.273  13.556  18.787  0.00  0.00    +0.000 A 
ENDBRANCH  20  21
ENDBRANCH  19  20
ENDBRANCH   4  19
TORSDOF 6
ENDMDL
