MODEL 1
REMARK VINA RESULT:      -9.3      0.000      0.000
REMARK  Name = 
REMARK  6 active torsions:
REMARK  status: ('A' for Active; 'I' for Inactive)
REMARK    1  A    between atoms: N_1  and  S_2
REMARK    2  A    between atoms: S_2  and  C_5
REMARK    3  A    between atoms: C_9  and  N_10
REMARK    4  A    between atoms: C_11  and  C_13
REMARK    5  A    between atoms: C_22  and  O_23
REMARK    6  A    between atoms: O_23  and  C_24
REMARK                            x       y       z     vdW  Elec       q    Type
REMARK                         _______ _______ _______ _____ _____    ______ ____
ROOT
ATOM      1  C   UNL     1       2.739   6.734  18.294  0.00  0.00    +0.000 A 
ATOM      2  C   UNL     1       1.856   5.695  18.055  0.00  0.00    +0.000 A 
ATOM      3  C   UNL     1       2.334   4.408  18.305  0.00  0.00    +0.000 A 
ATOM      4  C   UNL     1       2.201   3.316  17.443  0.00  0.00    +0.000 A 
ATOM      5  C   UNL     1       2.754   2.093  17.818  0.00  0.00    +0.000 A 
ATOM      6  C   UNL     1       3.159   1.918  19.138  0.00  0.00    +0.000 A 
ATOM      7  C   UNL     1       3.340   3.040  19.937  0.00  0.00    +0.000 A 
ATOM      8  C   UNL     1       3.255   4.275  19.327  0.00  0.00    +0.000 A 
ATOM      9  N   UNL     1       4.173   5.238  19.490  0.00  0.00    +0.000 NA
ATOM     10  C   UNL     1       3.980   6.385  18.794  0.00  0.00    +0.000 A 
ENDROOT
BRANCH   1  12
ATOM     11  N   UNL     1       1.594   8.700  19.167  0.00  0.00    +0.000 N 
ATOM     12  C   UNL     1       2.334   8.136  18.147  0.00  0.00    +0.000 C 
ATOM     13  O   UNL     1       2.664   8.707  17.111  0.00  0.00    +0.000 OA
ATOM     14  H   UNL     1       1.634   8.267  20.085  0.00  0.00    +0.000 HD
BRANCH  11  19
ATOM     15  C   UNL     1      -1.197  10.961  18.299  0.00  0.00    +0.000 A 
ATOM     16  C   UNL     1      -0.738  12.191  18.786  0.00  0.00    +0.000 A 
ATOM     17  C   UNL     1       0.508  12.262  19.395  0.00  0.00    +0.000 A 
ATOM     18  C   UNL     1       1.277  11.108  19.536  0.00  0.00    +0.000 A 
ATOM     19  C   UNL     1       0.815   9.877  19.055  0.00  0.00    +0.000 A 
ATOM     20  C   UNL     1      -0.418   9.809  18.404  0.00  0.00    +0.000 A 
BRANCH  15  21
ATOM     21  S   UNL     1      -2.801  10.883  17.559  0.00  0.00    +0.000 S 
ATOM     22  O   UNL     1      -3.657  11.847  18.212  0.00  0.00    +0.000 OA
ATOM     23  O   UNL     1      -3.188   9.504  17.360  0.00  0.00    +0.000 OA
BRANCH  21  24
ATOM     24  N   UNL     1      -2.500  11.487  16.022  0.00  0.00    +0.000 NA
ATOM     25  H   UNL     1      -3.334  11.385  15.446  0.00  0.00    +0.000 HD
ATOM     26  H   UNL     1      -1.681  11.026  15.624  0.00  0.00    +0.000 HD
ENDBRANCH  21  24
ENDBRANCH  15  21
ENDBRANCH  11  19
ENDBRANCH   1  12
BRANCH  10  27
ATOM     27  O   UNL     1       5.044   6.921  18.042  0.00  0.00    +0.000 OA
BRANCH  27  28
ATOM     28  C   UNL     1       5.607   6.213  17.018  0.00  0.00    +0.000 A 
ATOM     29  C   UNL     1       6.473   5.140  17.379  0.00  0.00    +0.000 A 
ATOM     30  C   UNL     1       6.933   4.265  16.388  0.00  0.00    +0.000 A 
ATOM     31  C   UNL     1       6.536   4.449  15.069  0.00  0.00    +0.000 A 
ATOM     32  F   UNL     1       6.948   3.581  14.137  0.00  0.00    +0.000 F 
ATOM     33  C   UNL     1       5.702   5.500  14.711  0.00  0.00    +0.000 A 
ATOM     34  C   UNL     1       5.226   6.376  15.689  0.00  0.00    +0.000 A 
ATOM     35  F   UNL     1       4.355   7.313  15.321  0.00  0.00    +0.000 F 
ENDBRANCH  27  28
ENDBRANCH  10  27
TORSDOF 6
ENDMDL
MODEL 2
REMARK VINA RESULT:      -9.3      0.857      1.059
REMARK  Name = 
REMARK  6 active torsions:
REMARK  status: ('A' for Active; 'I' for Inactive)
REMARK    1  A    between atoms: N_1  and  S_2
REMARK    2  A    between atoms: S_2  and  C_5
REMARK    3  A    between atoms: C_9  and  N_10
REMARK    4  A    between atoms: C_11  and  C_13
REMARK    5  A    between atoms: C_22  and  O_23
REMARK    6  A    between atoms: O_23  and  C_24
REMARK                            x       y       z     vdW  Elec       q    Type
REMARK                         _______ _______ _______ _____ _____    ______ ____
ROOT
ATOM      1  C   UNL     1       2.721   6.696  18.288  0.00  0.00    +0.000 A 
ATOM      2  C   UNL     1       1.794   5.671  18.219  0.00  0.00    +0.000 A 
ATOM      3  C   UNL     1       2.275   4.385  18.467  0.00  0.00    +0.000 A 
ATOM      4  C   UNL     1       2.007   3.259  17.685  0.00  0.00    +0.000 A 
ATOM      5  C   UNL     1       2.581   2.040  18.043  0.00  0.00    +0.000 A 
ATOM      6  C   UNL     1       3.154   1.915  19.306  0.00  0.00    +0.000 A 
ATOM      7  C   UNL     1       3.461   3.067  20.018  0.00  0.00    +0.000 A 
ATOM      8  C   UNL     1       3.320   4.275  19.364  0.00  0.00    +0.000 A 
ATOM      9  N   UNL     1       4.272   5.221  19.357  0.00  0.00    +0.000 NA
ATOM     10  C   UNL     1       4.011   6.339  18.637  0.00  0.00    +0.000 A 
ENDROOT
BRANCH   1  12
ATOM     11  N   UNL     1       1.614   8.688  19.153  0.00  0.00    +0.000 N 
ATOM     12  C   UNL     1       2.328   8.101  18.127  0.00  0.00    +0.000 C 
ATOM     13  O   UNL     1       2.643   8.652  17.076  0.00  0.00    +0.000 OA
ATOM     14  H   UNL     1       1.668   8.269  20.077  0.00  0.00    +0.000 HD
BRANCH  11  19
ATOM     15  C   UNL     1      -1.167  10.967  18.300  0.00  0.00    +0.000 A 
ATOM     16  C   UNL     1      -0.687  12.198  18.763  0.00  0.00    +0.000 A 
ATOM     17  C   UNL     1       0.569  12.264  19.351  0.00  0.00    +0.000 A 
ATOM     18  C   UNL     1       1.328  11.104  19.495  0.00  0.00    +0.000 A 
ATOM     19  C   UNL     1       0.846   9.872  19.038  0.00  0.00    +0.000 A 
ATOM     20  C   UNL     1      -0.397   9.809  18.407  0.00  0.00    +0.000 A 
BRANCH  15  21
ATOM     21  S   UNL     1      -2.783  10.896  17.586  0.00  0.00    +0.000 S 
ATOM     22  O   UNL     1      -3.619  11.875  18.244  0.00  0.00    +0.000 OA
ATOM     23  O   UNL     1      -3.185   9.519  17.408  0.00  0.00    +0.000 OA
BRANCH  21  24
ATOM     24  N   UNL     1      -2.501  11.482  16.038  0.00  0.00    +0.000 NA
ATOM     25  H   UNL     1      -2.091  12.412  16.096  0.00  0.00    +0.000 HD
ATOM     26  H   UNL     1      -3.366  11.458  15.498  0.00  0.00    +0.000 HD
ENDBRANCH  21  24
ENDBRANCH  15  21
ENDBRANCH  11  19
ENDBRANCH   1  12
BRANCH  10  27
ATOM     27  O   UNL     1       4.976   6.811  17.727  0.00  0.00    +0.000 OA
BRANCH  27  28
ATOM     28  C   UNL     1       5.580   5.964  16.840  0.00  0.00    +0.000 A 
ATOM     29  C   UNL     1       4.725   5.245  15.955  0.00  0.00    +0.000 A 
ATOM     30  C   UNL     1       5.286   4.507  14.907  0.00  0.00    +0.000 A 
ATOM     31  C   UNL     1       6.666   4.487  14.740  0.00  0.00    +0.000 A 
ATOM     32  F   UNL     1       7.188   3.812  13.710  0.00  0.00    +0.000 F 
ATOM     33  C   UNL     1       7.503   5.177  15.607  0.00  0.00    +0.000 A 
ATOM     34  C   UNL     1       6.959   5.927  16.652  0.00  0.00    +0.000 A 
ATOM     35  F   UNL     1       7.787   6.649  17.403  0.00  0.00    +0.000 F 
ENDBRANCH  27  28
ENDBRANCH  10  27
TORSDOF 6
ENDMDL
MODEL 3
REMARK VINA RESULT:      -9.0      2.029      2.318
REMARK  Name = 
REMARK  6 active torsions:
REMARK  status: ('A' for Active; 'I' for Inactive)
REMARK    1  A    between atoms: N_1  and  S_2
REMARK    2  A    between atoms: S_2  and  C_5
REMARK    3  A    between atoms: C_9  and  N_10
REMARK    4  A    between atoms: C_11  and  C_13
REMARK    5  A    between atoms: C_22  and  O_23
REMARK    6  A    between atoms: O_23  and  C_24
REMARK                            x       y       z     vdW  Elec       q    Type
REMARK                         _______ _______ _______ _____ _____    ______ ____
ROOT
ATOM      1  C   UNL     1       2.990   6.330  18.464  0.00  0.00    +0.000 A 
ATOM      2  C   UNL     1       2.162   5.232  18.308  0.00  0.00    +0.000 A 
ATOM      3  C   UNL     1       2.758   3.980  18.465  0.00  0.00    +0.000 A 
ATOM      4  C   UNL     1       2.598   2.897  17.598  0.00  0.00    +0.000 A 
ATOM      5  C   UNL     1       3.280   1.712  17.870  0.00  0.00    +0.000 A 
ATOM      6  C   UNL     1       3.857   1.545  19.127  0.00  0.00    +0.000 A 
ATOM      7  C   UNL     1       4.055   2.664  19.926  0.00  0.00    +0.000 A 
ATOM      8  C   UNL     1       3.806   3.900  19.363  0.00  0.00    +0.000 A 
ATOM      9  N   UNL     1       4.665   4.926  19.437  0.00  0.00    +0.000 NA
ATOM     10  C   UNL     1       4.305   6.067  18.800  0.00  0.00    +0.000 A 
ENDROOT
BRANCH   1  12
ATOM     11  N   UNL     1       1.801   8.181  19.513  0.00  0.00    +0.000 N 
ATOM     12  C   UNL     1       2.469   7.700  18.404  0.00  0.00    +0.000 C 
ATOM     13  O   UNL     1       2.646   8.320  17.359  0.00  0.00    +0.000 OA
ATOM     14  H   UNL     1       1.969   7.731  20.408  0.00  0.00    +0.000 HD
BRANCH  11  19
ATOM     15  C   UNL     1      -0.372  10.896  20.762  0.00  0.00    +0.000 A 
ATOM     16  C   UNL     1      -0.819  11.483  19.571  0.00  0.00    +0.000 A 
ATOM     17  C   UNL     1      -0.399  10.963  18.354  0.00  0.00    +0.000 A 
ATOM     18  C   UNL     1       0.478   9.881  18.329  0.00  0.00    +0.000 A 
ATOM     19  C   UNL     1       0.930   9.298  19.519  0.00  0.00    +0.000 A 
ATOM     20  C   UNL     1       0.476   9.790  20.744  0.00  0.00    +0.000 A 
BRANCH  15  21
ATOM     21  S   UNL     1      -0.889  11.594  22.302  0.00  0.00    +0.000 S 
ATOM     22  O   UNL     1      -0.341  10.795  23.375  0.00  0.00    +0.000 OA
ATOM     23  O   UNL     1      -2.286  11.960  22.236  0.00  0.00    +0.000 OA
BRANCH  21  24
ATOM     24  N   UNL     1      -0.048  13.047  22.321  0.00  0.00    +0.000 NA
ATOM     25  H   UNL     1       0.749  12.971  22.951  0.00  0.00    +0.000 HD
ATOM     26  H   UNL     1      -0.680  13.809  22.565  0.00  0.00    +0.000 HD
ENDBRANCH  21  24
ENDBRANCH  15  21
ENDBRANCH  11  19
ENDBRANCH   1  12
BRANCH  10  27
ATOM     27  O   UNL     1       5.227   6.693  17.938  0.00  0.00    +0.000 OA
BRANCH  27  28
ATOM     28  C   UNL     1       5.723   6.039  16.845  0.00  0.00    +0.000 A 
ATOM     29  C   UNL     1       6.578   4.927  17.096  0.00  0.00    +0.000 A 
ATOM     30  C   UNL     1       6.969   4.107  16.031  0.00  0.00    +0.000 A 
ATOM     31  C   UNL     1       6.515   4.383  14.747  0.00  0.00    +0.000 A 
ATOM     32  F   UNL     1       6.860   3.567  13.745  0.00  0.00    +0.000 F 
ATOM     33  C   UNL     1       5.690   5.472  14.496  0.00  0.00    +0.000 A 
ATOM     34  C   UNL     1       5.283   6.294  15.549  0.00  0.00    +0.000 A 
ATOM     35  F   UNL     1       4.419   7.271  15.283  0.00  0.00    +0.000 F 
ENDBRANCH  27  28
ENDBRANCH  10  27
TORSDOF 6
ENDMDL
MODEL 4
REMARK VINA RESULT:      -8.9      2.209      2.625
REMARK  Name = 
REMARK  6 active torsions:
REMARK  status: ('A' for Active; 'I' for Inactive)
REMARK    1  A    between atoms: N_1  and  S_2
REMARK    2  A    between atoms: S_2  and  C_5
REMARK    3  A    between atoms: C_9  and  N_10
REMARK    4  A    between atoms: C_11  and  C_13
REMARK    5  A    between atoms: C_22  and  O_23
REMARK    6  A    between atoms: O_23  and  C_24
REMARK                            x       y       z     vdW  Elec       q    Type
REMARK                         _______ _______ _______ _____ _____    ______ ____
ROOT
ATOM      1  C   UNL     1       2.840   6.414  18.425  0.00  0.00    +0.000 A 
ATOM      2  C   UNL     1       1.967   5.340  18.392  0.00  0.00    +0.000 A 
ATOM      3  C   UNL     1       2.542   4.074  18.515  0.00  0.00    +0.000 A 
ATOM      4  C   UNL     1       2.253   2.976  17.701  0.00  0.00    +0.000 A 
ATOM      5  C   UNL     1       2.927   1.777  17.926  0.00  0.00    +0.000 A 
ATOM      6  C   UNL     1       3.637   1.622  19.113  0.00  0.00    +0.000 A 
ATOM      7  C   UNL     1       3.956   2.752  19.855  0.00  0.00    +0.000 A 
ATOM      8  C   UNL     1       3.681   3.981  19.291  0.00  0.00    +0.000 A 
ATOM      9  N   UNL     1       4.573   4.981  19.241  0.00  0.00    +0.000 NA
ATOM     10  C   UNL     1       4.176   6.118  18.618  0.00  0.00    +0.000 A 
ENDROOT
BRANCH   1  12
ATOM     11  N   UNL     1       1.753   8.299  19.525  0.00  0.00    +0.000 N 
ATOM     12  C   UNL     1       2.355   7.799  18.388  0.00  0.00    +0.000 C 
ATOM     13  O   UNL     1       2.500   8.413  17.334  0.00  0.00    +0.000 OA
ATOM     14  H   UNL     1       1.950   7.844  20.412  0.00  0.00    +0.000 HD
BRANCH  11  19
ATOM     15  C   UNL     1      -0.344  11.029  20.868  0.00  0.00    +0.000 A 
ATOM     16  C   UNL     1      -0.769  11.671  19.699  0.00  0.00    +0.000 A 
ATOM     17  C   UNL     1      -0.361  11.184  18.464  0.00  0.00    +0.000 A 
ATOM     18  C   UNL     1       0.485  10.078  18.402  0.00  0.00    +0.000 A 
ATOM     19  C   UNL     1       0.916   9.439  19.571  0.00  0.00    +0.000 A 
ATOM     20  C   UNL     1       0.472   9.899  20.812  0.00  0.00    +0.000 A 
BRANCH  15  21
ATOM     21  S   UNL     1      -0.845  11.685  22.432  0.00  0.00    +0.000 S 
ATOM     22  O   UNL     1      -2.289  11.727  22.471  0.00  0.00    +0.000 OA
ATOM     23  O   UNL     1      -0.021  12.821  22.778  0.00  0.00    +0.000 OA
BRANCH  21  24
ATOM     24  N   UNL     1      -0.381  10.461  23.482  0.00  0.00    +0.000 NA
ATOM     25  H   UNL     1       0.618  10.532  23.669  0.00  0.00    +0.000 HD
ATOM     26  H   UNL     1      -0.652   9.555  23.098  0.00  0.00    +0.000 HD
ENDBRANCH  21  24
ENDBRANCH  15  21
ENDBRANCH  11  19
ENDBRANCH   1  12
BRANCH  10  27
ATOM     27  O   UNL     1       5.012   6.694  17.641  0.00  0.00    +0.000 OA
BRANCH  27  28
ATOM     28  C   UNL     1       5.617   5.922  16.690  0.00  0.00    +0.000 A 
ATOM     29  C   UNL     1       4.760   5.225  15.789  0.00  0.00    +0.000 A 
ATOM     30  C   UNL     1       5.314   4.569  14.683  0.00  0.00    +0.000 A 
ATOM     31  C   UNL     1       6.687   4.609  14.476  0.00  0.00    +0.000 A 
ATOM     32  F   UNL     1       7.201   4.015  13.393  0.00  0.00    +0.000 F 
ATOM     33  C   UNL     1       7.527   5.278  15.357  0.00  0.00    +0.000 A 
ATOM     34  C   UNL     1       6.990   5.946  16.459  0.00  0.00    +0.000 A 
ATOM     35  F   UNL     1       7.816   6.653  17.228  0.00  0.00    +0.000 F 
ENDBRANCH  27  28
ENDBRANCH  10  27
TORSDOF 6
ENDMDL
MODEL 5
REMARK VINA RESULT:      -8.9      1.631      1.788
REMARK  Name = 
REMARK  6 active torsions:
REMARK  status: ('A' for Active; 'I' for Inactive)
REMARK    1  A    between atoms: N_1  and  S_2
REMARK    2  A    between atoms: S_2  and  C_5
REMARK    3  A    between atoms: C_9  and  N_10
REMARK    4  A    between atoms: C_11  and  C_13
REMARK    5  A    between atoms: C_22  and  O_23
REMARK    6  A    between atoms: O_23  and  C_24
REMARK                            x       y       z     vdW  Elec       q    Type
REMARK                         _______ _______ _______ _____ _____    ______ ____
ROOT
ATOM      1  C   UNL     1       2.844   6.092  19.132  0.00  0.00    +0.000 A 
ATOM      2  C   UNL     1       2.000   5.072  18.729  0.00  0.00    +0.000 A 
ATOM      3  C   UNL     1       2.576   3.808  18.598  0.00  0.00    +0.000 A 
ATOM      4  C   UNL     1       2.405   2.953  17.507  0.00  0.00    +0.000 A 
ATOM      5  C   UNL     1       3.067   1.727  17.503  0.00  0.00    +0.000 A 
ATOM      6  C   UNL     1       3.635   1.269  18.690  0.00  0.00    +0.000 A 
ATOM      7  C   UNL     1       3.845   2.173  19.723  0.00  0.00    +0.000 A 
ATOM      8  C   UNL     1       3.617   3.509  19.456  0.00  0.00    +0.000 A 
ATOM      9  N   UNL     1       4.492   4.477  19.763  0.00  0.00    +0.000 NA
ATOM     10  C   UNL     1       4.153   5.739  19.401  0.00  0.00    +0.000 A 
ENDROOT
BRANCH   1  12
ATOM     11  N   UNL     1       1.847   7.725  20.643  0.00  0.00    +0.000 N 
ATOM     12  C   UNL     1       2.344   7.449  19.385  0.00  0.00    +0.000 C 
ATOM     13  O   UNL     1       2.383   8.242  18.447  0.00  0.00    +0.000 OA
ATOM     14  H   UNL     1       2.132   7.127  21.413  0.00  0.00    +0.000 HD
BRANCH  11  19
ATOM     15  C   UNL     1      -0.300  10.705  20.242  0.00  0.00    +0.000 A 
ATOM     16  C   UNL     1      -0.630  11.007  21.569  0.00  0.00    +0.000 A 
ATOM     17  C   UNL     1      -0.127  10.218  22.595  0.00  0.00    +0.000 A 
ATOM     18  C   UNL     1       0.681   9.123  22.293  0.00  0.00    +0.000 A 
ATOM     19  C   UNL     1       1.007   8.817  20.966  0.00  0.00    +0.000 A 
ATOM     20  C   UNL     1       0.538   9.634  19.935  0.00  0.00    +0.000 A 
BRANCH  15  21
ATOM     21  S   UNL     1      -0.980  11.700  18.948  0.00  0.00    +0.000 S 
ATOM     22  O   UNL     1      -0.031  12.740  18.621  0.00  0.00    +0.000 OA
ATOM     23  O   UNL     1      -2.375  11.970  19.212  0.00  0.00    +0.000 OA
BRANCH  21  24
ATOM     24  N   UNL     1      -0.970  10.631  17.653  0.00  0.00    +0.000 NA
ATOM     25  H   UNL     1      -0.639   9.720  17.966  0.00  0.00    +0.000 HD
ATOM     26  H   UNL     1      -0.414  11.019  16.890  0.00  0.00    +0.000 HD
ENDBRANCH  21  24
ENDBRANCH  15  21
ENDBRANCH  11  19
ENDBRANCH   1  12
BRANCH  10  27
ATOM     27  O   UNL     1       5.089   6.530  18.706  0.00  0.00    +0.000 OA
BRANCH  27  28
ATOM     28  C   UNL     1       5.644   6.095  17.535  0.00  0.00    +0.000 A 
ATOM     29  C   UNL     1       6.719   5.166  17.641  0.00  0.00    +0.000 A 
ATOM     30  C   UNL     1       7.206   4.545  16.485  0.00  0.00    +0.000 A 
ATOM     31  C   UNL     1       6.634   4.837  15.253  0.00  0.00    +0.000 A 
ATOM     32  F   UNL     1       7.080   4.206  14.161  0.00  0.00    +0.000 F 
ATOM     33  C   UNL     1       5.594   5.751  15.144  0.00  0.00    +0.000 A 
ATOM     34  C   UNL     1       5.089   6.372  16.289  0.00  0.00    +0.000 A 
ATOM     35  F   UNL     1       4.031   7.168  16.155  0.00  0.00    +0.000 F 
ENDBRANCH  27  28
ENDBRANCH  10  27
TORSDOF 6
ENDMDL
MODEL 6
REMARK VINA RESULT:      -8.9      1.797      2.018
REMARK  Name = 
REMARK  6 active torsions:
REMARK  status: ('A' for Active; 'I' for Inactive)
REMARK    1  A    between atoms: N_1  and  S_2
REMARK    2  A    between atoms: S_2  and  C_5
REMARK    3  A    between atoms: C_9  and  N_10
REMARK    4  A    between atoms: C_11  and  C_13
REMARK    5  A    between atoms: C_22  and  O_23
REMARK    6  A    between atoms: O_23  and  C_24
REMARK                            x       y       z     vdW  Elec       q    Type
REMARK                         _______ _______ _______ _____ _____    ______ ____
ROOT
ATOM      1  C   UNL     1       2.833   6.066  19.093  0.00  0.00    +0.000 A 
ATOM      2  C   UNL     1       1.975   4.983  19.007  0.00  0.00    +0.000 A 
ATOM      3  C   UNL     1       2.574   3.730  18.864  0.00  0.00    +0.000 A 
ATOM      4  C   UNL     1       2.196   2.757  17.935  0.00  0.00    +0.000 A 
ATOM      5  C   UNL     1       2.906   1.559  17.890  0.00  0.00    +0.000 A 
ATOM      6  C   UNL     1       3.764   1.250  18.943  0.00  0.00    +0.000 A 
ATOM      7  C   UNL     1       4.163   2.266  19.802  0.00  0.00    +0.000 A 
ATOM      8  C   UNL     1       3.804   3.557  19.469  0.00  0.00    +0.000 A 
ATOM      9  N   UNL     1       4.671   4.580  19.460  0.00  0.00    +0.000 NA
ATOM     10  C   UNL     1       4.186   5.783  19.071  0.00  0.00    +0.000 A 
ENDROOT
BRANCH   1  12
ATOM     11  N   UNL     1       1.855   7.725  20.586  0.00  0.00    +0.000 N 
ATOM     12  C   UNL     1       2.333   7.425  19.326  0.00  0.00    +0.000 C 
ATOM     13  O   UNL     1       2.354   8.199  18.373  0.00  0.00    +0.000 OA
ATOM     14  H   UNL     1       2.154   7.144  21.364  0.00  0.00    +0.000 HD
BRANCH  11  19
ATOM     15  C   UNL     1      -0.322  10.680  20.159  0.00  0.00    +0.000 A 
ATOM     16  C   UNL     1      -0.619  11.017  21.485  0.00  0.00    +0.000 A 
ATOM     17  C   UNL     1      -0.084  10.260  22.519  0.00  0.00    +0.000 A 
ATOM     18  C   UNL     1       0.724   9.163  22.227  0.00  0.00    +0.000 A 
ATOM     19  C   UNL     1       1.016   8.821  20.901  0.00  0.00    +0.000 A 
ATOM     20  C   UNL     1       0.515   9.606  19.860  0.00  0.00    +0.000 A 
BRANCH  15  21
ATOM     21  S   UNL     1      -1.042  11.634  18.856  0.00  0.00    +0.000 S 
ATOM     22  O   UNL     1      -0.165  12.743  18.559  0.00  0.00    +0.000 OA
ATOM     23  O   UNL     1      -2.460  11.800  19.089  0.00  0.00    +0.000 OA
BRANCH  21  24
ATOM     24  N   UNL     1      -0.925  10.580  17.554  0.00  0.00    +0.000 NA
ATOM     25  H   UNL     1      -0.097   9.997  17.662  0.00  0.00    +0.000 HD
ATOM     26  H   UNL     1      -0.932  11.107  16.681  0.00  0.00    +0.000 HD
ENDBRANCH  21  24
ENDBRANCH  15  21
ENDBRANCH  11  19
ENDBRANCH   1  12
BRANCH  10  27
ATOM     27  O   UNL     1       4.884   6.524  18.096  0.00  0.00    +0.000 OA
BRANCH  27  28
ATOM     28  C   UNL     1       5.540   5.897  17.074  0.00  0.00    +0.000 A 
ATOM     29  C   UNL     1       4.735   5.203  16.125  0.00  0.00    +0.000 A 
ATOM     30  C   UNL     1       5.327   4.699  14.960  0.00  0.00    +0.000 A 
ATOM     31  C   UNL     1       6.686   4.886  14.742  0.00  0.00    +0.000 A 
ATOM     32  F   UNL     1       7.232   4.438  13.606  0.00  0.00    +0.000 F 
ATOM     33  C   UNL     1       7.476   5.553  15.670  0.00  0.00    +0.000 A 
ATOM     34  C   UNL     1       6.900   6.070  16.832  0.00  0.00    +0.000 A 
ATOM     35  F   UNL     1       7.671   6.783  17.650  0.00  0.00    +0.000 F 
ENDBRANCH  27  28
ENDBRANCH  10  27
TORSDOF 6
ENDMDL
MODEL 7
REMARK VINA RESULT:      -8.8      2.000      2.397
REMARK  Name = 
REMARK  6 active torsions:
REMARK  status: ('A' for Active; 'I' for Inactive)
REMARK    1  A    between atoms: N_1  and  S_2
REMARK    2  A    between atoms: S_2  and  C_5
REMARK    3  A    between atoms: C_9  and  N_10
REMARK    4  A    between atoms: C_11  and  C_13
REMARK    5  A    between atoms: C_22  and  O_23
REMARK    6  A    between atoms: O_23  and  C_24
REMARK                            x       y       z     vdW  Elec       q    Type
REMARK                         _______ _______ _______ _____ _____    ______ ____
ROOT
ATOM      1  C   UNL     1       2.792   6.629  18.318  0.00  0.00    +0.000 A 
ATOM      2  C   UNL     1       1.920   5.572  18.117  0.00  0.00    +0.000 A 
ATOM      3  C   UNL     1       2.434   4.295  18.344  0.00  0.00    +0.000 A 
ATOM      4  C   UNL     1       2.285   3.201  17.488  0.00  0.00    +0.000 A 
ATOM      5  C   UNL     1       2.878   1.989  17.835  0.00  0.00    +0.000 A 
ATOM      6  C   UNL     1       3.345   1.822  19.136  0.00  0.00    +0.000 A 
ATOM      7  C   UNL     1       3.539   2.947  19.928  0.00  0.00    +0.000 A 
ATOM      8  C   UNL     1       3.402   4.180  19.324  0.00  0.00    +0.000 A 
ATOM      9  N   UNL     1       4.307   5.162  19.447  0.00  0.00    +0.000 NA
ATOM     10  C   UNL     1       4.060   6.305  18.762  0.00  0.00    +0.000 A 
ENDROOT
BRANCH   1  12
ATOM     11  N   UNL     1       1.628   8.564  19.235  0.00  0.00    +0.000 N 
ATOM     12  C   UNL     1       2.352   8.023  18.191  0.00  0.00    +0.000 C 
ATOM     13  O   UNL     1       2.640   8.607  17.150  0.00  0.00    +0.000 OA
ATOM     14  H   UNL     1       1.704   8.127  20.149  0.00  0.00    +0.000 HD
BRANCH  11  19
ATOM     15  C   UNL     1       0.290  11.934  19.948  0.00  0.00    +0.000 A 
ATOM     16  C   UNL     1      -0.774  12.022  19.043  0.00  0.00    +0.000 A 
ATOM     17  C   UNL     1      -1.047  10.951  18.203  0.00  0.00    +0.000 A 
ATOM     18  C   UNL     1      -0.247   9.811  18.252  0.00  0.00    +0.000 A 
ATOM     19  C   UNL     1       0.822   9.725  19.152  0.00  0.00    +0.000 A 
ATOM     20  C   UNL     1       1.072  10.782  20.029  0.00  0.00    +0.000 A 
BRANCH  15  21
ATOM     21  S   UNL     1       0.645  13.322  20.985  0.00  0.00    +0.000 S 
ATOM     22  O   UNL     1       0.031  14.496  20.407  0.00  0.00    +0.000 OA
ATOM     23  O   UNL     1       2.029  13.288  21.400  0.00  0.00    +0.000 OA
BRANCH  21  24
ATOM     24  N   UNL     1      -0.243  12.957  22.362  0.00  0.00    +0.000 NA
ATOM     25  H   UNL     1      -1.203  13.278  22.244  0.00  0.00    +0.000 HD
ATOM     26  H   UNL     1       0.213  13.355  23.183  0.00  0.00    +0.000 HD
ENDBRANCH  21  24
ENDBRANCH  15  21
ENDBRANCH  11  19
ENDBRANCH   1  12
BRANCH  10  27
ATOM     27  O   UNL     1       5.079   6.862  17.964  0.00  0.00    +0.000 OA
BRANCH  27  28
ATOM     28  C   UNL     1       5.622   6.159  16.925  0.00  0.00    +0.000 A 
ATOM     29  C   UNL     1       6.465   5.062  17.265  0.00  0.00    +0.000 A 
ATOM     30  C   UNL     1       6.902   4.193  16.257  0.00  0.00    +0.000 A 
ATOM     31  C   UNL     1       6.504   4.409  14.943  0.00  0.00    +0.000 A 
ATOM     32  F   UNL     1       6.892   3.548  13.996  0.00  0.00    +0.000 F 
ATOM     33  C   UNL     1       5.691   5.483  14.607  0.00  0.00    +0.000 A 
ATOM     34  C   UNL     1       5.239   6.353  15.601  0.00  0.00    +0.000 A 
ATOM     35  F   UNL     1       4.387   7.315  15.252  0.00  0.00    +0.000 F 
ENDBRANCH  27  28
ENDBRANCH  10  27
TORSDOF 6
ENDMDL
MODEL 8
REMARK VINA RESULT:      -8.8      2.190      2.627
REMARK  Name = 
REMARK  6 active torsions:
REMARK  status: ('A' for Active; 'I' for Inactive)
REMARK    1  A    between atoms: N_1  and  S_2
REMARK    2  A    between atoms: S_2  and  C_5
REMARK    3  A    between atoms: C_9  and  N_10
REMARK    4  A    between atoms: C_11  and  C_13
REMARK    5  A    between atoms: C_22  and  O_23
REMARK    6  A    between atoms: O_23  and  C_24
REMARK                            x       y       z     vdW  Elec       q    Type
REMARK                         _______ _______ _______ _____ _____    ______ ____
ROOT
ATOM      1  C   UNL     1       2.756   6.637  18.298  0.00  0.00    +0.000 A 
ATOM      2  C   UNL     1       1.840   5.601  18.234  0.00  0.00    +0.000 A 
ATOM      3  C   UNL     1       2.344   4.317  18.443  0.00  0.00    +0.000 A 
ATOM      4  C   UNL     1       2.067   3.203  17.646  0.00  0.00    +0.000 A 
ATOM      5  C   UNL     1       2.666   1.985  17.963  0.00  0.00    +0.000 A 
ATOM      6  C   UNL     1       3.276   1.843  19.206  0.00  0.00    +0.000 A 
ATOM      7  C   UNL     1       3.590   2.984  19.932  0.00  0.00    +0.000 A 
ATOM      8  C   UNL     1       3.415   4.203  19.308  0.00  0.00    +0.000 A 
ATOM      9  N   UNL     1       4.354   5.161  19.293  0.00  0.00    +0.000 NA
ATOM     10  C   UNL     1       4.059   6.289  18.604  0.00  0.00    +0.000 A 
ENDROOT
BRANCH   1  12
ATOM     11  N   UNL     1       1.593   8.577  19.205  0.00  0.00    +0.000 N 
ATOM     12  C   UNL     1       2.341   8.039  18.177  0.00  0.00    +0.000 C 
ATOM     13  O   UNL     1       2.671   8.633  17.154  0.00  0.00    +0.000 OA
ATOM     14  H   UNL     1       1.632   8.127  20.115  0.00  0.00    +0.000 HD
BRANCH  11  19
ATOM     15  C   UNL     1       0.308  11.973  19.895  0.00  0.00    +0.000 A 
ATOM     16  C   UNL     1      -0.751  12.074  18.985  0.00  0.00    +0.000 A 
ATOM     17  C   UNL     1      -1.038  11.003  18.149  0.00  0.00    +0.000 A 
ATOM     18  C   UNL     1      -0.258   9.851  18.208  0.00  0.00    +0.000 A 
ATOM     19  C   UNL     1       0.806   9.751  19.113  0.00  0.00    +0.000 A 
ATOM     20  C   UNL     1       1.071  10.808  19.985  0.00  0.00    +0.000 A 
BRANCH  15  21
ATOM     21  S   UNL     1       0.682  13.360  20.927  0.00  0.00    +0.000 S 
ATOM     22  O   UNL     1       0.118  13.124  22.236  0.00  0.00    +0.000 OA
ATOM     23  O   UNL     1       0.472  14.590  20.196  0.00  0.00    +0.000 OA
BRANCH  21  24
ATOM     24  N   UNL     1       2.346  13.221  21.099  0.00  0.00    +0.000 NA
ATOM     25  H   UNL     1       2.804  13.520  20.239  0.00  0.00    +0.000 HD
ATOM     26  H   UNL     1       2.587  12.268  21.370  0.00  0.00    +0.000 HD
ENDBRANCH  21  24
ENDBRANCH  15  21
ENDBRANCH  11  19
ENDBRANCH   1  12
BRANCH  10  27
ATOM     27  O   UNL     1       4.992   6.792  17.676  0.00  0.00    +0.000 OA
BRANCH  27  28
ATOM     28  C   UNL     1       5.599   5.967  16.772  0.00  0.00    +0.000 A 
ATOM     29  C   UNL     1       4.747   5.272  15.865  0.00  0.00    +0.000 A 
ATOM     30  C   UNL     1       5.312   4.559  14.801  0.00  0.00    +0.000 A 
ATOM     31  C   UNL     1       6.692   4.541  14.640  0.00  0.00    +0.000 A 
ATOM     32  F   UNL     1       7.218   3.891  13.595  0.00  0.00    +0.000 F 
ATOM     33  C   UNL     1       7.526   5.208  15.528  0.00  0.00    +0.000 A 
ATOM     34  C   UNL     1       6.978   5.932  16.588  0.00  0.00    +0.000 A 
ATOM     35  F   UNL     1       7.805   6.634  17.361  0.00  0.00    +0.000 F 
ENDBRANCH  27  28
ENDBRANCH  10  27
TORSDOF 6
ENDMDL
MODEL 9
REMARK VINA RESULT:      -8.7      2.222      2.673
REMARK  Name = 
REMARK  6 active torsions:
REMARK  status: ('A' for Active; 'I' for Inactive)
REMARK    1  A    between atoms: N_1  and  S_2
REMARK    2  A    between atoms: S_2  and  C_5
REMARK    3  A    between atoms: C_9  and  N_10
REMARK    4  A    between atoms: C_11  and  C_13
REMARK    5  A    between atoms: C_22  and  O_23
REMARK    6  A    between atoms: O_23  and  C_24
REMARK                            x       y       z     vdW  Elec       q    Type
REMARK                         _______ _______ _______ _____ _____    ______ ____
ROOT
ATOM      1  C   UNL     1       2.724   6.774  18.240  0.00  0.00    +0.000 A 
ATOM      2  C   UNL     1       1.765   5.781  18.132  0.00  0.00    +0.000 A 
ATOM      3  C   UNL     1       2.184   4.483  18.425  0.00  0.00    +0.000 A 
ATOM      4  C   UNL     1       1.920   3.355  17.644  0.00  0.00    +0.000 A 
ATOM      5  C   UNL     1       2.427   2.122  18.050  0.00  0.00    +0.000 A 
ATOM      6  C   UNL     1       2.924   1.996  19.345  0.00  0.00    +0.000 A 
ATOM      7  C   UNL     1       3.233   3.148  20.058  0.00  0.00    +0.000 A 
ATOM      8  C   UNL     1       3.173   4.350  19.381  0.00  0.00    +0.000 A 
ATOM      9  N   UNL     1       4.157   5.260  19.415  0.00  0.00    +0.000 NA
ATOM     10  C   UNL     1       3.977   6.376  18.667  0.00  0.00    +0.000 A 
ENDROOT
BRANCH   1  12
ATOM     11  N   UNL     1       1.642   8.817  19.013  0.00  0.00    +0.000 N 
ATOM     12  C   UNL     1       2.391   8.188  18.038  0.00  0.00    +0.000 C 
ATOM     13  O   UNL     1       2.786   8.712  17.000  0.00  0.00    +0.000 OA
ATOM     14  H   UNL     1       1.629   8.410  19.944  0.00  0.00    +0.000 HD
BRANCH  11  19
ATOM     15  C   UNL     1       0.894  12.432  18.864  0.00  0.00    +0.000 A 
ATOM     16  C   UNL     1      -0.467  12.434  18.538  0.00  0.00    +0.000 A 
ATOM     17  C   UNL     1      -1.134  11.227  18.377  0.00  0.00    +0.000 A 
ATOM     18  C   UNL     1      -0.437  10.028  18.519  0.00  0.00    +0.000 A 
ATOM     19  C   UNL     1       0.926  10.025  18.839  0.00  0.00    +0.000 A 
ATOM     20  C   UNL     1       1.589  11.236  19.044  0.00  0.00    +0.000 A 
BRANCH  15  21
ATOM     21  S   UNL     1       1.734  13.979  19.029  0.00  0.00    +0.000 S 
ATOM     22  O   UNL     1       2.510  13.953  20.248  0.00  0.00    +0.000 OA
ATOM     23  O   UNL     1       0.839  15.066  18.696  0.00  0.00    +0.000 OA
BRANCH  21  24
ATOM     24  N   UNL     1       2.837  13.908  17.767  0.00  0.00    +0.000 NA
ATOM     25  H   UNL     1       2.984  12.937  17.497  0.00  0.00    +0.000 HD
ATOM     26  H   UNL     1       3.699  14.384  18.034  0.00  0.00    +0.000 HD
ENDBRANCH  21  24
ENDBRANCH  15  21
ENDBRANCH  11  19
ENDBRANCH   1  12
BRANCH  10  27
ATOM     27  O   UNL     1       5.009   6.799  17.806  0.00  0.00    +0.000 OA
BRANCH  27  28
ATOM     28  C   UNL     1       5.577   5.936  16.912  0.00  0.00    +0.000 A 
ATOM     29  C   UNL     1       4.727   5.415  15.893  0.00  0.00    +0.000 A 
ATOM     30  C   UNL     1       5.286   4.676  14.844  0.00  0.00    +0.000 A 
ATOM     31  C   UNL     1       6.659   4.464  14.806  0.00  0.00    +0.000 A 
ATOM     32  F   UNL     1       7.186   3.792  13.776  0.00  0.00    +0.000 F 
ATOM     33  C   UNL     1       7.489   4.960  15.803  0.00  0.00    +0.000 A 
ATOM     34  C   UNL     1       6.949   5.708  16.851  0.00  0.00    +0.000 A 
ATOM     35  F   UNL     1       7.788   6.245  17.735  0.00  0.00    +0.000 F 
ENDBRANCH  27  28
ENDBRANCH  10  27
TORSDOF 6
ENDMDL
