MODEL 1
REMARK VINA RESULT:      -8.6      0.000      0.000
REMARK  Name = 
REMARK  6 active torsions:
REMARK  status: ('A' for Active; 'I' for Inactive)
REMARK    1  A    between atoms: C_2  and  C_3
REMARK    2  A    between atoms: C_3  and  O_4
REMARK    3  A    between atoms: O_4  and  C_5
REMARK    4  A    between atoms: C_5  and  C_6
REMARK    5  A    between atoms: C_16  and  C_17
REMARK    6  A    between atoms: C_20  and  C_21
REMARK                            x       y       z     vdW  Elec       q    Type
REMARK                         _______ _______ _______ _____ _____    ______ ____
ROOT
ATOM      1  O   UNL     1       5.483   3.711  19.444  0.00  0.00    +0.000 OA
ATOM      2  C   UNL     1       5.377   4.362  18.400  0.00  0.00    +0.000 C 
ATOM      3  N   UNL     1       6.351   5.260  18.019  0.00  0.00    +0.000 N 
ATOM      4  C   UNL     1       7.554   5.431  18.808  0.00  0.00    +0.000 C 
ATOM      5  C   UNL     1       7.925   6.883  18.580  0.00  0.00    +0.000 C 
ATOM      6  C   UNL     1       7.540   7.117  17.124  0.00  0.00    +0.000 C 
ATOM      7  C   UNL     1       6.331   6.193  16.884  0.00  0.00    +0.000 C 
ENDROOT
BRANCH   7   8
ATOM      8  C   UNL     1       6.458   5.482  15.572  0.00  0.00    +0.000 A 
ATOM      9  N   UNL     1       7.569   5.554  14.826  0.00  0.00    +0.000 NA
ATOM     10  O   UNL     1       7.294   4.683  13.767  0.00  0.00    +0.000 OA
ATOM     11  C   UNL     1       6.040   4.182  13.980  0.00  0.00    +0.000 A 
ATOM     12  N   UNL     1       5.481   4.660  15.074  0.00  0.00    +0.000 NA
BRANCH  11  13
ATOM     13  C   UNL     1       5.376   3.166  13.067  0.00  0.00    +0.000 C 
ATOM     14  C   UNL     1       4.789   3.659  11.757  0.00  0.00    +0.000 C 
ATOM     15  C   UNL     1       6.033   2.839  11.742  0.00  0.00    +0.000 C 
ENDBRANCH  11  13
ENDBRANCH   7   8
BRANCH   2  16
ATOM     16  C   UNL     1       4.131   4.215  17.505  0.00  0.00    +0.000 C 
BRANCH  16  17
ATOM     17  O   UNL     1       3.199   5.287  17.574  0.00  0.00    +0.000 OA
BRANCH  17  18
ATOM     18  C   UNL     1       1.867   4.828  17.792  0.00  0.00    +0.000 C 
BRANCH  18  19
ATOM     19  C   UNL     1       1.794   4.153  19.137  0.00  0.00    +0.000 A 
ATOM     20  C   UNL     1       2.232   4.829  20.285  0.00  0.00    +0.000 A 
ATOM     21  C   UNL     1       2.158   4.218  21.538  0.00  0.00    +0.000 A 
ATOM     22  C   UNL     1       1.640   2.929  21.656  0.00  0.00    +0.000 A 
ATOM     23  C   UNL     1       1.199   2.250  20.522  0.00  0.00    +0.000 A 
ATOM     24  C   UNL     1       1.274   2.859  19.266  0.00  0.00    +0.000 A 
ENDBRANCH  18  19
ENDBRANCH  17  18
ENDBRANCH  16  17
ENDBRANCH   2  16
TORSDOF 6
ENDMDL
MODEL 2
REMARK VINA RESULT:      -8.5      0.921      1.129
REMARK  Name = 
REMARK  6 active torsions:
REMARK  status: ('A' for Active; 'I' for Inactive)
REMARK    1  A    between atoms: C_2  and  C_3
REMARK    2  A    between atoms: C_3  and  O_4
REMARK    3  A    between atoms: O_4  and  C_5
REMARK    4  A    between atoms: C_5  and  C_6
REMARK    5  A    between atoms: C_16  and  C_17
REMARK    6  A    between atoms: C_20  and  C_21
REMARK                            x       y       z     vdW  Elec       q    Type
REMARK                         _______ _______ _______ _____ _____    ______ ____
ROOT
ATOM      1  O   UNL     1       5.740   3.885  19.562  0.00  0.00    +0.000 OA
ATOM      2  C   UNL     1       5.572   4.483  18.494  0.00  0.00    +0.000 C 
ATOM      3  N   UNL     1       6.480   5.420  18.051  0.00  0.00    +0.000 N 
ATOM      4  C   UNL     1       7.689   5.696  18.802  0.00  0.00    +0.000 C 
ATOM      5  C   UNL     1       7.966   7.156  18.504  0.00  0.00    +0.000 C 
ATOM      6  C   UNL     1       7.534   7.305  17.050  0.00  0.00    +0.000 C 
ATOM      7  C   UNL     1       6.378   6.301  16.879  0.00  0.00    +0.000 C 
ENDROOT
BRANCH   7   8
ATOM      8  C   UNL     1       6.517   5.543  15.596  0.00  0.00    +0.000 A 
ATOM      9  N   UNL     1       7.655   5.541  14.888  0.00  0.00    +0.000 NA
ATOM     10  O   UNL     1       7.378   4.650  13.846  0.00  0.00    +0.000 OA
ATOM     11  C   UNL     1       6.095   4.212  14.031  0.00  0.00    +0.000 A 
ATOM     12  N   UNL     1       5.521   4.749  15.089  0.00  0.00    +0.000 NA
BRANCH  11  13
ATOM     13  C   UNL     1       5.418   3.198  13.126  0.00  0.00    +0.000 C 
ATOM     14  C   UNL     1       4.793   3.695  11.836  0.00  0.00    +0.000 C 
ATOM     15  C   UNL     1       6.044   2.888  11.782  0.00  0.00    +0.000 C 
ENDBRANCH  11  13
ENDBRANCH   7   8
BRANCH   2  16
ATOM     16  C   UNL     1       4.316   4.225  17.638  0.00  0.00    +0.000 C 
BRANCH  16  17
ATOM     17  O   UNL     1       4.043   2.859  17.348  0.00  0.00    +0.000 OA
BRANCH  17  18
ATOM     18  C   UNL     1       2.664   2.539  17.516  0.00  0.00    +0.000 C 
BRANCH  18  19
ATOM     19  C   UNL     1       2.257   2.848  18.932  0.00  0.00    +0.000 A 
ATOM     20  C   UNL     1       2.870   2.178  20.000  0.00  0.00    +0.000 A 
ATOM     21  C   UNL     1       2.509   2.464  21.318  0.00  0.00    +0.000 A 
ATOM     22  C   UNL     1       1.536   3.426  21.580  0.00  0.00    +0.000 A 
ATOM     23  C   UNL     1       0.921   4.100  20.526  0.00  0.00    +0.000 A 
ATOM     24  C   UNL     1       1.281   3.814  19.207  0.00  0.00    +0.000 A 
ENDBRANCH  18  19
ENDBRANCH  17  18
ENDBRANCH  16  17
ENDBRANCH   2  16
TORSDOF 6
ENDMDL
MODEL 3
REMARK VINA RESULT:      -8.4      0.507      1.050
REMARK  Name = 
REMARK  6 active torsions:
REMARK  status: ('A' for Active; 'I' for Inactive)
REMARK    1  A    between atoms: C_2  and  C_3
REMARK    2  A    between atoms: C_3  and  O_4
REMARK    3  A    between atoms: O_4  and  C_5
REMARK    4  A    between atoms: C_5  and  C_6
REMARK    5  A    between atoms: C_16  and  C_17
REMARK    6  A    between atoms: C_20  and  C_21
REMARK                            x       y       z     vdW  Elec       q    Type
REMARK                         _______ _______ _______ _____ _____    ______ ____
ROOT
ATOM      1  O   UNL     1       5.653   3.701  19.478  0.00  0.00    +0.000 OA
ATOM      2  C   UNL     1       5.485   4.339  18.434  0.00  0.00    +0.000 C 
ATOM      3  N   UNL     1       6.416   5.259  18.003  0.00  0.00    +0.000 N 
ATOM      4  C   UNL     1       7.647   5.470  18.737  0.00  0.00    +0.000 C 
ATOM      5  C   UNL     1       7.968   6.929  18.481  0.00  0.00    +0.000 C 
ATOM      6  C   UNL     1       7.514   7.140  17.042  0.00  0.00    +0.000 C 
ATOM      7  C   UNL     1       6.321   6.181  16.862  0.00  0.00    +0.000 C 
ENDROOT
BRANCH   7   8
ATOM      8  C   UNL     1       6.410   5.461  15.552  0.00  0.00    +0.000 A 
ATOM      9  N   UNL     1       7.518   5.486  14.798  0.00  0.00    +0.000 NA
ATOM     10  O   UNL     1       7.202   4.624  13.744  0.00  0.00    +0.000 OA
ATOM     11  C   UNL     1       5.930   4.174  13.968  0.00  0.00    +0.000 A 
ATOM     12  N   UNL     1       5.398   4.678  15.064  0.00  0.00    +0.000 NA
BRANCH  11  13
ATOM     13  C   UNL     1       5.220   3.183  13.063  0.00  0.00    +0.000 C 
ATOM     14  C   UNL     1       4.731   3.671  11.712  0.00  0.00    +0.000 C 
ATOM     15  C   UNL     1       5.900   2.750  11.780  0.00  0.00    +0.000 C 
ENDBRANCH  11  13
ENDBRANCH   7   8
BRANCH   2  16
ATOM     16  C   UNL     1       4.205   4.150  17.595  0.00  0.00    +0.000 C 
BRANCH  16  17
ATOM     17  O   UNL     1       3.302   5.249  17.603  0.00  0.00    +0.000 OA
BRANCH  17  18
ATOM     18  C   UNL     1       3.044   5.723  18.922  0.00  0.00    +0.000 C 
BRANCH  18  19
ATOM     19  C   UNL     1       2.322   4.652  19.698  0.00  0.00    +0.000 A 
ATOM     20  C   UNL     1       1.350   3.864  19.066  0.00  0.00    +0.000 A 
ATOM     21  C   UNL     1       0.683   2.861  19.771  0.00  0.00    +0.000 A 
ATOM     22  C   UNL     1       0.987   2.632  21.112  0.00  0.00    +0.000 A 
ATOM     23  C   UNL     1       1.954   3.408  21.749  0.00  0.00    +0.000 A 
ATOM     24  C   UNL     1       2.621   4.414  21.045  0.00  0.00    +0.000 A 
ENDBRANCH  18  19
ENDBRANCH  17  18
ENDBRANCH  16  17
ENDBRANCH   2  16
TORSDOF 6
ENDMDL
MODEL 4
REMARK VINA RESULT:      -8.2      1.836      2.739
REMARK  Name = 
REMARK  6 active torsions:
REMARK  status: ('A' for Active; 'I' for Inactive)
REMARK    1  A    between atoms: C_2  and  C_3
REMARK    2  A    between atoms: C_3  and  O_4
REMARK    3  A    between atoms: O_4  and  C_5
REMARK    4  A    between atoms: C_5  and  C_6
REMARK    5  A    between atoms: C_16  and  C_17
REMARK    6  A    between atoms: C_20  and  C_21
REMARK                            x       y       z     vdW  Elec       q    Type
REMARK                         _______ _______ _______ _____ _____    ______ ____
ROOT
ATOM      1  O   UNL     1       5.526   3.608  19.575  0.00  0.00    +0.000 OA
ATOM      2  C   UNL     1       5.381   4.279  18.549  0.00  0.00    +0.000 C 
ATOM      3  N   UNL     1       6.339   5.187  18.150  0.00  0.00    +0.000 N 
ATOM      4  C   UNL     1       7.570   5.345  18.899  0.00  0.00    +0.000 C 
ATOM      5  C   UNL     1       7.930   6.802  18.687  0.00  0.00    +0.000 C 
ATOM      6  C   UNL     1       7.492   7.065  17.251  0.00  0.00    +0.000 C 
ATOM      7  C   UNL     1       6.276   6.144  17.036  0.00  0.00    +0.000 C 
ENDROOT
BRANCH   7   8
ATOM      8  C   UNL     1       6.356   5.460  15.707  0.00  0.00    +0.000 A 
ATOM      9  N   UNL     1       7.464   5.490  14.954  0.00  0.00    +0.000 NA
ATOM     10  O   UNL     1       7.136   4.663  13.876  0.00  0.00    +0.000 OA
ATOM     11  C   UNL     1       5.858   4.225  14.087  0.00  0.00    +0.000 A 
ATOM     12  N   UNL     1       5.332   4.705  15.196  0.00  0.00    +0.000 NA
BRANCH  11  13
ATOM     13  C   UNL     1       5.134   3.270  13.154  0.00  0.00    +0.000 C 
ATOM     14  C   UNL     1       4.734   3.777  11.781  0.00  0.00    +0.000 C 
ATOM     15  C   UNL     1       5.846   2.793  11.904  0.00  0.00    +0.000 C 
ENDBRANCH  11  13
ENDBRANCH   7   8
BRANCH   2  16
ATOM     16  C   UNL     1       4.103   4.148  17.697  0.00  0.00    +0.000 C 
BRANCH  16  17
ATOM     17  O   UNL     1       2.947   4.786  18.226  0.00  0.00    +0.000 OA
BRANCH  17  18
ATOM     18  C   UNL     1       3.253   5.601  19.355  0.00  0.00    +0.000 C 
BRANCH  18  19
ATOM     19  C   UNL     1       2.594   6.945  19.184  0.00  0.00    +0.000 A 
ATOM     20  C   UNL     1       2.682   7.617  17.957  0.00  0.00    +0.000 A 
ATOM     21  C   UNL     1       2.066   8.858  17.782  0.00  0.00    +0.000 A 
ATOM     22  C   UNL     1       1.350   9.434  18.831  0.00  0.00    +0.000 A 
ATOM     23  C   UNL     1       1.254   8.773  20.054  0.00  0.00    +0.000 A 
ATOM     24  C   UNL     1       1.872   7.532  20.230  0.00  0.00    +0.000 A 
ENDBRANCH  18  19
ENDBRANCH  17  18
ENDBRANCH  16  17
ENDBRANCH   2  16
TORSDOF 6
ENDMDL
MODEL 5
REMARK VINA RESULT:      -8.1      2.676      6.844
REMARK  Name = 
REMARK  6 active torsions:
REMARK  status: ('A' for Active; 'I' for Inactive)
REMARK    1  A    between atoms: C_2  and  C_3
REMARK    2  A    between atoms: C_3  and  O_4
REMARK    3  A    between atoms: O_4  and  C_5
REMARK    4  A    between atoms: C_5  and  C_6
REMARK    5  A    between atoms: C_16  and  C_17
REMARK    6  A    between atoms: C_20  and  C_21
REMARK                            x       y       z     vdW  Elec       q    Type
REMARK                         _______ _______ _______ _____ _____    ______ ____
ROOT
ATOM      1  O   UNL     1       8.506   4.184  17.786  0.00  0.00    +0.000 OA
ATOM      2  C   UNL     1       7.583   5.000  17.703  0.00  0.00    +0.000 C 
ATOM      3  N   UNL     1       6.706   4.977  16.640  0.00  0.00    +0.000 N 
ATOM      4  C   UNL     1       6.810   3.961  15.612  0.00  0.00    +0.000 C 
ATOM      5  C   UNL     1       6.303   4.662  14.368  0.00  0.00    +0.000 C 
ATOM      6  C   UNL     1       5.189   5.556  14.899  0.00  0.00    +0.000 C 
ATOM      7  C   UNL     1       5.637   5.935  16.324  0.00  0.00    +0.000 C 
ENDROOT
BRANCH   7   8
ATOM      8  C   UNL     1       4.493   5.833  17.285  0.00  0.00    +0.000 A 
ATOM      9  N   UNL     1       3.796   6.907  17.682  0.00  0.00    +0.000 NA
ATOM     10  O   UNL     1       2.788   6.353  18.477  0.00  0.00    +0.000 OA
ATOM     11  C   UNL     1       2.986   5.000  18.483  0.00  0.00    +0.000 A 
ATOM     12  N   UNL     1       4.036   4.637  17.775  0.00  0.00    +0.000 NA
BRANCH  11  13
ATOM     13  C   UNL     1       2.079   4.023  19.210  0.00  0.00    +0.000 C 
ATOM     14  C   UNL     1       1.154   3.153  18.379  0.00  0.00    +0.000 C 
ATOM     15  C   UNL     1       2.332   2.538  19.052  0.00  0.00    +0.000 C 
ENDBRANCH  11  13
ENDBRANCH   7   8
BRANCH   2  16
ATOM     16  C   UNL     1       7.404   6.097  18.772  0.00  0.00    +0.000 C 
BRANCH  16  17
ATOM     17  O   UNL     1       8.338   7.167  18.712  0.00  0.00    +0.000 OA
BRANCH  17  18
ATOM     18  C   UNL     1       7.974   8.146  17.743  0.00  0.00    +0.000 C 
BRANCH  18  19
ATOM     19  C   UNL     1       8.462   9.496  18.200  0.00  0.00    +0.000 A 
ATOM     20  C   UNL     1       9.255   9.601  19.352  0.00  0.00    +0.000 A 
ATOM     21  C   UNL     1       9.723  10.845  19.778  0.00  0.00    +0.000 A 
ATOM     22  C   UNL     1       9.408  11.994  19.054  0.00  0.00    +0.000 A 
ATOM     23  C   UNL     1       8.623  11.900  17.907  0.00  0.00    +0.000 A 
ATOM     24  C   UNL     1       8.152  10.656  17.479  0.00  0.00    +0.000 A 
ENDBRANCH  18  19
ENDBRANCH  17  18
ENDBRANCH  16  17
ENDBRANCH   2  16
TORSDOF 6
ENDMDL
MODEL 6
REMARK VINA RESULT:      -8.0      2.743      5.399
REMARK  Name = 
REMARK  6 active torsions:
REMARK  status: ('A' for Active; 'I' for Inactive)
REMARK    1  A    between atoms: C_2  and  C_3
REMARK    2  A    between atoms: C_3  and  O_4
REMARK    3  A    between atoms: O_4  and  C_5
REMARK    4  A    between atoms: C_5  and  C_6
REMARK    5  A    between atoms: C_16  and  C_17
REMARK    6  A    between atoms: C_20  and  C_21
REMARK                            x       y       z     vdW  Elec       q    Type
REMARK                         _______ _______ _______ _____ _____    ______ ____
ROOT
ATOM      1  O   UNL     1       7.050   7.538  17.033  0.00  0.00    +0.000 OA
ATOM      2  C   UNL     1       6.079   6.789  17.178  0.00  0.00    +0.000 C 
ATOM      3  N   UNL     1       6.030   5.558  16.559  0.00  0.00    +0.000 N 
ATOM      4  C   UNL     1       7.141   5.085  15.758  0.00  0.00    +0.000 C 
ATOM      5  C   UNL     1       6.477   4.216  14.709  0.00  0.00    +0.000 C 
ATOM      6  C   UNL     1       5.332   3.560  15.471  0.00  0.00    +0.000 C 
ATOM      7  C   UNL     1       4.914   4.603  16.525  0.00  0.00    +0.000 C 
ENDROOT
BRANCH   7   8
ATOM      8  C   UNL     1       4.693   3.954  17.857  0.00  0.00    +0.000 A 
ATOM      9  N   UNL     1       5.697   3.726  18.715  0.00  0.00    +0.000 NA
ATOM     10  O   UNL     1       5.041   3.211  19.837  0.00  0.00    +0.000 OA
ATOM     11  C   UNL     1       3.708   3.174  19.536  0.00  0.00    +0.000 A 
ATOM     12  N   UNL     1       3.450   3.608  18.318  0.00  0.00    +0.000 NA
BRANCH  11  13
ATOM     13  C   UNL     1       2.641   2.706  20.509  0.00  0.00    +0.000 C 
ATOM     14  C   UNL     1       2.114   3.702  21.527  0.00  0.00    +0.000 C 
ATOM     15  C   UNL     1       1.244   3.281  20.392  0.00  0.00    +0.000 C 
ENDBRANCH  11  13
ENDBRANCH   7   8
BRANCH   2  16
ATOM     16  C   UNL     1       4.871   7.224  18.031  0.00  0.00    +0.000 C 
BRANCH  16  17
ATOM     17  O   UNL     1       3.718   7.622  17.300  0.00  0.00    +0.000 OA
BRANCH  17  18
ATOM     18  C   UNL     1       2.522   7.056  17.831  0.00  0.00    +0.000 C 
BRANCH  18  19
ATOM     19  C   UNL     1       1.931   8.010  18.836  0.00  0.00    +0.000 A 
ATOM     20  C   UNL     1       1.457   9.262  18.419  0.00  0.00    +0.000 A 
ATOM     21  C   UNL     1       0.896  10.150  19.340  0.00  0.00    +0.000 A 
ATOM     22  C   UNL     1       0.798   9.791  20.683  0.00  0.00    +0.000 A 
ATOM     23  C   UNL     1       1.264   8.547  21.107  0.00  0.00    +0.000 A 
ATOM     24  C   UNL     1       1.827   7.659  20.188  0.00  0.00    +0.000 A 
ENDBRANCH  18  19
ENDBRANCH  17  18
ENDBRANCH  16  17
ENDBRANCH   2  16
TORSDOF 6
ENDMDL
MODEL 7
REMARK VINA RESULT:      -8.0      2.897      7.130
REMARK  Name = 
REMARK  6 active torsions:
REMARK  status: ('A' for Active; 'I' for Inactive)
REMARK    1  A    between atoms: C_2  and  C_3
REMARK    2  A    between atoms: C_3  and  O_4
REMARK    3  A    between atoms: O_4  and  C_5
REMARK    4  A    between atoms: C_5  and  C_6
REMARK    5  A    between atoms: C_16  and  C_17
REMARK    6  A    between atoms: C_20  and  C_21
REMARK                            x       y       z     vdW  Elec       q    Type
REMARK                         _______ _______ _______ _____ _____    ______ ____
ROOT
ATOM      1  O   UNL     1       6.277   4.212  19.249  0.00  0.00    +0.000 OA
ATOM      2  C   UNL     1       5.332   4.760  18.675  0.00  0.00    +0.000 C 
ATOM      3  N   UNL     1       4.039   4.310  18.840  0.00  0.00    +0.000 N 
ATOM      4  C   UNL     1       3.745   3.208  19.735  0.00  0.00    +0.000 C 
ATOM      5  C   UNL     1       2.538   2.548  19.099  0.00  0.00    +0.000 C 
ATOM      6  C   UNL     1       1.753   3.724  18.532  0.00  0.00    +0.000 C 
ATOM      7  C   UNL     1       2.824   4.763  18.148  0.00  0.00    +0.000 C 
ENDROOT
BRANCH   7   8
ATOM      8  C   UNL     1       2.413   6.136  18.581  0.00  0.00    +0.000 A 
ATOM      9  N   UNL     1       2.341   6.485  19.873  0.00  0.00    +0.000 NA
ATOM     10  O   UNL     1       2.023   7.846  19.815  0.00  0.00    +0.000 OA
ATOM     11  C   UNL     1       1.929   8.175  18.490  0.00  0.00    +0.000 A 
ATOM     12  N   UNL     1       2.146   7.147  17.695  0.00  0.00    +0.000 NA
BRANCH  11  13
ATOM     13  C   UNL     1       1.630   9.578  17.995  0.00  0.00    +0.000 C 
ATOM     14  C   UNL     1       0.198  10.075  18.073  0.00  0.00    +0.000 C 
ATOM     15  C   UNL     1       1.221  10.635  19.001  0.00  0.00    +0.000 C 
ENDBRANCH  11  13
ENDBRANCH   7   8
BRANCH   2  16
ATOM     16  C   UNL     1       5.573   5.949  17.723  0.00  0.00    +0.000 C 
BRANCH  16  17
ATOM     17  O   UNL     1       6.277   5.640  16.526  0.00  0.00    +0.000 OA
BRANCH  17  18
ATOM     18  C   UNL     1       5.738   4.498  15.865  0.00  0.00    +0.000 C 
BRANCH  18  19
ATOM     19  C   UNL     1       6.273   4.448  14.457  0.00  0.00    +0.000 A 
ATOM     20  C   UNL     1       7.348   5.267  14.087  0.00  0.00    +0.000 A 
ATOM     21  C   UNL     1       7.860   5.220  12.788  0.00  0.00    +0.000 A 
ATOM     22  C   UNL     1       7.305   4.351  11.852  0.00  0.00    +0.000 A 
ATOM     23  C   UNL     1       6.237   3.530  12.210  0.00  0.00    +0.000 A 
ATOM     24  C   UNL     1       5.723   3.576  13.509  0.00  0.00    +0.000 A 
ENDBRANCH  18  19
ENDBRANCH  17  18
ENDBRANCH  16  17
ENDBRANCH   2  16
TORSDOF 6
ENDMDL
MODEL 8
REMARK VINA RESULT:      -8.0      2.904      5.548
REMARK  Name = 
REMARK  6 active torsions:
REMARK  status: ('A' for Active; 'I' for Inactive)
REMARK    1  A    between atoms: C_2  and  C_3
REMARK    2  A    between atoms: C_3  and  O_4
REMARK    3  A    between atoms: O_4  and  C_5
REMARK    4  A    between atoms: C_5  and  C_6
REMARK    5  A    between atoms: C_16  and  C_17
REMARK    6  A    between atoms: C_20  and  C_21
REMARK                            x       y       z     vdW  Elec       q    Type
REMARK                         _______ _______ _______ _____ _____    ______ ____
ROOT
ATOM      1  O   UNL     1       7.076   7.552  17.016  0.00  0.00    +0.000 OA
ATOM      2  C   UNL     1       6.101   6.808  17.151  0.00  0.00    +0.000 C 
ATOM      3  N   UNL     1       6.048   5.581  16.526  0.00  0.00    +0.000 N 
ATOM      4  C   UNL     1       7.162   5.105  15.729  0.00  0.00    +0.000 C 
ATOM      5  C   UNL     1       6.499   4.246  14.671  0.00  0.00    +0.000 C 
ATOM      6  C   UNL     1       5.346   3.592  15.423  0.00  0.00    +0.000 C 
ATOM      7  C   UNL     1       4.927   4.632  16.480  0.00  0.00    +0.000 C 
ENDROOT
BRANCH   7   8
ATOM      8  C   UNL     1       4.695   3.977  17.806  0.00  0.00    +0.000 A 
ATOM      9  N   UNL     1       5.686   3.770  18.684  0.00  0.00    +0.000 NA
ATOM     10  O   UNL     1       5.021   3.240  19.793  0.00  0.00    +0.000 OA
ATOM     11  C   UNL     1       3.694   3.175  19.466  0.00  0.00    +0.000 A 
ATOM     12  N   UNL     1       3.450   3.604  18.244  0.00  0.00    +0.000 NA
BRANCH  11  13
ATOM     13  C   UNL     1       2.619   2.683  20.418  0.00  0.00    +0.000 C 
ATOM     14  C   UNL     1       2.205   3.593  21.560  0.00  0.00    +0.000 C 
ATOM     15  C   UNL     1       1.272   3.378  20.419  0.00  0.00    +0.000 C 
ENDBRANCH  11  13
ENDBRANCH   7   8
BRANCH   2  16
ATOM     16  C   UNL     1       4.889   7.245  17.999  0.00  0.00    +0.000 C 
BRANCH  16  17
ATOM     17  O   UNL     1       3.690   7.484  17.274  0.00  0.00    +0.000 OA
BRANCH  17  18
ATOM     18  C   UNL     1       2.533   7.064  17.994  0.00  0.00    +0.000 C 
BRANCH  18  19
ATOM     19  C   UNL     1       1.915   8.260  18.671  0.00  0.00    +0.000 A 
ATOM     20  C   UNL     1       1.580   8.199  20.031  0.00  0.00    +0.000 A 
ATOM     21  C   UNL     1       1.017   9.304  20.672  0.00  0.00    +0.000 A 
ATOM     22  C   UNL     1       0.791  10.481  19.961  0.00  0.00    +0.000 A 
ATOM     23  C   UNL     1       1.123  10.553  18.610  0.00  0.00    +0.000 A 
ATOM     24  C   UNL     1       1.684   9.447  17.966  0.00  0.00    +0.000 A 
ENDBRANCH  18  19
ENDBRANCH  17  18
ENDBRANCH  16  17
ENDBRANCH   2  16
TORSDOF 6
ENDMDL
MODEL 9
REMARK VINA RESULT:      -7.9      2.484      7.248
REMARK  Name = 
REMARK  6 active torsions:
REMARK  status: ('A' for Active; 'I' for Inactive)
REMARK    1  A    between atoms: C_2  and  C_3
REMARK    2  A    between atoms: C_3  and  O_4
REMARK    3  A    between atoms: O_4  and  C_5
REMARK    4  A    between atoms: C_5  and  C_6
REMARK    5  A    between atoms: C_16  and  C_17
REMARK    6  A    between atoms: C_20  and  C_21
REMARK                            x       y       z     vdW  Elec       q    Type
REMARK                         _______ _______ _______ _____ _____    ______ ____
ROOT
ATOM      1  O   UNL     1       5.111   2.488  20.047  0.00  0.00    +0.000 OA
ATOM      2  C   UNL     1       4.582   3.322  19.306  0.00  0.00    +0.000 C 
ATOM      3  N   UNL     1       3.213   3.380  19.160  0.00  0.00    +0.000 N 
ATOM      4  C   UNL     1       2.347   2.494  19.913  0.00  0.00    +0.000 C 
ATOM      5  C   UNL     1       1.158   2.296  18.995  0.00  0.00    +0.000 C 
ATOM      6  C   UNL     1       1.000   3.658  18.327  0.00  0.00    +0.000 C 
ATOM      7  C   UNL     1       2.432   4.220  18.240  0.00  0.00    +0.000 C 
ENDROOT
BRANCH   7   8
ATOM      8  C   UNL     1       2.462   5.663  18.639  0.00  0.00    +0.000 A 
ATOM      9  N   UNL     1       2.887   6.624  17.808  0.00  0.00    +0.000 NA
ATOM     10  O   UNL     1       2.656   7.796  18.535  0.00  0.00    +0.000 OA
ATOM     11  C   UNL     1       2.120   7.418  19.736  0.00  0.00    +0.000 A 
ATOM     12  N   UNL     1       1.998   6.110  19.849  0.00  0.00    +0.000 NA
BRANCH  11  13
ATOM     13  C   UNL     1       1.693   8.402  20.810  0.00  0.00    +0.000 C 
ATOM     14  C   UNL     1       0.576   9.376  20.482  0.00  0.00    +0.000 C 
ATOM     15  C   UNL     1       0.317   8.254  21.427  0.00  0.00    +0.000 C 
ENDBRANCH  11  13
ENDBRANCH   7   8
BRANCH   2  16
ATOM     16  C   UNL     1       5.444   4.307  18.489  0.00  0.00    +0.000 C 
BRANCH  16  17
ATOM     17  O   UNL     1       5.515   4.044  17.094  0.00  0.00    +0.000 OA
BRANCH  17  18
ATOM     18  C   UNL     1       5.821   5.215  16.341  0.00  0.00    +0.000 C 
BRANCH  18  19
ATOM     19  C   UNL     1       6.181   4.816  14.934  0.00  0.00    +0.000 A 
ATOM     20  C   UNL     1       7.331   5.343  14.328  0.00  0.00    +0.000 A 
ATOM     21  C   UNL     1       7.681   4.971  13.029  0.00  0.00    +0.000 A 
ATOM     22  C   UNL     1       6.890   4.064  12.327  0.00  0.00    +0.000 A 
ATOM     23  C   UNL     1       5.746   3.532  12.920  0.00  0.00    +0.000 A 
ATOM     24  C   UNL     1       5.393   3.905  14.220  0.00  0.00    +0.000 A 
ENDBRANCH  18  19
ENDBRANCH  17  18
ENDBRANCH  16  17
ENDBRANCH   2  16
TORSDOF 6
ENDMDL
