MODEL 1
REMARK VINA RESULT:      -7.5      0.000      0.000
REMARK  Name = 
REMARK  6 active torsions:
REMARK  status: ('A' for Active; 'I' for Inactive)
REMARK    1  A    between atoms: C_1  and  C_2
REMARK    2  A    between atoms: C_2  and  C_3
REMARK    3  A    between atoms: C_2  and  C_4
REMARK    4  A    between atoms: C_7  and  C_8
REMARK    5  A    between atoms: N_10  and  N_11
REMARK    6  A    between atoms: C_12  and  C_14
REMARK                            x       y       z     vdW  Elec       q    Type
REMARK                         _______ _______ _______ _____ _____    ______ ____
ROOT
ATOM      1  C   UNL     1       3.358   6.129  18.927  0.00  0.00    +0.000 C 
ATOM      2  O   UNL     1       3.488   5.545  20.003  0.00  0.00    +0.000 OA
ATOM      3  N   UNL     1       2.581   7.265  18.803  0.00  0.00    +0.000 N 
ATOM      4  H   UNL     1       2.487   7.824  17.958  0.00  0.00    +0.000 HD
ENDROOT
BRANCH   1   8
ATOM      5  C   UNL     1       5.463   4.601  15.425  0.00  0.00    +0.000 A 
ATOM      6  C   UNL     1       4.823   3.737  16.338  0.00  0.00    +0.000 A 
ATOM      7  C   UNL     1       4.125   4.254  17.453  0.00  0.00    +0.000 A 
ATOM      8  C   UNL     1       4.055   5.631  17.691  0.00  0.00    +0.000 A 
ATOM      9  C   UNL     1       4.658   6.489  16.763  0.00  0.00    +0.000 A 
ATOM     10  C   UNL     1       5.351   5.972  15.655  0.00  0.00    +0.000 A 
BRANCH   5  12
ATOM     11  C   UNL     1       5.301   3.753  13.019  0.00  0.00    +0.000 C 
ATOM     12  C   UNL     1       6.221   4.053  14.212  0.00  0.00    +0.000 C 
ATOM     13  C   UNL     1       7.346   4.970  13.707  0.00  0.00    +0.000 C 
ENDBRANCH   5  12
ENDBRANCH   1   8
BRANCH   3  14
ATOM     14  N   UNL     1       1.934   7.797  19.928  0.00  0.00    +0.000 N 
ATOM     15  C   UNL     1       1.363   9.049  19.792  0.00  0.00    +0.000 C 
ATOM     16  O   UNL     1       1.416   9.685  18.742  0.00  0.00    +0.000 OA
ATOM     17  H   UNL     1       1.750   7.153  20.696  0.00  0.00    +0.000 HD
BRANCH  15  18
ATOM     18  C   UNL     1       0.658   9.614  20.969  0.00  0.00    +0.000 A 
ATOM     19  C   UNL     1       0.563   8.923  22.177  0.00  0.00    +0.000 A 
ATOM     20  C   UNL     1      -0.064   9.563  23.234  0.00  0.00    +0.000 A 
ATOM     21  N   UNL     1      -0.593  10.802  23.157  0.00  0.00    +0.000 NA
ATOM     22  C   UNL     1      -0.479  11.450  21.978  0.00  0.00    +0.000 A 
ATOM     23  C   UNL     1       0.139  10.905  20.868  0.00  0.00    +0.000 A 
ENDBRANCH  15  18
ENDBRANCH   3  14
TORSDOF 4
ENDMDL
MODEL 2
REMARK VINA RESULT:      -7.5      0.123      1.031
REMARK  Name = 
REMARK  6 active torsions:
REMARK  status: ('A' for Active; 'I' for Inactive)
REMARK    1  A    between atoms: C_1  and  C_2
REMARK    2  A    between atoms: C_2  and  C_3
REMARK    3  A    between atoms: C_2  and  C_4
REMARK    4  A    between atoms: C_7  and  C_8
REMARK    5  A    between atoms: N_10  and  N_11
REMARK    6  A    between atoms: C_12  and  C_14
REMARK                            x       y       z     vdW  Elec       q    Type
REMARK                         _______ _______ _______ _____ _____    ______ ____
ROOT
ATOM      1  C   UNL     1       3.406   6.169  18.892  0.00  0.00    +0.000 C 
ATOM      2  O   UNL     1       3.577   5.612  19.976  0.00  0.00    +0.000 OA
ATOM      3  N   UNL     1       2.609   7.291  18.765  0.00  0.00    +0.000 N 
ATOM      4  H   UNL     1       2.482   7.828  17.911  0.00  0.00    +0.000 HD
ENDROOT
BRANCH   1   8
ATOM      5  C   UNL     1       5.417   4.579  15.363  0.00  0.00    +0.000 A 
ATOM      6  C   UNL     1       4.746   3.737  16.273  0.00  0.00    +0.000 A 
ATOM      7  C   UNL     1       4.079   4.275  17.397  0.00  0.00    +0.000 A 
ATOM      8  C   UNL     1       4.072   5.651  17.646  0.00  0.00    +0.000 A 
ATOM      9  C   UNL     1       4.706   6.489  16.722  0.00  0.00    +0.000 A 
ATOM     10  C   UNL     1       5.368   5.952  15.604  0.00  0.00    +0.000 A 
BRANCH   5  12
ATOM     11  C   UNL     1       5.200   3.754  12.952  0.00  0.00    +0.000 C 
ATOM     12  C   UNL     1       6.143   4.009  14.139  0.00  0.00    +0.000 C 
ATOM     13  C   UNL     1       7.300   4.882  13.631  0.00  0.00    +0.000 C 
ENDBRANCH   5  12
ENDBRANCH   1   8
BRANCH   3  14
ATOM     14  N   UNL     1       1.990   7.841  19.897  0.00  0.00    +0.000 N 
ATOM     15  C   UNL     1       1.401   9.084  19.751  0.00  0.00    +0.000 C 
ATOM     16  O   UNL     1       1.416   9.697  18.686  0.00  0.00    +0.000 OA
ATOM     17  H   UNL     1       1.835   7.212  20.683  0.00  0.00    +0.000 HD
BRANCH  15  18
ATOM     18  C   UNL     1       0.724   9.667  20.936  0.00  0.00    +0.000 A 
ATOM     19  C   UNL     1      -0.003  10.854  20.863  0.00  0.00    +0.000 A 
ATOM     20  C   UNL     1      -0.648  11.282  22.013  0.00  0.00    +0.000 A 
ATOM     21  N   UNL     1      -0.602  10.625  23.191  0.00  0.00    +0.000 NA
ATOM     22  C   UNL     1       0.104   9.475  23.230  0.00  0.00    +0.000 A 
ATOM     23  C   UNL     1       0.772   8.955  22.136  0.00  0.00    +0.000 A 
ENDBRANCH  15  18
ENDBRANCH   3  14
TORSDOF 4
ENDMDL
MODEL 3
REMARK VINA RESULT:      -7.4      0.336      1.098
REMARK  Name = 
REMARK  6 active torsions:
REMARK  status: ('A' for Active; 'I' for Inactive)
REMARK    1  A    between atoms: C_1  and  C_2
REMARK    2  A    between atoms: C_2  and  C_3
REMARK    3  A    between atoms: C_2  and  C_4
REMARK    4  A    between atoms: C_7  and  C_8
REMARK    5  A    between atoms: N_10  and  N_11
REMARK    6  A    between atoms: C_12  and  C_14
REMARK                            x       y       z     vdW  Elec       q    Type
REMARK                         _______ _______ _______ _____ _____    ______ ____
ROOT
ATOM      1  C   UNL     1       3.133   5.944  19.184  0.00  0.00    +0.000 C 
ATOM      2  O   UNL     1       2.896   5.219  20.151  0.00  0.00    +0.000 OA
ATOM      3  N   UNL     1       2.693   7.252  19.126  0.00  0.00    +0.000 N 
ATOM      4  H   UNL     1       2.911   7.914  18.385  0.00  0.00    +0.000 HD
ENDROOT
BRANCH   1   8
ATOM      5  C   UNL     1       5.358   4.535  15.706  0.00  0.00    +0.000 A 
ATOM      6  C   UNL     1       5.214   5.910  15.984  0.00  0.00    +0.000 A 
ATOM      7  C   UNL     1       4.510   6.345  17.129  0.00  0.00    +0.000 A 
ATOM      8  C   UNL     1       3.929   5.431  18.015  0.00  0.00    +0.000 A 
ATOM      9  C   UNL     1       4.105   4.066  17.759  0.00  0.00    +0.000 A 
ATOM     10  C   UNL     1       4.806   3.636  16.619  0.00  0.00    +0.000 A 
BRANCH   5  12
ATOM     11  C   UNL     1       5.202   3.817  13.257  0.00  0.00    +0.000 C 
ATOM     12  C   UNL     1       6.119   4.050  14.468  0.00  0.00    +0.000 C 
ATOM     13  C   UNL     1       7.250   4.987  14.018  0.00  0.00    +0.000 C 
ENDBRANCH   5  12
ENDBRANCH   1   8
BRANCH   3  14
ATOM     14  N   UNL     1       1.975   7.798  20.201  0.00  0.00    +0.000 N 
ATOM     15  C   UNL     1       1.304   8.985  19.973  0.00  0.00    +0.000 C 
ATOM     16  O   UNL     1       1.329   9.555  18.885  0.00  0.00    +0.000 OA
ATOM     17  H   UNL     1       1.827   7.190  21.006  0.00  0.00    +0.000 HD
BRANCH  15  18
ATOM     18  C   UNL     1       0.525   9.560  21.097  0.00  0.00    +0.000 A 
ATOM     19  C   UNL     1       0.491   8.963  22.357  0.00  0.00    +0.000 A 
ATOM     20  C   UNL     1      -0.217   9.612  23.355  0.00  0.00    +0.000 A 
ATOM     21  N   UNL     1      -0.880  10.774  23.175  0.00  0.00    +0.000 NA
ATOM     22  C   UNL     1      -0.823  11.333  21.947  0.00  0.00    +0.000 A 
ATOM     23  C   UNL     1      -0.134  10.773  20.887  0.00  0.00    +0.000 A 
ENDBRANCH  15  18
ENDBRANCH   3  14
TORSDOF 4
ENDMDL
MODEL 4
REMARK VINA RESULT:      -7.3      0.462      1.536
REMARK  Name = 
REMARK  6 active torsions:
REMARK  status: ('A' for Active; 'I' for Inactive)
REMARK    1  A    between atoms: C_1  and  C_2
REMARK    2  A    between atoms: C_2  and  C_3
REMARK    3  A    between atoms: C_2  and  C_4
REMARK    4  A    between atoms: C_7  and  C_8
REMARK    5  A    between atoms: N_10  and  N_11
REMARK    6  A    between atoms: C_12  and  C_14
REMARK                            x       y       z     vdW  Elec       q    Type
REMARK                         _______ _______ _______ _____ _____    ______ ____
ROOT
ATOM      1  C   UNL     1       2.968   6.123  19.186  0.00  0.00    +0.000 C 
ATOM      2  O   UNL     1       2.693   5.425  20.162  0.00  0.00    +0.000 OA
ATOM      3  N   UNL     1       2.555   7.438  19.088  0.00  0.00    +0.000 N 
ATOM      4  H   UNL     1       2.805   8.079  18.338  0.00  0.00    +0.000 HD
ENDROOT
BRANCH   1   8
ATOM      5  C   UNL     1       5.256   4.599  15.798  0.00  0.00    +0.000 A 
ATOM      6  C   UNL     1       5.175   5.979  16.074  0.00  0.00    +0.000 A 
ATOM      7  C   UNL     1       4.449   6.451  17.191  0.00  0.00    +0.000 A 
ATOM      8  C   UNL     1       3.783   5.569  18.049  0.00  0.00    +0.000 A 
ATOM      9  C   UNL     1       3.895   4.197  17.796  0.00  0.00    +0.000 A 
ATOM     10  C   UNL     1       4.619   3.730  16.685  0.00  0.00    +0.000 A 
BRANCH   5  12
ATOM     11  C   UNL     1       5.157   3.861  13.352  0.00  0.00    +0.000 C 
ATOM     12  C   UNL     1       6.040   4.074  14.592  0.00  0.00    +0.000 C 
ATOM     13  C   UNL     1       7.218   4.967  14.170  0.00  0.00    +0.000 C 
ENDBRANCH   5  12
ENDBRANCH   1   8
BRANCH   3  14
ATOM     14  N   UNL     1       1.822   8.021  20.132  0.00  0.00    +0.000 N 
ATOM     15  C   UNL     1       1.158   9.201  19.854  0.00  0.00    +0.000 C 
ATOM     16  O   UNL     1       1.203   9.734  18.747  0.00  0.00    +0.000 OA
ATOM     17  H   UNL     1       1.659   7.441  20.954  0.00  0.00    +0.000 HD
BRANCH  15  18
ATOM     18  C   UNL     1       0.362   9.816  20.944  0.00  0.00    +0.000 A 
ATOM     19  C   UNL     1      -0.380  10.980  20.753  0.00  0.00    +0.000 A 
ATOM     20  C   UNL     1      -1.138  11.440  21.819  0.00  0.00    +0.000 A 
ATOM     21  N   UNL     1      -1.187  10.834  23.024  0.00  0.00    +0.000 NA
ATOM     22  C   UNL     1      -0.464   9.705  23.178  0.00  0.00    +0.000 A 
ATOM     23  C   UNL     1       0.313   9.157  22.174  0.00  0.00    +0.000 A 
ENDBRANCH  15  18
ENDBRANCH   3  14
TORSDOF 4
ENDMDL
MODEL 5
REMARK VINA RESULT:      -7.2      3.400      9.178
REMARK  Name = 
REMARK  6 active torsions:
REMARK  status: ('A' for Active; 'I' for Inactive)
REMARK    1  A    between atoms: C_1  and  C_2
REMARK    2  A    between atoms: C_2  and  C_3
REMARK    3  A    between atoms: C_2  and  C_4
REMARK    4  A    between atoms: C_7  and  C_8
REMARK    5  A    between atoms: N_10  and  N_11
REMARK    6  A    between atoms: C_12  and  C_14
REMARK                            x       y       z     vdW  Elec       q    Type
REMARK                         _______ _______ _______ _____ _____    ______ ____
ROOT
ATOM      1  C   UNL     1       1.446   8.172  20.361  0.00  0.00    +0.000 C 
ATOM      2  O   UNL     1       1.884   8.366  19.227  0.00  0.00    +0.000 OA
ATOM      3  N   UNL     1       1.637   6.974  21.022  0.00  0.00    +0.000 N 
ATOM      4  H   UNL     1       1.355   6.779  21.980  0.00  0.00    +0.000 HD
ENDROOT
BRANCH   1   8
ATOM      5  C   UNL     1      -0.645  11.372  22.463  0.00  0.00    +0.000 A 
ATOM      6  C   UNL     1      -0.020  11.591  21.217  0.00  0.00    +0.000 A 
ATOM      7  C   UNL     1       0.630  10.534  20.541  0.00  0.00    +0.000 A 
ATOM      8  C   UNL     1       0.684   9.247  21.087  0.00  0.00    +0.000 A 
ATOM      9  C   UNL     1       0.032   9.023  22.305  0.00  0.00    +0.000 A 
ATOM     10  C   UNL     1      -0.615  10.075  22.975  0.00  0.00    +0.000 A 
BRANCH   5  12
ATOM     11  C   UNL     1      -0.989  13.898  22.660  0.00  0.00    +0.000 C 
ATOM     12  C   UNL     1      -1.355  12.508  23.205  0.00  0.00    +0.000 C 
ATOM     13  C   UNL     1      -2.888  12.401  23.203  0.00  0.00    +0.000 C 
ENDBRANCH   5  12
ENDBRANCH   1   8
BRANCH   3  14
ATOM     14  N   UNL     1       2.369   5.945  20.411  0.00  0.00    +0.000 N 
ATOM     15  C   UNL     1       1.714   4.748  20.194  0.00  0.00    +0.000 C 
ATOM     16  O   UNL     1       0.542   4.571  20.522  0.00  0.00    +0.000 OA
ATOM     17  H   UNL     1       3.258   6.208  19.987  0.00  0.00    +0.000 HD
BRANCH  15  18
ATOM     18  C   UNL     1       2.472   3.660  19.530  0.00  0.00    +0.000 A 
ATOM     19  C   UNL     1       3.542   3.017  20.151  0.00  0.00    +0.000 A 
ATOM     20  C   UNL     1       4.146   1.972  19.469  0.00  0.00    +0.000 A 
ATOM     21  N   UNL     1       3.766   1.554  18.243  0.00  0.00    +0.000 NA
ATOM     22  C   UNL     1       2.722   2.190  17.669  0.00  0.00    +0.000 A 
ATOM     23  C   UNL     1       2.044   3.234  18.271  0.00  0.00    +0.000 A 
ENDBRANCH  15  18
ENDBRANCH   3  14
TORSDOF 4
ENDMDL
MODEL 6
REMARK VINA RESULT:      -7.2      0.852      1.428
REMARK  Name = 
REMARK  6 active torsions:
REMARK  status: ('A' for Active; 'I' for Inactive)
REMARK    1  A    between atoms: C_1  and  C_2
REMARK    2  A    between atoms: C_2  and  C_3
REMARK    3  A    between atoms: C_2  and  C_4
REMARK    4  A    between atoms: C_7  and  C_8
REMARK    5  A    between atoms: N_10  and  N_11
REMARK    6  A    between atoms: C_12  and  C_14
REMARK                            x       y       z     vdW  Elec       q    Type
REMARK                         _______ _______ _______ _____ _____    ______ ____
ROOT
ATOM      1  C   UNL     1       4.066   5.887  18.311  0.00  0.00    +0.000 C 
ATOM      2  O   UNL     1       4.557   5.674  19.420  0.00  0.00    +0.000 OA
ATOM      3  N   UNL     1       2.931   6.657  18.150  0.00  0.00    +0.000 N 
ATOM      4  H   UNL     1       2.518   6.918  17.258  0.00  0.00    +0.000 HD
ENDROOT
BRANCH   1   8
ATOM      5  C   UNL     1       5.793   4.305  14.630  0.00  0.00    +0.000 A 
ATOM      6  C   UNL     1       5.654   5.692  14.845  0.00  0.00    +0.000 A 
ATOM      7  C   UNL     1       5.116   6.184  16.055  0.00  0.00    +0.000 A 
ATOM      8  C   UNL     1       4.696   5.317  17.068  0.00  0.00    +0.000 A 
ATOM      9  C   UNL     1       4.869   3.942  16.870  0.00  0.00    +0.000 A 
ATOM     10  C   UNL     1       5.406   3.455  15.666  0.00  0.00    +0.000 A 
BRANCH   5  12
ATOM     11  C   UNL     1       5.295   3.360  12.307  0.00  0.00    +0.000 C 
ATOM     12  C   UNL     1       6.377   3.757  13.324  0.00  0.00    +0.000 C 
ATOM     13  C   UNL     1       7.345   4.718  12.616  0.00  0.00    +0.000 C 
ENDBRANCH   5  12
ENDBRANCH   1   8
BRANCH   3  14
ATOM     14  N   UNL     1       2.319   7.244  19.268  0.00  0.00    +0.000 N 
ATOM     15  C   UNL     1       1.796   8.513  19.106  0.00  0.00    +0.000 C 
ATOM     16  O   UNL     1       1.861   9.119  18.038  0.00  0.00    +0.000 OA
ATOM     17  H   UNL     1       2.120   6.628  20.055  0.00  0.00    +0.000 HD
BRANCH  15  18
ATOM     18  C   UNL     1       1.128   9.136  20.275  0.00  0.00    +0.000 A 
ATOM     19  C   UNL     1       1.220   8.592  21.556  0.00  0.00    +0.000 A 
ATOM     20  C   UNL     1       0.610   9.283  22.591  0.00  0.00    +0.000 A 
ATOM     21  N   UNL     1      -0.071  10.437  22.427  0.00  0.00    +0.000 NA
ATOM     22  C   UNL     1      -0.137  10.944  21.178  0.00  0.00    +0.000 A 
ATOM     23  C   UNL     1       0.448  10.339  20.080  0.00  0.00    +0.000 A 
ENDBRANCH  15  18
ENDBRANCH   3  14
TORSDOF 4
ENDMDL
MODEL 7
REMARK VINA RESULT:      -7.2      0.705      1.608
REMARK  Name = 
REMARK  6 active torsions:
REMARK  status: ('A' for Active; 'I' for Inactive)
REMARK    1  A    between atoms: C_1  and  C_2
REMARK    2  A    between atoms: C_2  and  C_3
REMARK    3  A    between atoms: C_2  and  C_4
REMARK    4  A    between atoms: C_7  and  C_8
REMARK    5  A    between atoms: N_10  and  N_11
REMARK    6  A    between atoms: C_12  and  C_14
REMARK                            x       y       z     vdW  Elec       q    Type
REMARK                         _______ _______ _______ _____ _____    ______ ____
ROOT
ATOM      1  C   UNL     1       3.847   5.924  18.544  0.00  0.00    +0.000 C 
ATOM      2  O   UNL     1       4.222   5.604  19.672  0.00  0.00    +0.000 OA
ATOM      3  N   UNL     1       2.795   6.796  18.343  0.00  0.00    +0.000 N 
ATOM      4  H   UNL     1       2.482   7.143  17.440  0.00  0.00    +0.000 HD
ENDROOT
BRANCH   1   8
ATOM      5  C   UNL     1       5.743   4.411  14.918  0.00  0.00    +0.000 A 
ATOM      6  C   UNL     1       5.593   5.794  15.152  0.00  0.00    +0.000 A 
ATOM      7  C   UNL     1       4.999   6.263  16.344  0.00  0.00    +0.000 A 
ATOM      8  C   UNL     1       4.533   5.377  17.321  0.00  0.00    +0.000 A 
ATOM      9  C   UNL     1       4.717   4.006  17.105  0.00  0.00    +0.000 A 
ATOM     10  C   UNL     1       5.309   3.542  15.918  0.00  0.00    +0.000 A 
BRANCH   5  12
ATOM     11  C   UNL     1       5.353   3.488  12.565  0.00  0.00    +0.000 C 
ATOM     12  C   UNL     1       6.387   3.889  13.629  0.00  0.00    +0.000 C 
ATOM     13  C   UNL     1       7.368   4.872  12.973  0.00  0.00    +0.000 C 
ENDBRANCH   5  12
ENDBRANCH   1   8
BRANCH   3  14
ATOM     14  N   UNL     1       2.138   7.365  19.444  0.00  0.00    +0.000 N 
ATOM     15  C   UNL     1       1.683   8.663  19.305  0.00  0.00    +0.000 C 
ATOM     16  O   UNL     1       1.845   9.308  18.271  0.00  0.00    +0.000 OA
ATOM     17  H   UNL     1       1.860   6.727  20.189  0.00  0.00    +0.000 HD
BRANCH  15  18
ATOM     18  C   UNL     1       0.969   9.269  20.455  0.00  0.00    +0.000 A 
ATOM     19  C   UNL     1       0.048  10.304  20.294  0.00  0.00    +0.000 A 
ATOM     20  C   UNL     1      -0.610  10.758  21.425  0.00  0.00    +0.000 A 
ATOM     21  N   UNL     1      -0.404  10.267  22.665  0.00  0.00    +0.000 NA
ATOM     22  C   UNL     1       0.487   9.260  22.790  0.00  0.00    +0.000 A 
ATOM     23  C   UNL     1       1.186   8.726  21.723  0.00  0.00    +0.000 A 
ENDBRANCH  15  18
ENDBRANCH   3  14
TORSDOF 4
ENDMDL
MODEL 8
REMARK VINA RESULT:      -7.1      2.611      9.172
REMARK  Name = 
REMARK  6 active torsions:
REMARK  status: ('A' for Active; 'I' for Inactive)
REMARK    1  A    between atoms: C_1  and  C_2
REMARK    2  A    between atoms: C_2  and  C_3
REMARK    3  A    between atoms: C_2  and  C_4
REMARK    4  A    between atoms: C_7  and  C_8
REMARK    5  A    between atoms: N_10  and  N_11
REMARK    6  A    between atoms: C_12  and  C_14
REMARK                            x       y       z     vdW  Elec       q    Type
REMARK                         _______ _______ _______ _____ _____    ______ ____
ROOT
ATOM      1  C   UNL     1       1.387   8.446  20.266  0.00  0.00    +0.000 C 
ATOM      2  O   UNL     1       1.626   8.642  19.074  0.00  0.00    +0.000 OA
ATOM      3  N   UNL     1       1.770   7.283  20.906  0.00  0.00    +0.000 N 
ATOM      4  H   UNL     1       1.657   7.093  21.899  0.00  0.00    +0.000 HD
ENDROOT
BRANCH   1   8
ATOM      5  C   UNL     1      -0.816  11.365  22.644  0.00  0.00    +0.000 A 
ATOM      6  C   UNL     1      -0.695  10.020  23.051  0.00  0.00    +0.000 A 
ATOM      7  C   UNL     1       0.044   9.096  22.279  0.00  0.00    +0.000 A 
ATOM      8  C   UNL     1       0.668   9.481  21.088  0.00  0.00    +0.000 A 
ATOM      9  C   UNL     1       0.579  10.824  20.704  0.00  0.00    +0.000 A 
ATOM     10  C   UNL     1      -0.156  11.741  21.474  0.00  0.00    +0.000 A 
BRANCH   5  12
ATOM     11  C   UNL     1      -1.193  13.832  23.203  0.00  0.00    +0.000 C 
ATOM     12  C   UNL     1      -1.614  12.378  23.472  0.00  0.00    +0.000 C 
ATOM     13  C   UNL     1      -3.135  12.293  23.275  0.00  0.00    +0.000 C 
ENDBRANCH   5  12
ENDBRANCH   1   8
BRANCH   3  14
ATOM     14  N   UNL     1       2.474   6.295  20.201  0.00  0.00    +0.000 N 
ATOM     15  C   UNL     1       1.896   5.041  20.126  0.00  0.00    +0.000 C 
ATOM     16  O   UNL     1       0.817   4.783  20.653  0.00  0.00    +0.000 OA
ATOM     17  H   UNL     1       3.252   6.613  19.625  0.00  0.00    +0.000 HD
BRANCH  15  18
ATOM     18  C   UNL     1       2.622   3.995  19.366  0.00  0.00    +0.000 A 
ATOM     19  C   UNL     1       2.333   2.638  19.512  0.00  0.00    +0.000 A 
ATOM     20  C   UNL     1       3.027   1.745  18.711  0.00  0.00    +0.000 A 
ATOM     21  N   UNL     1       3.966   2.111  17.814  0.00  0.00    +0.000 NA
ATOM     22  C   UNL     1       4.220   3.431  17.688  0.00  0.00    +0.000 A 
ATOM     23  C   UNL     1       3.574   4.403  18.430  0.00  0.00    +0.000 A 
ENDBRANCH  15  18
ENDBRANCH   3  14
TORSDOF 4
ENDMDL
MODEL 9
REMARK VINA RESULT:      -7.0      3.450      9.179
REMARK  Name = 
REMARK  6 active torsions:
REMARK  status: ('A' for Active; 'I' for Inactive)
REMARK    1  A    between atoms: C_1  and  C_2
REMARK    2  A    between atoms: C_2  and  C_3
REMARK    3  A    between atoms: C_2  and  C_4
REMARK    4  A    between atoms: C_7  and  C_8
REMARK    5  A    between atoms: N_10  and  N_11
REMARK    6  A    between atoms: C_12  and  C_14
REMARK                            x       y       z     vdW  Elec       q    Type
REMARK                         _______ _______ _______ _____ _____    ______ ____
ROOT
ATOM      1  C   UNL     1       1.465   8.062  20.396  0.00  0.00    +0.000 C 
ATOM      2  O   UNL     1       1.937   8.241  19.273  0.00  0.00    +0.000 OA
ATOM      3  N   UNL     1       1.613   6.864  21.067  0.00  0.00    +0.000 N 
ATOM      4  H   UNL     1       1.300   6.680  22.018  0.00  0.00    +0.000 HD
ENDROOT
BRANCH   1   8
ATOM      5  C   UNL     1      -0.621  11.324  22.405  0.00  0.00    +0.000 A 
ATOM      6  C   UNL     1      -0.117  11.465  21.096  0.00  0.00    +0.000 A 
ATOM      7  C   UNL     1       0.533  10.387  20.453  0.00  0.00    +0.000 A 
ATOM      8  C   UNL     1       0.706   9.157  21.095  0.00  0.00    +0.000 A 
ATOM      9  C   UNL     1       0.172   9.006  22.381  0.00  0.00    +0.000 A 
ATOM     10  C   UNL     1      -0.475  10.079  23.017  0.00  0.00    +0.000 A 
BRANCH   5  12
ATOM     11  C   UNL     1      -0.784  13.859  22.698  0.00  0.00    +0.000 C 
ATOM     12  C   UNL     1      -1.330  12.483  23.113  0.00  0.00    +0.000 C 
ATOM     13  C   UNL     1      -2.853  12.510  22.906  0.00  0.00    +0.000 C 
ENDBRANCH   5  12
ENDBRANCH   1   8
BRANCH   3  14
ATOM     14  N   UNL     1       2.339   5.817  20.480  0.00  0.00    +0.000 N 
ATOM     15  C   UNL     1       1.651   4.650  20.203  0.00  0.00    +0.000 C 
ATOM     16  O   UNL     1       0.457   4.515  20.459  0.00  0.00    +0.000 OA
ATOM     17  H   UNL     1       3.261   6.052  20.113  0.00  0.00    +0.000 HD
BRANCH  15  18
ATOM     18  C   UNL     1       2.405   3.544  19.563  0.00  0.00    +0.000 A 
ATOM     19  C   UNL     1       2.068   3.050  18.304  0.00  0.00    +0.000 A 
ATOM     20  C   UNL     1       2.872   2.056  17.769  0.00  0.00    +0.000 A 
ATOM     21  N   UNL     1       3.947   1.537  18.398  0.00  0.00    +0.000 NA
ATOM     22  C   UNL     1       4.255   2.040  19.613  0.00  0.00    +0.000 A 
ATOM     23  C   UNL     1       3.525   3.041  20.228  0.00  0.00    +0.000 A 
ENDBRANCH  15  18
ENDBRANCH   3  14
TORSDOF 4
ENDMDL
