MODEL 1
REMARK VINA RESULT:      -8.0      0.000      0.000
REMARK  Name = 
REMARK  9 active torsions:
REMARK  status: ('A' for Active; 'I' for Inactive)
REMARK    1  A    between atoms: C_1  and  N_2
REMARK    2  A    between atoms: C_3  and  C_4
REMARK    3  A    between atoms: C_4  and  N_5
REMARK    4  A    between atoms: C_6  and  C_8
REMARK    5  A    between atoms: C_17  and  S_18
REMARK    6  A    between atoms: S_18  and  C_19
REMARK    7  A    between atoms: C_19  and  C_20
REMARK    8  A    between atoms: N_22  and  C_23
REMARK    9  A    between atoms: C_23  and  C_24
REMARK                            x       y       z     vdW  Elec       q    Type
REMARK                         _______ _______ _______ _____ _____    ______ ____
ROOT
ATOM      1  C   UNL     1       3.191   4.385  17.149  0.00  0.00    +0.000 C 
ATOM      2  N   UNL     1       4.187   4.126  18.156  0.00  0.00    +0.000 N 
ATOM      3  C   UNL     1       5.294   4.884  18.462  0.00  0.00    +0.000 A 
ATOM      4  N   UNL     1       5.881   4.368  19.526  0.00  0.00    +0.000 NA
ATOM      5  N   UNL     1       5.199   3.234  19.883  0.00  0.00    +0.000 NA
ATOM      6  C   UNL     1       4.204   3.084  19.043  0.00  0.00    +0.000 A 
ENDROOT
BRANCH   3   7
ATOM      7  C   UNL     1       5.758   6.089  17.729  0.00  0.00    +0.000 C 
BRANCH   7   8
ATOM      8  N   UNL     1       5.915   5.743  16.337  0.00  0.00    +0.000 N 
ATOM      9  C   UNL     1       6.975   5.007  15.865  0.00  0.00    +0.000 C 
ATOM     10  O   UNL     1       7.881   4.603  16.586  0.00  0.00    +0.000 OA
ATOM     11  H   UNL     1       5.148   5.979  15.718  0.00  0.00    +0.000 HD
BRANCH   9  12
ATOM     12  C   UNL     1       7.006   4.731  14.405  0.00  0.00    +0.000 A 
ATOM     13  C   UNL     1       7.858   5.502  13.602  0.00  0.00    +0.000 A 
ATOM     14  C   UNL     1       7.896   5.298  12.220  0.00  0.00    +0.000 A 
ATOM     15  C   UNL     1       7.098   4.314  11.635  0.00  0.00    +0.000 A 
ATOM     16  C   UNL     1       6.261   3.534  12.432  0.00  0.00    +0.000 A 
ATOM     17  C   UNL     1       6.218   3.747  13.808  0.00  0.00    +0.000 A 
ATOM     18  F   UNL     1       5.394   2.980  14.540  0.00  0.00    +0.000 F 
ENDBRANCH   9  12
ENDBRANCH   7   8
ENDBRANCH   3   7
BRANCH   6  19
ATOM     19  S   UNL     1       3.116   1.747  19.004  0.00  0.00    +0.000 S 
BRANCH  19  20
ATOM     20  C   UNL     1       1.634   2.444  19.772  0.00  0.00    +0.000 C 
BRANCH  20  21
ATOM     21  C   UNL     1       1.926   3.571  20.747  0.00  0.00    +0.000 C 
ATOM     22  O   UNL     1       2.307   3.373  21.896  0.00  0.00    +0.000 OA
ATOM     23  N   UNL     1       1.646   4.827  20.240  0.00  0.00    +0.000 N 
ATOM     24  H   UNL     1       1.781   4.936  19.241  0.00  0.00    +0.000 HD
BRANCH  23  25
ATOM     25  C   UNL     1       1.932   6.009  21.016  0.00  0.00    +0.000 C 
BRANCH  25  26
ATOM     26  C   UNL     1       1.806   7.246  20.161  0.00  0.00    +0.000 A 
ATOM     27  C   UNL     1       1.084   8.357  20.626  0.00  0.00    +0.000 A 
ATOM     28  C   UNL     1       0.957   9.504  19.837  0.00  0.00    +0.000 A 
ATOM     29  C   UNL     1       1.546   9.549  18.576  0.00  0.00    +0.000 A 
ATOM     30  C   UNL     1       2.250   8.442  18.095  0.00  0.00    +0.000 A 
ATOM     31  C   UNL     1       2.373   7.296  18.880  0.00  0.00    +0.000 A 
ENDBRANCH  25  26
ENDBRANCH  23  25
ENDBRANCH  20  21
ENDBRANCH  19  20
ENDBRANCH   6  19
TORSDOF 8
ENDMDL
MODEL 2
REMARK VINA RESULT:      -7.8      3.354      7.832
REMARK  Name = 
REMARK  9 active torsions:
REMARK  status: ('A' for Active; 'I' for Inactive)
REMARK    1  A    between atoms: C_1  and  N_2
REMARK    2  A    between atoms: C_3  and  C_4
REMARK    3  A    between atoms: C_4  and  N_5
REMARK    4  A    between atoms: C_6  and  C_8
REMARK    5  A    between atoms: C_17  and  S_18
REMARK    6  A    between atoms: S_18  and  C_19
REMARK    7  A    between atoms: C_19  and  C_20
REMARK    8  A    between atoms: N_22  and  C_23
REMARK    9  A    between atoms: C_23  and  C_24
REMARK                            x       y       z     vdW  Elec       q    Type
REMARK                         _______ _______ _______ _____ _____    ______ ____
ROOT
ATOM      1  C   UNL     1       4.788   7.349  16.421  0.00  0.00    +0.000 C 
ATOM      2  N   UNL     1       4.388   6.813  17.697  0.00  0.00    +0.000 N 
ATOM      3  C   UNL     1       3.232   7.074  18.397  0.00  0.00    +0.000 A 
ATOM      4  N   UNL     1       3.192   6.290  19.458  0.00  0.00    +0.000 NA
ATOM      5  N   UNL     1       4.351   5.559  19.493  0.00  0.00    +0.000 NA
ATOM      6  C   UNL     1       5.070   5.897  18.451  0.00  0.00    +0.000 A 
ENDROOT
BRANCH   3   7
ATOM      7  C   UNL     1       2.192   8.066  18.025  0.00  0.00    +0.000 C 
BRANCH   7   8
ATOM      8  N   UNL     1       1.491   8.463  19.222  0.00  0.00    +0.000 N 
ATOM      9  C   UNL     1       1.101   9.758  19.465  0.00  0.00    +0.000 C 
ATOM     10  O   UNL     1       1.334  10.681  18.691  0.00  0.00    +0.000 OA
ATOM     11  H   UNL     1       1.199   7.721  19.848  0.00  0.00    +0.000 HD
BRANCH   9  12
ATOM     12  C   UNL     1       0.390  10.018  20.743  0.00  0.00    +0.000 A 
ATOM     13  C   UNL     1      -0.486  11.111  20.805  0.00  0.00    +0.000 A 
ATOM     14  C   UNL     1      -1.152  11.412  21.996  0.00  0.00    +0.000 A 
ATOM     15  C   UNL     1      -0.961  10.615  23.125  0.00  0.00    +0.000 A 
ATOM     16  C   UNL     1      -0.104   9.518  23.064  0.00  0.00    +0.000 A 
ATOM     17  C   UNL     1       0.566   9.227  21.878  0.00  0.00    +0.000 A 
ATOM     18  F   UNL     1       1.389   8.166  21.862  0.00  0.00    +0.000 F 
ENDBRANCH   9  12
ENDBRANCH   7   8
ENDBRANCH   3   7
BRANCH   6  19
ATOM     19  S   UNL     1       6.663   5.335  18.106  0.00  0.00    +0.000 S 
BRANCH  19  20
ATOM     20  C   UNL     1       6.382   4.254  16.682  0.00  0.00    +0.000 C 
BRANCH  20  21
ATOM     21  C   UNL     1       4.991   3.645  16.645  0.00  0.00    +0.000 C 
ATOM     22  O   UNL     1       4.172   3.914  15.773  0.00  0.00    +0.000 OA
ATOM     23  N   UNL     1       4.717   2.827  17.726  0.00  0.00    +0.000 N 
ATOM     24  H   UNL     1       5.509   2.324  18.108  0.00  0.00    +0.000 HD
BRANCH  23  25
ATOM     25  C   UNL     1       3.462   2.119  17.807  0.00  0.00    +0.000 C 
BRANCH  25  26
ATOM     26  C   UNL     1       2.694   2.543  19.034  0.00  0.00    +0.000 A 
ATOM     27  C   UNL     1       3.237   2.343  20.313  0.00  0.00    +0.000 A 
ATOM     28  C   UNL     1       2.528   2.727  21.455  0.00  0.00    +0.000 A 
ATOM     29  C   UNL     1       1.269   3.310  21.330  0.00  0.00    +0.000 A 
ATOM     30  C   UNL     1       0.710   3.495  20.063  0.00  0.00    +0.000 A 
ATOM     31  C   UNL     1       1.415   3.108  18.923  0.00  0.00    +0.000 A 
ENDBRANCH  25  26
ENDBRANCH  23  25
ENDBRANCH  20  21
ENDBRANCH  19  20
ENDBRANCH   6  19
TORSDOF 8
ENDMDL
MODEL 3
REMARK VINA RESULT:      -7.7      4.741      8.683
REMARK  Name = 
REMARK  9 active torsions:
REMARK  status: ('A' for Active; 'I' for Inactive)
REMARK    1  A    between atoms: C_1  and  N_2
REMARK    2  A    between atoms: C_3  and  C_4
REMARK    3  A    between atoms: C_4  and  N_5
REMARK    4  A    between atoms: C_6  and  C_8
REMARK    5  A    between atoms: C_17  and  S_18
REMARK    6  A    between atoms: S_18  and  C_19
REMARK    7  A    between atoms: C_19  and  C_20
REMARK    8  A    between atoms: N_22  and  C_23
REMARK    9  A    between atoms: C_23  and  C_24
REMARK                            x       y       z     vdW  Elec       q    Type
REMARK                         _______ _______ _______ _____ _____    ______ ____
ROOT
ATOM      1  C   UNL     1       1.089   8.747  21.256  0.00  0.00    +0.000 C 
ATOM      2  N   UNL     1       1.557   8.401  19.939  0.00  0.00    +0.000 N 
ATOM      3  C   UNL     1       1.660   9.219  18.838  0.00  0.00    +0.000 A 
ATOM      4  N   UNL     1       2.248   8.550  17.864  0.00  0.00    +0.000 NA
ATOM      5  N   UNL     1       2.473   7.270  18.301  0.00  0.00    +0.000 NA
ATOM      6  C   UNL     1       2.033   7.184  19.532  0.00  0.00    +0.000 A 
ENDROOT
BRANCH   3   7
ATOM      7  C   UNL     1       1.197  10.628  18.750  0.00  0.00    +0.000 C 
BRANCH   7   8
ATOM      8  N   UNL     1      -0.195  10.628  18.375  0.00  0.00    +0.000 N 
ATOM      9  C   UNL     1      -0.972  11.761  18.385  0.00  0.00    +0.000 C 
ATOM     10  O   UNL     1      -0.547  12.859  18.732  0.00  0.00    +0.000 OA
ATOM     11  H   UNL     1      -0.568   9.763  17.998  0.00  0.00    +0.000 HD
BRANCH   9  12
ATOM     12  C   UNL     1      -2.392  11.608  17.976  0.00  0.00    +0.000 A 
ATOM     13  C   UNL     1      -2.664  11.188  16.667  0.00  0.00    +0.000 A 
ATOM     14  C   UNL     1      -3.985  11.059  16.229  0.00  0.00    +0.000 A 
ATOM     15  C   UNL     1      -5.040  11.333  17.100  0.00  0.00    +0.000 A 
ATOM     16  C   UNL     1      -4.775  11.736  18.408  0.00  0.00    +0.000 A 
ATOM     17  C   UNL     1      -3.457  11.873  18.837  0.00  0.00    +0.000 A 
ATOM     18  F   UNL     1      -3.243  12.270  20.102  0.00  0.00    +0.000 F 
ENDBRANCH   9  12
ENDBRANCH   7   8
ENDBRANCH   3   7
BRANCH   6  19
ATOM     19  S   UNL     1       1.991   5.747  20.485  0.00  0.00    +0.000 S 
BRANCH  19  20
ATOM     20  C   UNL     1       2.018   4.454  19.220  0.00  0.00    +0.000 C 
BRANCH  20  21
ATOM     21  C   UNL     1       3.418   4.036  18.807  0.00  0.00    +0.000 C 
ATOM     22  O   UNL     1       4.088   3.233  19.450  0.00  0.00    +0.000 OA
ATOM     23  N   UNL     1       3.888   4.703  17.690  0.00  0.00    +0.000 N 
ATOM     24  H   UNL     1       3.186   4.963  17.008  0.00  0.00    +0.000 HD
BRANCH  23  25
ATOM     25  C   UNL     1       5.176   4.372  17.129  0.00  0.00    +0.000 C 
BRANCH  25  26
ATOM     26  C   UNL     1       6.220   5.362  17.584  0.00  0.00    +0.000 A 
ATOM     27  C   UNL     1       7.040   5.069  18.686  0.00  0.00    +0.000 A 
ATOM     28  C   UNL     1       8.005   5.984  19.117  0.00  0.00    +0.000 A 
ATOM     29  C   UNL     1       8.156   7.200  18.456  0.00  0.00    +0.000 A 
ATOM     30  C   UNL     1       7.332   7.511  17.371  0.00  0.00    +0.000 A 
ATOM     31  C   UNL     1       6.366   6.600  16.942  0.00  0.00    +0.000 A 
ENDBRANCH  25  26
ENDBRANCH  23  25
ENDBRANCH  20  21
ENDBRANCH  19  20
ENDBRANCH   6  19
TORSDOF 8
ENDMDL
MODEL 4
REMARK VINA RESULT:      -7.7      3.610      7.931
REMARK  Name = 
REMARK  9 active torsions:
REMARK  status: ('A' for Active; 'I' for Inactive)
REMARK    1  A    between atoms: C_1  and  N_2
REMARK    2  A    between atoms: C_3  and  C_4
REMARK    3  A    between atoms: C_4  and  N_5
REMARK    4  A    between atoms: C_6  and  C_8
REMARK    5  A    between atoms: C_17  and  S_18
REMARK    6  A    between atoms: S_18  and  C_19
REMARK    7  A    between atoms: C_19  and  C_20
REMARK    8  A    between atoms: N_22  and  C_23
REMARK    9  A    between atoms: C_23  and  C_24
REMARK                            x       y       z     vdW  Elec       q    Type
REMARK                         _______ _______ _______ _____ _____    ______ ____
ROOT
ATOM      1  C   UNL     1       5.013   7.385  16.508  0.00  0.00    +0.000 C 
ATOM      2  N   UNL     1       4.572   6.800  17.749  0.00  0.00    +0.000 N 
ATOM      3  C   UNL     1       3.390   7.026  18.415  0.00  0.00    +0.000 A 
ATOM      4  N   UNL     1       3.319   6.204  19.445  0.00  0.00    +0.000 NA
ATOM      5  N   UNL     1       4.482   5.482  19.496  0.00  0.00    +0.000 NA
ATOM      6  C   UNL     1       5.235   5.863  18.494  0.00  0.00    +0.000 A 
ENDROOT
BRANCH   3   7
ATOM      7  C   UNL     1       2.354   8.023  18.042  0.00  0.00    +0.000 C 
BRANCH   7   8
ATOM      8  N   UNL     1       1.690   8.463  19.245  0.00  0.00    +0.000 N 
ATOM      9  C   UNL     1       0.939   9.613  19.306  0.00  0.00    +0.000 C 
ATOM     10  O   UNL     1       0.791  10.365  18.349  0.00  0.00    +0.000 OA
ATOM     11  H   UNL     1       1.710   7.829  20.036  0.00  0.00    +0.000 HD
BRANCH   9  12
ATOM     12  C   UNL     1       0.316   9.940  20.615  0.00  0.00    +0.000 A 
ATOM     13  C   UNL     1       0.477   9.033  21.672  0.00  0.00    +0.000 A 
ATOM     14  C   UNL     1      -0.118   9.285  22.911  0.00  0.00    +0.000 A 
ATOM     15  C   UNL     1      -0.860  10.450  23.107  0.00  0.00    +0.000 A 
ATOM     16  C   UNL     1      -1.009  11.363  22.064  0.00  0.00    +0.000 A 
ATOM     17  C   UNL     1      -0.424  11.103  20.827  0.00  0.00    +0.000 A 
ATOM     18  F   UNL     1      -0.596  12.003  19.846  0.00  0.00    +0.000 F 
ENDBRANCH   9  12
ENDBRANCH   7   8
ENDBRANCH   3   7
BRANCH   6  19
ATOM     19  S   UNL     1       6.844   5.327  18.186  0.00  0.00    +0.000 S 
BRANCH  19  20
ATOM     20  C   UNL     1       6.611   4.225  16.770  0.00  0.00    +0.000 C 
BRANCH  20  21
ATOM     21  C   UNL     1       5.187   3.719  16.620  0.00  0.00    +0.000 C 
ATOM     22  O   UNL     1       4.465   4.039  15.681  0.00  0.00    +0.000 OA
ATOM     23  N   UNL     1       4.764   2.936  17.678  0.00  0.00    +0.000 N 
ATOM     24  H   UNL     1       5.483   2.380  18.127  0.00  0.00    +0.000 HD
BRANCH  23  25
ATOM     25  C   UNL     1       3.458   2.322  17.657  0.00  0.00    +0.000 C 
BRANCH  25  26
ATOM     26  C   UNL     1       2.707   2.634  18.928  0.00  0.00    +0.000 A 
ATOM     27  C   UNL     1       3.296   2.381  20.178  0.00  0.00    +0.000 A 
ATOM     28  C   UNL     1       2.603   2.661  21.359  0.00  0.00    +0.000 A 
ATOM     29  C   UNL     1       1.317   3.192  21.303  0.00  0.00    +0.000 A 
ATOM     30  C   UNL     1       0.714   3.429  20.066  0.00  0.00    +0.000 A 
ATOM     31  C   UNL     1       1.402   3.146  18.886  0.00  0.00    +0.000 A 
ENDBRANCH  25  26
ENDBRANCH  23  25
ENDBRANCH  20  21
ENDBRANCH  19  20
ENDBRANCH   6  19
TORSDOF 8
ENDMDL
MODEL 5
REMARK VINA RESULT:      -7.6      4.592      8.675
REMARK  Name = 
REMARK  9 active torsions:
REMARK  status: ('A' for Active; 'I' for Inactive)
REMARK    1  A    between atoms: C_1  and  N_2
REMARK    2  A    between atoms: C_3  and  C_4
REMARK    3  A    between atoms: C_4  and  N_5
REMARK    4  A    between atoms: C_6  and  C_8
REMARK    5  A    between atoms: C_17  and  S_18
REMARK    6  A    between atoms: S_18  and  C_19
REMARK    7  A    between atoms: C_19  and  C_20
REMARK    8  A    between atoms: N_22  and  C_23
REMARK    9  A    between atoms: C_23  and  C_24
REMARK                            x       y       z     vdW  Elec       q    Type
REMARK                         _______ _______ _______ _____ _____    ______ ____
ROOT
ATOM      1  C   UNL     1       4.542   7.014  16.460  0.00  0.00    +0.000 C 
ATOM      2  N   UNL     1       4.126   6.587  17.771  0.00  0.00    +0.000 N 
ATOM      3  C   UNL     1       3.047   7.031  18.500  0.00  0.00    +0.000 A 
ATOM      4  N   UNL     1       2.944   6.301  19.595  0.00  0.00    +0.000 NA
ATOM      5  N   UNL     1       3.993   5.420  19.621  0.00  0.00    +0.000 NA
ATOM      6  C   UNL     1       4.708   5.616  18.540  0.00  0.00    +0.000 A 
ENDROOT
BRANCH   3   7
ATOM      7  C   UNL     1       2.136   8.142  18.123  0.00  0.00    +0.000 C 
BRANCH   7   8
ATOM      8  N   UNL     1       1.409   8.554  19.298  0.00  0.00    +0.000 N 
ATOM      9  C   UNL     1       1.081   9.864  19.553  0.00  0.00    +0.000 C 
ATOM     10  O   UNL     1       1.399  10.788  18.812  0.00  0.00    +0.000 OA
ATOM     11  H   UNL     1       1.048   7.818  19.895  0.00  0.00    +0.000 HD
BRANCH   9  12
ATOM     12  C   UNL     1       0.332  10.139  20.807  0.00  0.00    +0.000 A 
ATOM     13  C   UNL     1      -0.585  11.200  20.812  0.00  0.00    +0.000 A 
ATOM     14  C   UNL     1      -1.289  11.514  21.978  0.00  0.00    +0.000 A 
ATOM     15  C   UNL     1      -1.095  10.763  23.137  0.00  0.00    +0.000 A 
ATOM     16  C   UNL     1      -0.196   9.697  23.132  0.00  0.00    +0.000 A 
ATOM     17  C   UNL     1       0.512   9.393  21.971  0.00  0.00    +0.000 A 
ATOM     18  F   UNL     1       1.373   8.364  22.008  0.00  0.00    +0.000 F 
ENDBRANCH   9  12
ENDBRANCH   7   8
ENDBRANCH   3   7
BRANCH   6  19
ATOM     19  S   UNL     1       6.194   4.827  18.162  0.00  0.00    +0.000 S 
BRANCH  19  20
ATOM     20  C   UNL     1       7.416   6.001  18.796  0.00  0.00    +0.000 C 
BRANCH  20  21
ATOM     21  C   UNL     1       7.784   7.091  17.806  0.00  0.00    +0.000 C 
ATOM     22  O   UNL     1       7.837   6.898  16.595  0.00  0.00    +0.000 OA
ATOM     23  N   UNL     1       8.127   8.290  18.405  0.00  0.00    +0.000 N 
ATOM     24  H   UNL     1       7.650   8.497  19.274  0.00  0.00    +0.000 HD
BRANCH  23  25
ATOM     25  C   UNL     1       8.437   9.447  17.600  0.00  0.00    +0.000 C 
BRANCH  25  26
ATOM     26  C   UNL     1       8.953  10.570  18.466  0.00  0.00    +0.000 A 
ATOM     27  C   UNL     1       9.022  11.878  17.961  0.00  0.00    +0.000 A 
ATOM     28  C   UNL     1       9.505  12.922  18.755  0.00  0.00    +0.000 A 
ATOM     29  C   UNL     1       9.926  12.668  20.058  0.00  0.00    +0.000 A 
ATOM     30  C   UNL     1       9.880  11.367  20.565  0.00  0.00    +0.000 A 
ATOM     31  C   UNL     1       9.402  10.323  19.771  0.00  0.00    +0.000 A 
ENDBRANCH  25  26
ENDBRANCH  23  25
ENDBRANCH  20  21
ENDBRANCH  19  20
ENDBRANCH   6  19
TORSDOF 8
ENDMDL
MODEL 6
REMARK VINA RESULT:      -7.5      4.513      8.456
REMARK  Name = 
REMARK  9 active torsions:
REMARK  status: ('A' for Active; 'I' for Inactive)
REMARK    1  A    between atoms: C_1  and  N_2
REMARK    2  A    between atoms: C_3  and  C_4
REMARK    3  A    between atoms: C_4  and  N_5
REMARK    4  A    between atoms: C_6  and  C_8
REMARK    5  A    between atoms: C_17  and  S_18
REMARK    6  A    between atoms: S_18  and  C_19
REMARK    7  A    between atoms: C_19  and  C_20
REMARK    8  A    between atoms: N_22  and  C_23
REMARK    9  A    between atoms: C_23  and  C_24
REMARK                            x       y       z     vdW  Elec       q    Type
REMARK                         _______ _______ _______ _____ _____    ______ ____
ROOT
ATOM      1  C   UNL     1       1.254   8.559  21.317  0.00  0.00    +0.000 C 
ATOM      2  N   UNL     1       1.663   8.100  20.015  0.00  0.00    +0.000 N 
ATOM      3  C   UNL     1       1.784   8.837  18.859  0.00  0.00    +0.000 A 
ATOM      4  N   UNL     1       2.303   8.071  17.918  0.00  0.00    +0.000 NA
ATOM      5  N   UNL     1       2.463   6.811  18.433  0.00  0.00    +0.000 NA
ATOM      6  C   UNL     1       2.055   6.832  19.678  0.00  0.00    +0.000 A 
ENDROOT
BRANCH   3   7
ATOM      7  C   UNL     1       1.403  10.263  18.690  0.00  0.00    +0.000 C 
BRANCH   7   8
ATOM      8  N   UNL     1       0.028  10.319  18.260  0.00  0.00    +0.000 N 
ATOM      9  C   UNL     1      -0.710  11.479  18.265  0.00  0.00    +0.000 C 
ATOM     10  O   UNL     1      -0.262  12.553  18.653  0.00  0.00    +0.000 OA
ATOM     11  H   UNL     1      -0.358   9.477  17.848  0.00  0.00    +0.000 HD
BRANCH   9  12
ATOM     12  C   UNL     1      -2.117  11.385  17.797  0.00  0.00    +0.000 A 
ATOM     13  C   UNL     1      -2.350  10.974  16.477  0.00  0.00    +0.000 A 
ATOM     14  C   UNL     1      -3.656  10.900  15.984  0.00  0.00    +0.000 A 
ATOM     15  C   UNL     1      -4.734  11.219  16.810  0.00  0.00    +0.000 A 
ATOM     16  C   UNL     1      -4.508  11.612  18.128  0.00  0.00    +0.000 A 
ATOM     17  C   UNL     1      -3.204  11.695  18.612  0.00  0.00    +0.000 A 
ATOM     18  F   UNL     1      -3.028  12.084  19.885  0.00  0.00    +0.000 F 
ENDBRANCH   9  12
ENDBRANCH   7   8
ENDBRANCH   3   7
BRANCH   6  19
ATOM     19  S   UNL     1       1.954   5.466  20.725  0.00  0.00    +0.000 S 
BRANCH  19  20
ATOM     20  C   UNL     1       1.192   4.224  19.653  0.00  0.00    +0.000 C 
BRANCH  20  21
ATOM     21  C   UNL     1       2.192   3.278  19.011  0.00  0.00    +0.000 C 
ATOM     22  O   UNL     1       2.362   2.127  19.402  0.00  0.00    +0.000 OA
ATOM     23  N   UNL     1       2.939   3.862  18.005  0.00  0.00    +0.000 N 
ATOM     24  H   UNL     1       2.467   4.583  17.471  0.00  0.00    +0.000 HD
BRANCH  23  25
ATOM     25  C   UNL     1       3.887   3.079  17.249  0.00  0.00    +0.000 C 
BRANCH  25  26
ATOM     26  C   UNL     1       5.076   3.922  16.859  0.00  0.00    +0.000 A 
ATOM     27  C   UNL     1       5.831   4.580  17.843  0.00  0.00    +0.000 A 
ATOM     28  C   UNL     1       6.929   5.369  17.488  0.00  0.00    +0.000 A 
ATOM     29  C   UNL     1       7.281   5.509  16.148  0.00  0.00    +0.000 A 
ATOM     30  C   UNL     1       6.525   4.875  15.158  0.00  0.00    +0.000 A 
ATOM     31  C   UNL     1       5.426   4.091  15.511  0.00  0.00    +0.000 A 
ENDBRANCH  25  26
ENDBRANCH  23  25
ENDBRANCH  20  21
ENDBRANCH  19  20
ENDBRANCH   6  19
TORSDOF 8
ENDMDL
MODEL 7
REMARK VINA RESULT:      -7.5      4.568      8.680
REMARK  Name = 
REMARK  9 active torsions:
REMARK  status: ('A' for Active; 'I' for Inactive)
REMARK    1  A    between atoms: C_1  and  N_2
REMARK    2  A    between atoms: C_3  and  C_4
REMARK    3  A    between atoms: C_4  and  N_5
REMARK    4  A    between atoms: C_6  and  C_8
REMARK    5  A    between atoms: C_17  and  S_18
REMARK    6  A    between atoms: S_18  and  C_19
REMARK    7  A    between atoms: C_19  and  C_20
REMARK    8  A    between atoms: N_22  and  C_23
REMARK    9  A    between atoms: C_23  and  C_24
REMARK                            x       y       z     vdW  Elec       q    Type
REMARK                         _______ _______ _______ _____ _____    ______ ____
ROOT
ATOM      1  C   UNL     1       1.130   8.458  21.389  0.00  0.00    +0.000 C 
ATOM      2  N   UNL     1       1.512   8.314  20.008  0.00  0.00    +0.000 N 
ATOM      3  C   UNL     1       1.508   9.279  19.026  0.00  0.00    +0.000 A 
ATOM      4  N   UNL     1       2.044   8.773  17.932  0.00  0.00    +0.000 NA
ATOM      5  N   UNL     1       2.342   7.457  18.170  0.00  0.00    +0.000 NA
ATOM      6  C   UNL     1       1.997   7.186  19.405  0.00  0.00    +0.000 A 
ENDROOT
BRANCH   3   7
ATOM      7  C   UNL     1       0.994  10.665  19.167  0.00  0.00    +0.000 C 
BRANCH   7   8
ATOM      8  N   UNL     1      -0.410  10.667  18.835  0.00  0.00    +0.000 N 
ATOM      9  C   UNL     1      -1.069  11.784  18.381  0.00  0.00    +0.000 C 
ATOM     10  O   UNL     1      -0.520  12.872  18.240  0.00  0.00    +0.000 OA
ATOM     11  H   UNL     1      -0.885   9.771  18.851  0.00  0.00    +0.000 HD
BRANCH   9  12
ATOM     12  C   UNL     1      -2.517  11.636  18.082  0.00  0.00    +0.000 A 
ATOM     13  C   UNL     1      -3.439  12.005  19.071  0.00  0.00    +0.000 A 
ATOM     14  C   UNL     1      -4.810  11.853  18.846  0.00  0.00    +0.000 A 
ATOM     15  C   UNL     1      -5.268  11.350  17.627  0.00  0.00    +0.000 A 
ATOM     16  C   UNL     1      -4.355  10.997  16.635  0.00  0.00    +0.000 A 
ATOM     17  C   UNL     1      -2.989  11.140  16.867  0.00  0.00    +0.000 A 
ATOM     18  F   UNL     1      -2.142  10.782  15.889  0.00  0.00    +0.000 F 
ENDBRANCH   9  12
ENDBRANCH   7   8
ENDBRANCH   3   7
BRANCH   6  19
ATOM     19  S   UNL     1       2.072   5.632  20.150  0.00  0.00    +0.000 S 
BRANCH  19  20
ATOM     20  C   UNL     1       1.589   4.538  18.792  0.00  0.00    +0.000 C 
BRANCH  20  21
ATOM     21  C   UNL     1       2.743   4.152  17.883  0.00  0.00    +0.000 C 
ATOM     22  O   UNL     1       2.679   3.218  17.090  0.00  0.00    +0.000 OA
ATOM     23  N   UNL     1       3.887   4.901  18.092  0.00  0.00    +0.000 N 
ATOM     24  H   UNL     1       3.736   5.859  18.385  0.00  0.00    +0.000 HD
BRANCH  23  25
ATOM     25  C   UNL     1       5.051   4.703  17.263  0.00  0.00    +0.000 C 
BRANCH  25  26
ATOM     26  C   UNL     1       6.170   5.619  17.697  0.00  0.00    +0.000 A 
ATOM     27  C   UNL     1       6.394   6.830  17.024  0.00  0.00    +0.000 A 
ATOM     28  C   UNL     1       7.433   7.680  17.415  0.00  0.00    +0.000 A 
ATOM     29  C   UNL     1       8.258   7.325  18.480  0.00  0.00    +0.000 A 
ATOM     30  C   UNL     1       8.056   6.113  19.145  0.00  0.00    +0.000 A 
ATOM     31  C   UNL     1       7.023   5.263  18.752  0.00  0.00    +0.000 A 
ENDBRANCH  25  26
ENDBRANCH  23  25
ENDBRANCH  20  21
ENDBRANCH  19  20
ENDBRANCH   6  19
TORSDOF 8
ENDMDL
MODEL 8
REMARK VINA RESULT:      -7.5      4.285      8.738
REMARK  Name = 
REMARK  9 active torsions:
REMARK  status: ('A' for Active; 'I' for Inactive)
REMARK    1  A    between atoms: C_1  and  N_2
REMARK    2  A    between atoms: C_3  and  C_4
REMARK    3  A    between atoms: C_4  and  N_5
REMARK    4  A    between atoms: C_6  and  C_8
REMARK    5  A    between atoms: C_17  and  S_18
REMARK    6  A    between atoms: S_18  and  C_19
REMARK    7  A    between atoms: C_19  and  C_20
REMARK    8  A    between atoms: N_22  and  C_23
REMARK    9  A    between atoms: C_23  and  C_24
REMARK                            x       y       z     vdW  Elec       q    Type
REMARK                         _______ _______ _______ _____ _____    ______ ____
ROOT
ATOM      1  C   UNL     1       1.348   7.278  21.176  0.00  0.00    +0.000 C 
ATOM      2  N   UNL     1       1.926   7.462  19.870  0.00  0.00    +0.000 N 
ATOM      3  C   UNL     1       1.901   8.594  19.088  0.00  0.00    +0.000 A 
ATOM      4  N   UNL     1       2.650   8.390  18.020  0.00  0.00    +0.000 NA
ATOM      5  N   UNL     1       3.115   7.102  18.065  0.00  0.00    +0.000 NA
ATOM      6  C   UNL     1       2.657   6.548  19.161  0.00  0.00    +0.000 A 
ENDROOT
BRANCH   3   7
ATOM      7  C   UNL     1       1.164   9.847  19.390  0.00  0.00    +0.000 C 
BRANCH   7   8
ATOM      8  N   UNL     1       0.058   9.958  18.470  0.00  0.00    +0.000 N 
ATOM      9  C   UNL     1      -1.106  10.622  18.777  0.00  0.00    +0.000 C 
ATOM     10  O   UNL     1      -1.303  11.155  19.864  0.00  0.00    +0.000 OA
ATOM     11  H   UNL     1       0.208   9.610  17.530  0.00  0.00    +0.000 HD
BRANCH   9  12
ATOM     12  C   UNL     1      -2.160  10.651  17.730  0.00  0.00    +0.000 A 
ATOM     13  C   UNL     1      -1.994   9.840  16.599  0.00  0.00    +0.000 A 
ATOM     14  C   UNL     1      -2.945   9.859  15.575  0.00  0.00    +0.000 A 
ATOM     15  C   UNL     1      -4.073  10.673  15.682  0.00  0.00    +0.000 A 
ATOM     16  C   UNL     1      -4.250  11.469  16.812  0.00  0.00    +0.000 A 
ATOM     17  C   UNL     1      -3.295  11.455  17.826  0.00  0.00    +0.000 A 
ATOM     18  F   UNL     1      -3.499  12.241  18.895  0.00  0.00    +0.000 F 
ENDBRANCH   9  12
ENDBRANCH   7   8
ENDBRANCH   3   7
BRANCH   6  19
ATOM     19  S   UNL     1       2.874   4.900  19.619  0.00  0.00    +0.000 S 
BRANCH  19  20
ATOM     20  C   UNL     1       3.391   4.139  18.061  0.00  0.00    +0.000 C 
BRANCH  20  21
ATOM     21  C   UNL     1       4.856   4.365  17.730  0.00  0.00    +0.000 C 
ATOM     22  O   UNL     1       5.768   3.949  18.439  0.00  0.00    +0.000 OA
ATOM     23  N   UNL     1       5.056   5.145  16.606  0.00  0.00    +0.000 N 
ATOM     24  H   UNL     1       4.353   5.058  15.882  0.00  0.00    +0.000 HD
BRANCH  23  25
ATOM     25  C   UNL     1       6.391   5.398  16.119  0.00  0.00    +0.000 C 
BRANCH  25  26
ATOM     26  C   UNL     1       6.540   4.895  14.704  0.00  0.00    +0.000 A 
ATOM     27  C   UNL     1       5.664   3.919  14.203  0.00  0.00    +0.000 A 
ATOM     28  C   UNL     1       5.801   3.444  12.896  0.00  0.00    +0.000 A 
ATOM     29  C   UNL     1       6.816   3.937  12.079  0.00  0.00    +0.000 A 
ATOM     30  C   UNL     1       7.706   4.893  12.573  0.00  0.00    +0.000 A 
ATOM     31  C   UNL     1       7.573   5.365  13.880  0.00  0.00    +0.000 A 
ENDBRANCH  25  26
ENDBRANCH  23  25
ENDBRANCH  20  21
ENDBRANCH  19  20
ENDBRANCH   6  19
TORSDOF 8
ENDMDL
MODEL 9
REMARK VINA RESULT:      -7.5      3.650      8.741
REMARK  Name = 
REMARK  9 active torsions:
REMARK  status: ('A' for Active; 'I' for Inactive)
REMARK    1  A    between atoms: C_1  and  N_2
REMARK    2  A    between atoms: C_3  and  C_4
REMARK    3  A    between atoms: C_4  and  N_5
REMARK    4  A    between atoms: C_6  and  C_8
REMARK    5  A    between atoms: C_17  and  S_18
REMARK    6  A    between atoms: S_18  and  C_19
REMARK    7  A    between atoms: C_19  and  C_20
REMARK    8  A    between atoms: N_22  and  C_23
REMARK    9  A    between atoms: C_23  and  C_24
REMARK                            x       y       z     vdW  Elec       q    Type
REMARK                         _______ _______ _______ _____ _____    ______ ____
ROOT
ATOM      1  C   UNL     1       2.423   8.400  17.749  0.00  0.00    +0.000 C 
ATOM      2  N   UNL     1       2.216   7.633  18.951  0.00  0.00    +0.000 N 
ATOM      3  C   UNL     1       1.659   8.056  20.136  0.00  0.00    +0.000 A 
ATOM      4  N   UNL     1       1.539   7.019  20.943  0.00  0.00    +0.000 NA
ATOM      5  N   UNL     1       2.075   5.925  20.315  0.00  0.00    +0.000 NA
ATOM      6  C   UNL     1       2.500   6.308  19.136  0.00  0.00    +0.000 A 
ENDROOT
BRANCH   3   7
ATOM      7  C   UNL     1       1.252   9.446  20.462  0.00  0.00    +0.000 C 
BRANCH   7   8
ATOM      8  N   UNL     1      -0.025   9.704  19.842  0.00  0.00    +0.000 N 
ATOM      9  C   UNL     1      -0.330  10.896  19.227  0.00  0.00    +0.000 C 
ATOM     10  O   UNL     1       0.452  11.839  19.176  0.00  0.00    +0.000 OA
ATOM     11  H   UNL     1      -0.671   8.925  19.781  0.00  0.00    +0.000 HD
BRANCH   9  12
ATOM     12  C   UNL     1      -1.687  11.019  18.634  0.00  0.00    +0.000 A 
ATOM     13  C   UNL     1      -2.606  11.878  19.253  0.00  0.00    +0.000 A 
ATOM     14  C   UNL     1      -3.903  12.001  18.748  0.00  0.00    +0.000 A 
ATOM     15  C   UNL     1      -4.284  11.282  17.615  0.00  0.00    +0.000 A 
ATOM     16  C   UNL     1      -3.369  10.439  16.986  0.00  0.00    +0.000 A 
ATOM     17  C   UNL     1      -2.080  10.310  17.499  0.00  0.00    +0.000 A 
ATOM     18  F   UNL     1      -1.230   9.483  16.870  0.00  0.00    +0.000 F 
ENDBRANCH   9  12
ENDBRANCH   7   8
ENDBRANCH   3   7
BRANCH   6  19
ATOM     19  S   UNL     1       3.351   5.321  18.007  0.00  0.00    +0.000 S 
BRANCH  19  20
ATOM     20  C   UNL     1       4.843   4.885  18.934  0.00  0.00    +0.000 C 
BRANCH  20  21
ATOM     21  C   UNL     1       6.108   4.905  18.095  0.00  0.00    +0.000 C 
ATOM     22  O   UNL     1       7.175   4.448  18.492  0.00  0.00    +0.000 OA
ATOM     23  N   UNL     1       5.958   5.555  16.883  0.00  0.00    +0.000 N 
ATOM     24  H   UNL     1       5.039   5.489  16.461  0.00  0.00    +0.000 HD
BRANCH  23  25
ATOM     25  C   UNL     1       7.049   5.603  15.940  0.00  0.00    +0.000 C 
BRANCH  25  26
ATOM     26  C   UNL     1       6.671   4.899  14.660  0.00  0.00    +0.000 A 
ATOM     27  C   UNL     1       7.547   4.907  13.562  0.00  0.00    +0.000 A 
ATOM     28  C   UNL     1       7.201   4.263  12.371  0.00  0.00    +0.000 A 
ATOM     29  C   UNL     1       5.977   3.608  12.264  0.00  0.00    +0.000 A 
ATOM     30  C   UNL     1       5.088   3.610  13.343  0.00  0.00    +0.000 A 
ATOM     31  C   UNL     1       5.431   4.257  14.531  0.00  0.00    +0.000 A 
ENDBRANCH  25  26
ENDBRANCH  23  25
ENDBRANCH  20  21
ENDBRANCH  19  20
ENDBRANCH   6  19
TORSDOF 8
ENDMDL
