MODEL 1
REMARK VINA RESULT:      -8.6      0.000      0.000
REMARK  Name = 
REMARK  5 active torsions:
REMARK  status: ('A' for Active; 'I' for Inactive)
REMARK    1  A    between atoms: C_1  and  C_2
REMARK    2  A    between atoms: C_5  and  C_6
REMARK    3  A    between atoms: C_12  and  C_13
REMARK    4  A    between atoms: N_16  and  C_17
REMARK    5  A    between atoms: C_17  and  C_18
REMARK                            x       y       z     vdW  Elec       q    Type
REMARK                         _______ _______ _______ _____ _____    ______ ____
ROOT
ATOM      1  C   UNL     1       2.516   6.499  19.529  0.00  0.00    +0.000 A 
ATOM      2  C   UNL     1       1.814   5.706  20.596  0.00  0.00    +0.000 A 
ATOM      3  C   UNL     1       2.200   4.430  20.721  0.00  0.00    +0.000 A 
ATOM      4  N   UNL     1       3.204   3.914  19.914  0.00  0.00    +0.000 N 
ATOM      5  N   UNL     1       3.681   2.646  19.913  0.00  0.00    +0.000 NA
ATOM      6  C   UNL     1       4.619   2.653  18.966  0.00  0.00    +0.000 A 
ATOM      7  C   UNL     1       4.770   3.910  18.353  0.00  0.00    +0.000 A 
ATOM      8  C   UNL     1       3.843   4.726  18.971  0.00  0.00    +0.000 A 
ATOM      9  N   UNL     1       3.488   6.039  18.789  0.00  0.00    +0.000 NA
ENDROOT
BRANCH   1  14
ATOM     10  C   UNL     1       0.715  11.831  18.658  0.00  0.00    +0.000 C 
ATOM     11  C   UNL     1       1.195  10.435  18.887  0.00  0.00    +0.000 A 
ATOM     12  N   UNL     1       1.827   9.802  17.878  0.00  0.00    +0.000 NA
ATOM     13  C   UNL     1       2.237   8.536  18.121  0.00  0.00    +0.000 A 
ATOM     14  C   UNL     1       2.058   7.891  19.326  0.00  0.00    +0.000 A 
ATOM     15  C   UNL     1       1.386   8.624  20.282  0.00  0.00    +0.000 A 
ATOM     16  N   UNL     1       0.955   9.891  20.095  0.00  0.00    +0.000 NA
ENDBRANCH   1  14
BRANCH   7  17
ATOM     17  C   UNL     1       5.693   4.206  17.272  0.00  0.00    +0.000 A 
ATOM     18  C   UNL     1       7.066   4.495  17.391  0.00  0.00    +0.000 A 
ATOM     19  N   UNL     1       7.627   4.796  16.215  0.00  0.00    +0.000 NA
ATOM     20  N   UNL     1       6.607   4.679  15.336  0.00  0.00    +0.000 N 
ATOM     21  C   UNL     1       5.431   4.299  15.924  0.00  0.00    +0.000 A 
BRANCH  20  22
ATOM     22  C   UNL     1       6.784   5.084  13.946  0.00  0.00    +0.000 C 
BRANCH  22  23
ATOM     23  C   UNL     1       6.337   4.023  12.973  0.00  0.00    +0.000 A 
ATOM     24  C   UNL     1       4.982   3.888  12.638  0.00  0.00    +0.000 A 
ATOM     25  C   UNL     1       4.573   2.917  11.721  0.00  0.00    +0.000 A 
ATOM     26  C   UNL     1       5.513   2.077  11.125  0.00  0.00    +0.000 A 
ATOM     27  C   UNL     1       6.863   2.210  11.440  0.00  0.00    +0.000 A 
ATOM     28  C   UNL     1       7.274   3.179  12.356  0.00  0.00    +0.000 A 
ENDBRANCH  22  23
ENDBRANCH  20  22
ENDBRANCH   7  17
TORSDOF 4
ENDMDL
MODEL 2
REMARK VINA RESULT:      -8.6      1.730      8.129
REMARK  Name = 
REMARK  5 active torsions:
REMARK  status: ('A' for Active; 'I' for Inactive)
REMARK    1  A    between atoms: C_1  and  C_2
REMARK    2  A    between atoms: C_5  and  C_6
REMARK    3  A    between atoms: C_12  and  C_13
REMARK    4  A    between atoms: N_16  and  C_17
REMARK    5  A    between atoms: C_17  and  C_18
REMARK                            x       y       z     vdW  Elec       q    Type
REMARK                         _______ _______ _______ _____ _____    ______ ____
ROOT
ATOM      1  C   UNL     1       4.623   4.199  17.705  0.00  0.00    +0.000 A 
ATOM      2  C   UNL     1       4.643   2.795  18.241  0.00  0.00    +0.000 A 
ATOM      3  C   UNL     1       3.899   2.578  19.332  0.00  0.00    +0.000 A 
ATOM      4  N   UNL     1       3.150   3.605  19.890  0.00  0.00    +0.000 N 
ATOM      5  N   UNL     1       2.370   3.540  20.997  0.00  0.00    +0.000 NA
ATOM      6  C   UNL     1       1.877   4.772  21.120  0.00  0.00    +0.000 A 
ATOM      7  C   UNL     1       2.314   5.641  20.104  0.00  0.00    +0.000 A 
ATOM      8  C   UNL     1       3.146   4.877  19.309  0.00  0.00    +0.000 A 
ATOM      9  N   UNL     1       3.894   5.164  18.195  0.00  0.00    +0.000 NA
ENDROOT
BRANCH   1  14
ATOM     10  C   UNL     1       7.887   5.293  13.167  0.00  0.00    +0.000 C 
ATOM     11  C   UNL     1       7.034   4.998  14.359  0.00  0.00    +0.000 A 
ATOM     12  N   UNL     1       5.977   4.176  14.202  0.00  0.00    +0.000 NA
ATOM     13  C   UNL     1       5.224   3.943  15.299  0.00  0.00    +0.000 A 
ATOM     14  C   UNL     1       5.493   4.479  16.540  0.00  0.00    +0.000 A 
ATOM     15  C   UNL     1       6.587   5.319  16.585  0.00  0.00    +0.000 A 
ATOM     16  N   UNL     1       7.374   5.586  15.521  0.00  0.00    +0.000 NA
ENDBRANCH   1  14
BRANCH   7  17
ATOM     17  C   UNL     1       1.963   7.046  19.999  0.00  0.00    +0.000 A 
ATOM     18  C   UNL     1       1.408   7.854  21.010  0.00  0.00    +0.000 A 
ATOM     19  N   UNL     1       1.131   9.090  20.580  0.00  0.00    +0.000 NA
ATOM     20  N   UNL     1       1.531   9.075  19.288  0.00  0.00    +0.000 N 
ATOM     21  C   UNL     1       2.064   7.874  18.904  0.00  0.00    +0.000 A 
BRANCH  20  22
ATOM     22  C   UNL     1       1.248  10.210  18.418  0.00  0.00    +0.000 C 
BRANCH  22  23
ATOM     23  C   UNL     1      -0.218  10.557  18.377  0.00  0.00    +0.000 A 
ATOM     24  C   UNL     1      -0.708  11.665  19.085  0.00  0.00    +0.000 A 
ATOM     25  C   UNL     1      -2.064  11.996  19.030  0.00  0.00    +0.000 A 
ATOM     26  C   UNL     1      -2.941  11.230  18.263  0.00  0.00    +0.000 A 
ATOM     27  C   UNL     1      -2.463  10.136  17.546  0.00  0.00    +0.000 A 
ATOM     28  C   UNL     1      -1.110   9.803  17.600  0.00  0.00    +0.000 A 
ENDBRANCH  22  23
ENDBRANCH  20  22
ENDBRANCH   7  17
TORSDOF 4
ENDMDL
MODEL 3
REMARK VINA RESULT:      -8.6      0.952      1.056
REMARK  Name = 
REMARK  5 active torsions:
REMARK  status: ('A' for Active; 'I' for Inactive)
REMARK    1  A    between atoms: C_1  and  C_2
REMARK    2  A    between atoms: C_5  and  C_6
REMARK    3  A    between atoms: C_12  and  C_13
REMARK    4  A    between atoms: N_16  and  C_17
REMARK    5  A    between atoms: C_17  and  C_18
REMARK                            x       y       z     vdW  Elec       q    Type
REMARK                         _______ _______ _______ _____ _____    ______ ____
ROOT
ATOM      1  C   UNL     1       2.239   6.321  19.806  0.00  0.00    +0.000 A 
ATOM      2  C   UNL     1       1.675   5.313  20.767  0.00  0.00    +0.000 A 
ATOM      3  C   UNL     1       2.049   4.043  20.564  0.00  0.00    +0.000 A 
ATOM      4  N   UNL     1       2.923   3.721  19.535  0.00  0.00    +0.000 N 
ATOM      5  N   UNL     1       3.371   2.487  19.199  0.00  0.00    +0.000 NA
ATOM      6  C   UNL     1       4.170   2.705  18.154  0.00  0.00    +0.000 A 
ATOM      7  C   UNL     1       4.260   4.065  17.808  0.00  0.00    +0.000 A 
ATOM      8  C   UNL     1       3.443   4.721  18.706  0.00  0.00    +0.000 A 
ATOM      9  N   UNL     1       3.092   6.039  18.859  0.00  0.00    +0.000 NA
ENDROOT
BRANCH   1  14
ATOM     10  C   UNL     1       0.436  11.696  20.348  0.00  0.00    +0.000 C 
ATOM     11  C   UNL     1       0.917  10.289  20.206  0.00  0.00    +0.000 A 
ATOM     12  N   UNL     1       1.320   9.870  18.989  0.00  0.00    +0.000 NA
ATOM     13  C   UNL     1       1.737   8.587  18.898  0.00  0.00    +0.000 A 
ATOM     14  C   UNL     1       1.786   7.720  19.969  0.00  0.00    +0.000 A 
ATOM     15  C   UNL     1       1.335   8.246  21.163  0.00  0.00    +0.000 A 
ATOM     16  N   UNL     1       0.909   9.519  21.310  0.00  0.00    +0.000 NA
ENDBRANCH   1  14
BRANCH   7  17
ATOM     17  C   UNL     1       5.032   4.594  16.698  0.00  0.00    +0.000 A 
ATOM     18  C   UNL     1       5.092   5.936  16.278  0.00  0.00    +0.000 A 
ATOM     19  N   UNL     1       5.837   6.093  15.177  0.00  0.00    +0.000 NA
ATOM     20  N   UNL     1       6.270   4.841  14.905  0.00  0.00    +0.000 N 
ATOM     21  C   UNL     1       5.833   3.912  15.810  0.00  0.00    +0.000 A 
BRANCH  20  22
ATOM     22  C   UNL     1       6.997   4.567  13.670  0.00  0.00    +0.000 C 
BRANCH  22  23
ATOM     23  C   UNL     1       6.216   3.693  12.722  0.00  0.00    +0.000 A 
ATOM     24  C   UNL     1       4.890   4.008  12.391  0.00  0.00    +0.000 A 
ATOM     25  C   UNL     1       4.174   3.208  11.497  0.00  0.00    +0.000 A 
ATOM     26  C   UNL     1       4.778   2.091  10.920  0.00  0.00    +0.000 A 
ATOM     27  C   UNL     1       6.098   1.776  11.231  0.00  0.00    +0.000 A 
ATOM     28  C   UNL     1       6.814   2.573  12.125  0.00  0.00    +0.000 A 
ENDBRANCH  22  23
ENDBRANCH  20  22
ENDBRANCH   7  17
TORSDOF 4
ENDMDL
MODEL 4
REMARK VINA RESULT:      -8.6      1.720      8.158
REMARK  Name = 
REMARK  5 active torsions:
REMARK  status: ('A' for Active; 'I' for Inactive)
REMARK    1  A    between atoms: C_1  and  C_2
REMARK    2  A    between atoms: C_5  and  C_6
REMARK    3  A    between atoms: C_12  and  C_13
REMARK    4  A    between atoms: N_16  and  C_17
REMARK    5  A    between atoms: C_17  and  C_18
REMARK                            x       y       z     vdW  Elec       q    Type
REMARK                         _______ _______ _______ _____ _____    ______ ____
ROOT
ATOM      1  C   UNL     1       4.594   4.263  17.619  0.00  0.00    +0.000 A 
ATOM      2  C   UNL     1       4.628   2.861  18.158  0.00  0.00    +0.000 A 
ATOM      3  C   UNL     1       3.904   2.645  19.263  0.00  0.00    +0.000 A 
ATOM      4  N   UNL     1       3.163   3.671  19.833  0.00  0.00    +0.000 N 
ATOM      5  N   UNL     1       2.404   3.608  20.954  0.00  0.00    +0.000 NA
ATOM      6  C   UNL     1       1.910   4.839  21.082  0.00  0.00    +0.000 A 
ATOM      7  C   UNL     1       2.326   5.706  20.056  0.00  0.00    +0.000 A 
ATOM      8  C   UNL     1       3.145   4.942  19.248  0.00  0.00    +0.000 A 
ATOM      9  N   UNL     1       3.871   5.228  18.120  0.00  0.00    +0.000 NA
ENDROOT
BRANCH   1  14
ATOM     10  C   UNL     1       7.937   5.316  13.129  0.00  0.00    +0.000 C 
ATOM     11  C   UNL     1       7.056   5.047  14.306  0.00  0.00    +0.000 A 
ATOM     12  N   UNL     1       7.378   5.610  15.488  0.00  0.00    +0.000 NA
ATOM     13  C   UNL     1       6.564   5.335  16.532  0.00  0.00    +0.000 A 
ATOM     14  C   UNL     1       5.441   4.541  16.437  0.00  0.00    +0.000 A 
ATOM     15  C   UNL     1       5.213   4.003  15.187  0.00  0.00    +0.000 A 
ATOM     16  N   UNL     1       5.993   4.245  14.111  0.00  0.00    +0.000 NA
ENDBRANCH   1  14
BRANCH   7  17
ATOM     17  C   UNL     1       1.970   7.110  19.954  0.00  0.00    +0.000 A 
ATOM     18  C   UNL     1       1.380   7.905  20.955  0.00  0.00    +0.000 A 
ATOM     19  N   UNL     1       1.109   9.143  20.528  0.00  0.00    +0.000 NA
ATOM     20  N   UNL     1       1.547   9.143  19.249  0.00  0.00    +0.000 N 
ATOM     21  C   UNL     1       2.098   7.949  18.870  0.00  0.00    +0.000 A 
BRANCH  20  22
ATOM     22  C   UNL     1       1.283  10.285  18.381  0.00  0.00    +0.000 C 
BRANCH  22  23
ATOM     23  C   UNL     1      -0.181  10.640  18.321  0.00  0.00    +0.000 A 
ATOM     24  C   UNL     1      -1.085   9.820  17.629  0.00  0.00    +0.000 A 
ATOM     25  C   UNL     1      -2.444  10.140  17.591  0.00  0.00    +0.000 A 
ATOM     26  C   UNL     1      -2.914  11.276  18.248  0.00  0.00    +0.000 A 
ATOM     27  C   UNL     1      -2.028  12.090  18.950  0.00  0.00    +0.000 A 
ATOM     28  C   UNL     1      -0.670  11.773  18.988  0.00  0.00    +0.000 A 
ENDBRANCH  22  23
ENDBRANCH  20  22
ENDBRANCH   7  17
TORSDOF 4
ENDMDL
MODEL 5
REMARK VINA RESULT:      -8.5      0.968      1.633
REMARK  Name = 
REMARK  5 active torsions:
REMARK  status: ('A' for Active; 'I' for Inactive)
REMARK    1  A    between atoms: C_1  and  C_2
REMARK    2  A    between atoms: C_5  and  C_6
REMARK    3  A    between atoms: C_12  and  C_13
REMARK    4  A    between atoms: N_16  and  C_17
REMARK    5  A    between atoms: C_17  and  C_18
REMARK                            x       y       z     vdW  Elec       q    Type
REMARK                         _______ _______ _______ _____ _____    ______ ____
ROOT
ATOM      1  C   UNL     1       2.228   6.283  19.689  0.00  0.00    +0.000 A 
ATOM      2  C   UNL     1       1.655   5.273  20.644  0.00  0.00    +0.000 A 
ATOM      3  C   UNL     1       2.035   4.005  20.446  0.00  0.00    +0.000 A 
ATOM      4  N   UNL     1       2.923   3.685  19.428  0.00  0.00    +0.000 N 
ATOM      5  N   UNL     1       3.378   2.452  19.097  0.00  0.00    +0.000 NA
ATOM      6  C   UNL     1       4.189   2.672  18.062  0.00  0.00    +0.000 A 
ATOM      7  C   UNL     1       4.280   4.032  17.716  0.00  0.00    +0.000 A 
ATOM      8  C   UNL     1       3.449   4.686  18.605  0.00  0.00    +0.000 A 
ATOM      9  N   UNL     1       3.093   6.003  18.752  0.00  0.00    +0.000 NA
ENDROOT
BRANCH   1  14
ATOM     10  C   UNL     1       0.518  11.672  20.374  0.00  0.00    +0.000 C 
ATOM     11  C   UNL     1       0.958  10.256  20.194  0.00  0.00    +0.000 A 
ATOM     12  N   UNL     1       0.968   9.447  21.273  0.00  0.00    +0.000 NA
ATOM     13  C   UNL     1       1.383   8.176  21.073  0.00  0.00    +0.000 A 
ATOM     14  C   UNL     1       1.768   7.681  19.846  0.00  0.00    +0.000 A 
ATOM     15  C   UNL     1       1.737   8.597  18.814  0.00  0.00    +0.000 A 
ATOM     16  N   UNL     1       1.331   9.878  18.957  0.00  0.00    +0.000 NA
ENDBRANCH   1  14
BRANCH   7  17
ATOM     17  C   UNL     1       5.063   4.563  16.615  0.00  0.00    +0.000 A 
ATOM     18  C   UNL     1       5.142   5.909  16.210  0.00  0.00    +0.000 A 
ATOM     19  N   UNL     1       5.894   6.067  15.115  0.00  0.00    +0.000 NA
ATOM     20  N   UNL     1       6.312   4.814  14.831  0.00  0.00    +0.000 N 
ATOM     21  C   UNL     1       5.859   3.881  15.724  0.00  0.00    +0.000 A 
BRANCH  20  22
ATOM     22  C   UNL     1       7.040   4.543  13.596  0.00  0.00    +0.000 C 
BRANCH  22  23
ATOM     23  C   UNL     1       6.257   3.679  12.641  0.00  0.00    +0.000 A 
ATOM     24  C   UNL     1       6.851   2.555  12.046  0.00  0.00    +0.000 A 
ATOM     25  C   UNL     1       6.119   1.745  11.176  0.00  0.00    +0.000 A 
ATOM     26  C   UNL     1       4.785   2.043  10.898  0.00  0.00    +0.000 A 
ATOM     27  C   UNL     1       4.181   3.148  11.493  0.00  0.00    +0.000 A 
ATOM     28  C   UNL     1       4.912   3.959  12.361  0.00  0.00    +0.000 A 
ENDBRANCH  22  23
ENDBRANCH  20  22
ENDBRANCH   7  17
TORSDOF 4
ENDMDL
MODEL 6
REMARK VINA RESULT:      -8.4      1.754      8.635
REMARK  Name = 
REMARK  5 active torsions:
REMARK  status: ('A' for Active; 'I' for Inactive)
REMARK    1  A    between atoms: C_1  and  C_2
REMARK    2  A    between atoms: C_5  and  C_6
REMARK    3  A    between atoms: C_12  and  C_13
REMARK    4  A    between atoms: N_16  and  C_17
REMARK    5  A    between atoms: C_17  and  C_18
REMARK                            x       y       z     vdW  Elec       q    Type
REMARK                         _______ _______ _______ _____ _____    ______ ____
ROOT
ATOM      1  C   UNL     1       4.667   4.819  17.499  0.00  0.00    +0.000 A 
ATOM      2  C   UNL     1       4.711   3.560  18.319  0.00  0.00    +0.000 A 
ATOM      3  C   UNL     1       3.960   3.563  19.428  0.00  0.00    +0.000 A 
ATOM      4  N   UNL     1       3.186   4.668  19.753  0.00  0.00    +0.000 N 
ATOM      5  N   UNL     1       2.398   4.821  20.845  0.00  0.00    +0.000 NA
ATOM      6  C   UNL     1       1.879   6.041  20.703  0.00  0.00    +0.000 A 
ATOM      7  C   UNL     1       2.308   6.685  19.528  0.00  0.00    +0.000 A 
ATOM      8  C   UNL     1       3.162   5.789  18.917  0.00  0.00    +0.000 A 
ATOM      9  N   UNL     1       3.914   5.850  17.771  0.00  0.00    +0.000 NA
ENDROOT
BRANCH   1  14
ATOM     10  C   UNL     1       7.950   5.016  12.849  0.00  0.00    +0.000 C 
ATOM     11  C   UNL     1       7.092   4.956  14.071  0.00  0.00    +0.000 A 
ATOM     12  N   UNL     1       5.960   4.225  14.022  0.00  0.00    +0.000 NA
ATOM     13  C   UNL     1       5.204   4.205  15.143  0.00  0.00    +0.000 A 
ATOM     14  C   UNL     1       5.542   4.865  16.305  0.00  0.00    +0.000 A 
ATOM     15  C   UNL     1       6.710   5.597  16.240  0.00  0.00    +0.000 A 
ATOM     16  N   UNL     1       7.503   5.651  15.147  0.00  0.00    +0.000 NA
ENDBRANCH   1  14
BRANCH   7  17
ATOM     17  C   UNL     1       1.930   8.028  19.128  0.00  0.00    +0.000 A 
ATOM     18  C   UNL     1       2.309   8.693  17.946  0.00  0.00    +0.000 A 
ATOM     19  N   UNL     1       1.856   9.951  17.902  0.00  0.00    +0.000 NA
ATOM     20  N   UNL     1       1.165  10.082  19.056  0.00  0.00    +0.000 N 
ATOM     21  C   UNL     1       1.160   8.941  19.812  0.00  0.00    +0.000 A 
BRANCH  20  22
ATOM     22  C   UNL     1       0.640  11.383  19.456  0.00  0.00    +0.000 C 
BRANCH  22  23
ATOM     23  C   UNL     1      -0.841  11.509  19.207  0.00  0.00    +0.000 A 
ATOM     24  C   UNL     1      -1.646  12.272  20.067  0.00  0.00    +0.000 A 
ATOM     25  C   UNL     1      -3.015  12.404  19.824  0.00  0.00    +0.000 A 
ATOM     26  C   UNL     1      -3.592  11.783  18.717  0.00  0.00    +0.000 A 
ATOM     27  C   UNL     1      -2.801  11.035  17.848  0.00  0.00    +0.000 A 
ATOM     28  C   UNL     1      -1.434  10.900  18.090  0.00  0.00    +0.000 A 
ENDBRANCH  22  23
ENDBRANCH  20  22
ENDBRANCH   7  17
TORSDOF 4
ENDMDL
MODEL 7
REMARK VINA RESULT:      -8.4      1.947      8.540
REMARK  Name = 
REMARK  5 active torsions:
REMARK  status: ('A' for Active; 'I' for Inactive)
REMARK    1  A    between atoms: C_1  and  C_2
REMARK    2  A    between atoms: C_5  and  C_6
REMARK    3  A    between atoms: C_12  and  C_13
REMARK    4  A    between atoms: N_16  and  C_17
REMARK    5  A    between atoms: C_17  and  C_18
REMARK                            x       y       z     vdW  Elec       q    Type
REMARK                         _______ _______ _______ _____ _____    ______ ____
ROOT
ATOM      1  C   UNL     1       4.690   4.878  17.375  0.00  0.00    +0.000 A 
ATOM      2  C   UNL     1       4.799   3.664  18.254  0.00  0.00    +0.000 A 
ATOM      3  C   UNL     1       4.084   3.698  19.385  0.00  0.00    +0.000 A 
ATOM      4  N   UNL     1       3.284   4.793  19.681  0.00  0.00    +0.000 N 
ATOM      5  N   UNL     1       2.525   4.975  20.789  0.00  0.00    +0.000 NA
ATOM      6  C   UNL     1       1.962   6.170  20.604  0.00  0.00    +0.000 A 
ATOM      7  C   UNL     1       2.333   6.768  19.386  0.00  0.00    +0.000 A 
ATOM      8  C   UNL     1       3.197   5.869  18.792  0.00  0.00    +0.000 A 
ATOM      9  N   UNL     1       3.912   5.897  17.621  0.00  0.00    +0.000 NA
ENDROOT
BRANCH   1  14
ATOM     10  C   UNL     1       7.988   4.915  12.732  0.00  0.00    +0.000 C 
ATOM     11  C   UNL     1       7.119   4.913  13.948  0.00  0.00    +0.000 A 
ATOM     12  N   UNL     1       7.519   5.626  15.021  0.00  0.00    +0.000 NA
ATOM     13  C   UNL     1       6.712   5.590  16.105  0.00  0.00    +0.000 A 
ATOM     14  C   UNL     1       5.525   4.892  16.154  0.00  0.00    +0.000 A 
ATOM     15  C   UNL     1       5.221   4.184  15.009  0.00  0.00    +0.000 A 
ATOM     16  N   UNL     1       5.989   4.185  13.898  0.00  0.00    +0.000 NA
ENDBRANCH   1  14
BRANCH   7  17
ATOM     17  C   UNL     1       1.899   8.077  18.933  0.00  0.00    +0.000 A 
ATOM     18  C   UNL     1       2.427   8.812  17.854  0.00  0.00    +0.000 A 
ATOM     19  N   UNL     1       1.860  10.018  17.734  0.00  0.00    +0.000 NA
ATOM     20  N   UNL     1       0.950  10.043  18.734  0.00  0.00    +0.000 N 
ATOM     21  C   UNL     1       0.920   8.885  19.463  0.00  0.00    +0.000 A 
BRANCH  20  22
ATOM     22  C   UNL     1       0.222  11.271  19.036  0.00  0.00    +0.000 C 
BRANCH  22  23
ATOM     23  C   UNL     1      -1.229  11.196  18.637  0.00  0.00    +0.000 A 
ATOM     24  C   UNL     1      -1.654  10.287  17.657  0.00  0.00    +0.000 A 
ATOM     25  C   UNL     1      -3.002  10.206  17.303  0.00  0.00    +0.000 A 
ATOM     26  C   UNL     1      -3.940  11.025  17.929  0.00  0.00    +0.000 A 
ATOM     27  C   UNL     1      -3.533  11.922  18.913  0.00  0.00    +0.000 A 
ATOM     28  C   UNL     1      -2.186  12.006  19.267  0.00  0.00    +0.000 A 
ENDBRANCH  22  23
ENDBRANCH  20  22
ENDBRANCH   7  17
TORSDOF 4
ENDMDL
MODEL 8
REMARK VINA RESULT:      -8.1      3.754      6.432
REMARK  Name = 
REMARK  5 active torsions:
REMARK  status: ('A' for Active; 'I' for Inactive)
REMARK    1  A    between atoms: C_1  and  C_2
REMARK    2  A    between atoms: C_5  and  C_6
REMARK    3  A    between atoms: C_12  and  C_13
REMARK    4  A    between atoms: N_16  and  C_17
REMARK    5  A    between atoms: C_17  and  C_18
REMARK                            x       y       z     vdW  Elec       q    Type
REMARK                         _______ _______ _______ _____ _____    ______ ____
ROOT
ATOM      1  C   UNL     1      -1.171  10.466  19.058  0.00  0.00    +0.000 A 
ATOM      2  C   UNL     1      -1.379  11.560  20.069  0.00  0.00    +0.000 A 
ATOM      3  C   UNL     1      -0.672  11.448  21.200  0.00  0.00    +0.000 A 
ATOM      4  N   UNL     1       0.206  10.388  21.382  0.00  0.00    +0.000 N 
ATOM      5  N   UNL     1       0.968  10.136  22.474  0.00  0.00    +0.000 NA
ATOM      6  C   UNL     1       1.620   9.016  22.163  0.00  0.00    +0.000 A 
ATOM      7  C   UNL     1       1.305   8.537  20.879  0.00  0.00    +0.000 A 
ATOM      8  C   UNL     1       0.381   9.431  20.377  0.00  0.00    +0.000 A 
ATOM      9  N   UNL     1      -0.320   9.486  19.199  0.00  0.00    +0.000 NA
ENDROOT
BRANCH   1  14
ATOM     10  C   UNL     1      -4.343  10.615  14.330  0.00  0.00    +0.000 C 
ATOM     11  C   UNL     1      -3.505  10.581  15.567  0.00  0.00    +0.000 A 
ATOM     12  N   UNL     1      -2.492   9.693  15.629  0.00  0.00    +0.000 NA
ATOM     13  C   UNL     1      -1.763   9.684  16.767  0.00  0.00    +0.000 A 
ATOM     14  C   UNL     1      -1.993  10.532  17.829  0.00  0.00    +0.000 A 
ATOM     15  C   UNL     1      -3.063  11.388  17.668  0.00  0.00    +0.000 A 
ATOM     16  N   UNL     1      -3.824  11.440  16.553  0.00  0.00    +0.000 NA
ENDBRANCH   1  14
BRANCH   7  17
ATOM     17  C   UNL     1       1.840   7.324  20.286  0.00  0.00    +0.000 A 
ATOM     18  C   UNL     1       1.825   6.034  20.848  0.00  0.00    +0.000 A 
ATOM     19  N   UNL     1       2.462   5.138  20.085  0.00  0.00    +0.000 NA
ATOM     20  N   UNL     1       2.870   5.861  19.018  0.00  0.00    +0.000 N 
ATOM     21  C   UNL     1       2.494   7.176  19.084  0.00  0.00    +0.000 A 
BRANCH  20  22
ATOM     22  C   UNL     1       3.749   5.265  18.018  0.00  0.00    +0.000 C 
BRANCH  22  23
ATOM     23  C   UNL     1       5.174   5.740  18.144  0.00  0.00    +0.000 A 
ATOM     24  C   UNL     1       5.686   6.702  17.260  0.00  0.00    +0.000 A 
ATOM     25  C   UNL     1       7.000   7.155  17.391  0.00  0.00    +0.000 A 
ATOM     26  C   UNL     1       7.814   6.658  18.408  0.00  0.00    +0.000 A 
ATOM     27  C   UNL     1       7.313   5.712  19.300  0.00  0.00    +0.000 A 
ATOM     28  C   UNL     1       6.000   5.258  19.170  0.00  0.00    +0.000 A 
ENDBRANCH  22  23
ENDBRANCH  20  22
ENDBRANCH   7  17
TORSDOF 4
ENDMDL
MODEL 9
REMARK VINA RESULT:      -8.0      1.729      8.570
REMARK  Name = 
REMARK  5 active torsions:
REMARK  status: ('A' for Active; 'I' for Inactive)
REMARK    1  A    between atoms: C_1  and  C_2
REMARK    2  A    between atoms: C_5  and  C_6
REMARK    3  A    between atoms: C_12  and  C_13
REMARK    4  A    between atoms: N_16  and  C_17
REMARK    5  A    between atoms: C_17  and  C_18
REMARK                            x       y       z     vdW  Elec       q    Type
REMARK                         _______ _______ _______ _____ _____    ______ ____
ROOT
ATOM      1  C   UNL     1       4.597   4.980  17.462  0.00  0.00    +0.000 A 
ATOM      2  C   UNL     1       4.654   3.757  18.335  0.00  0.00    +0.000 A 
ATOM      3  C   UNL     1       3.920   3.807  19.453  0.00  0.00    +0.000 A 
ATOM      4  N   UNL     1       3.149   4.924  19.743  0.00  0.00    +0.000 N 
ATOM      5  N   UNL     1       2.377   5.124  20.838  0.00  0.00    +0.000 NA
ATOM      6  C   UNL     1       1.855   6.336  20.651  0.00  0.00    +0.000 A 
ATOM      7  C   UNL     1       2.266   6.930  19.444  0.00  0.00    +0.000 A 
ATOM      8  C   UNL     1       3.112   6.009  18.859  0.00  0.00    +0.000 A 
ATOM      9  N   UNL     1       3.847   6.021  17.701  0.00  0.00    +0.000 NA
ENDROOT
BRANCH   1  14
ATOM     10  C   UNL     1       7.975   4.942  12.876  0.00  0.00    +0.000 C 
ATOM     11  C   UNL     1       7.086   4.960  14.078  0.00  0.00    +0.000 A 
ATOM     12  N   UNL     1       7.492   5.647  15.164  0.00  0.00    +0.000 NA
ATOM     13  C   UNL     1       6.667   5.630  16.235  0.00  0.00    +0.000 A 
ATOM     14  C   UNL     1       5.454   4.975  16.255  0.00  0.00    +0.000 A 
ATOM     15  C   UNL     1       5.144   4.290  15.098  0.00  0.00    +0.000 A 
ATOM     16  N   UNL     1       5.931   4.274  14.000  0.00  0.00    +0.000 NA
ENDBRANCH   1  14
BRANCH   7  17
ATOM     17  C   UNL     1       1.881   8.254  18.992  0.00  0.00    +0.000 A 
ATOM     18  C   UNL     1       2.233   8.864  17.773  0.00  0.00    +0.000 A 
ATOM     19  N   UNL     1       1.781  10.120  17.682  0.00  0.00    +0.000 NA
ATOM     20  N   UNL     1       1.118  10.305  18.846  0.00  0.00    +0.000 N 
ATOM     21  C   UNL     1       1.128   9.199  19.652  0.00  0.00    +0.000 A 
BRANCH  20  22
ATOM     22  C   UNL     1       0.604  11.624  19.198  0.00  0.00    +0.000 C 
BRANCH  22  23
ATOM     23  C   UNL     1       1.696  12.656  19.319  0.00  0.00    +0.000 A 
ATOM     24  C   UNL     1       2.251  13.245  18.174  0.00  0.00    +0.000 A 
ATOM     25  C   UNL     1       3.248  14.215  18.289  0.00  0.00    +0.000 A 
ATOM     26  C   UNL     1       3.696  14.612  19.548  0.00  0.00    +0.000 A 
ATOM     27  C   UNL     1       3.143  14.044  20.694  0.00  0.00    +0.000 A 
ATOM     28  C   UNL     1       2.147  13.074  20.580  0.00  0.00    +0.000 A 
ENDBRANCH  22  23
ENDBRANCH  20  22
ENDBRANCH   7  17
TORSDOF 4
ENDMDL
