MODEL 1
REMARK VINA RESULT:      -8.3      0.000      0.000
REMARK  Name = 
REMARK  7 active torsions:
REMARK  status: ('A' for Active; 'I' for Inactive)
REMARK    1  A    between atoms: C_1  and  C_2
REMARK    2  A    between atoms: C_2  and  C_4
REMARK    3  A    between atoms: C_7  and  N_8
REMARK    4  A    between atoms: C_9  and  C_11
REMARK    5  A    between atoms: C_11  and  O_12
REMARK    6  A    between atoms: O_12  and  C_13
REMARK    7  A    between atoms: C_16  and  C_17
REMARK                            x       y       z     vdW  Elec       q    Type
REMARK                         _______ _______ _______ _____ _____    ______ ____
ROOT
ATOM      1  O   UNL     1       2.220   5.687  20.827  0.00  0.00    +0.000 OA
ENDROOT
BRANCH   1   2
ATOM      2  C   UNL     1       1.700   6.930  20.632  0.00  0.00    +0.000 A 
ATOM      3  C   UNL     1       2.190   7.585  19.503  0.00  0.00    +0.000 A 
ATOM      4  C   UNL     1       1.723   8.851  19.163  0.00  0.00    +0.000 A 
ATOM      5  C   UNL     1       0.744   9.467  19.947  0.00  0.00    +0.000 A 
ATOM      6  C   UNL     1       0.240   8.806  21.072  0.00  0.00    +0.000 A 
ATOM      7  C   UNL     1       0.719   7.537  21.417  0.00  0.00    +0.000 A 
BRANCH   5   8
ATOM      8  C   UNL     1       0.256  10.795  19.578  0.00  0.00    +0.000 C 
ATOM      9  C   UNL     1      -0.650  11.043  18.625  0.00  0.00    +0.000 C 
ATOM     10  S   UNL     1      -1.493   9.916  17.630  0.00  0.00    +0.000 S 
ATOM     11  C   UNL     1      -2.332  11.190  16.764  0.00  0.00    +0.000 C 
ATOM     12  O   UNL     1      -3.119  11.000  15.854  0.00  0.00    +0.000 OA
ATOM     13  N   UNL     1      -1.965  12.399  17.260  0.00  0.00    +0.000 N 
ATOM     14  C   UNL     1      -1.051  12.428  18.270  0.00  0.00    +0.000 C 
ATOM     15  O   UNL     1      -0.620  13.444  18.790  0.00  0.00    +0.000 OA
ATOM     16  H   UNL     1      -2.342  13.249  16.874  0.00  0.00    +0.000 HD
ENDBRANCH   5   8
ENDBRANCH   1   2
BRANCH   1  17
ATOM     17  C   UNL     1       1.559   4.615  20.166  0.00  0.00    +0.000 C 
BRANCH  17  19
ATOM     18  N   UNL     1       3.506   4.744  18.705  0.00  0.00    +0.000 N 
ATOM     19  C   UNL     1       2.156   4.430  18.774  0.00  0.00    +0.000 C 
ATOM     20  O   UNL     1       1.456   4.024  17.850  0.00  0.00    +0.000 OA
ATOM     21  H   UNL     1       3.958   4.912  19.600  0.00  0.00    +0.000 HD
BRANCH  18  25
ATOM     22  C   UNL     1       5.866   4.698  15.213  0.00  0.00    +0.000 A 
ATOM     23  C   UNL     1       5.380   5.907  15.710  0.00  0.00    +0.000 A 
ATOM     24  C   UNL     1       4.607   5.931  16.866  0.00  0.00    +0.000 A 
ATOM     25  C   UNL     1       4.305   4.754  17.551  0.00  0.00    +0.000 A 
ATOM     26  C   UNL     1       4.828   3.543  17.083  0.00  0.00    +0.000 A 
ATOM     27  C   UNL     1       5.594   3.513  15.909  0.00  0.00    +0.000 A 
BRANCH  22  29
ATOM     28  C   UNL     1       6.232   3.700  12.865  0.00  0.00    +0.000 C 
ATOM     29  C   UNL     1       6.667   4.647  13.956  0.00  0.00    +0.000 C 
ATOM     30  O   UNL     1       7.651   5.366  13.827  0.00  0.00    +0.000 OA
ENDBRANCH  22  29
ENDBRANCH  18  25
ENDBRANCH  17  19
ENDBRANCH   1  17
TORSDOF 6
ENDMDL
MODEL 2
REMARK VINA RESULT:      -8.2      6.382      9.322
REMARK  Name = 
REMARK  7 active torsions:
REMARK  status: ('A' for Active; 'I' for Inactive)
REMARK    1  A    between atoms: C_1  and  C_2
REMARK    2  A    between atoms: C_2  and  C_4
REMARK    3  A    between atoms: C_7  and  N_8
REMARK    4  A    between atoms: C_9  and  C_11
REMARK    5  A    between atoms: C_11  and  O_12
REMARK    6  A    between atoms: O_12  and  C_13
REMARK    7  A    between atoms: C_16  and  C_17
REMARK                            x       y       z     vdW  Elec       q    Type
REMARK                         _______ _______ _______ _____ _____    ______ ____
ROOT
ATOM      1  O   UNL     1       7.639   7.423  17.139  0.00  0.00    +0.000 OA
ENDROOT
BRANCH   1   2
ATOM      2  C   UNL     1       6.458   6.748  17.211  0.00  0.00    +0.000 A 
ATOM      3  C   UNL     1       6.581   5.422  17.622  0.00  0.00    +0.000 A 
ATOM      4  C   UNL     1       5.452   4.622  17.770  0.00  0.00    +0.000 A 
ATOM      5  C   UNL     1       4.183   5.153  17.521  0.00  0.00    +0.000 A 
ATOM      6  C   UNL     1       4.057   6.488  17.123  0.00  0.00    +0.000 A 
ATOM      7  C   UNL     1       5.195   7.287  16.965  0.00  0.00    +0.000 A 
BRANCH   5   8
ATOM      8  C   UNL     1       3.003   4.305  17.685  0.00  0.00    +0.000 C 
ATOM      9  C   UNL     1       2.549   3.838  18.854  0.00  0.00    +0.000 C 
ATOM     10  S   UNL     1       3.175   4.118  20.435  0.00  0.00    +0.000 S 
ATOM     11  C   UNL     1       1.969   3.087  21.180  0.00  0.00    +0.000 C 
ATOM     12  O   UNL     1       1.902   2.858  22.375  0.00  0.00    +0.000 OA
ATOM     13  N   UNL     1       1.140   2.589  20.227  0.00  0.00    +0.000 N 
ATOM     14  C   UNL     1       1.374   2.933  18.929  0.00  0.00    +0.000 C 
ATOM     15  O   UNL     1       0.721   2.540  17.976  0.00  0.00    +0.000 OA
ATOM     16  H   UNL     1       0.389   1.966  20.473  0.00  0.00    +0.000 HD
ENDBRANCH   5   8
ENDBRANCH   1   2
BRANCH   1  17
ATOM     17  C   UNL     1       8.275   7.716  18.378  0.00  0.00    +0.000 C 
BRANCH  17  19
ATOM     18  N   UNL     1       9.340   9.567  19.553  0.00  0.00    +0.000 N 
ATOM     19  C   UNL     1       8.556   9.213  18.464  0.00  0.00    +0.000 C 
ATOM     20  O   UNL     1       8.113   9.975  17.608  0.00  0.00    +0.000 OA
ATOM     21  H   UNL     1       9.747   8.789  20.065  0.00  0.00    +0.000 HD
BRANCH  18  25
ATOM     22  C   UNL     1      10.408  13.499  20.634  0.00  0.00    +0.000 A 
ATOM     23  C   UNL     1       9.447  12.809  21.373  0.00  0.00    +0.000 A 
ATOM     24  C   UNL     1       9.095  11.508  21.027  0.00  0.00    +0.000 A 
ATOM     25  C   UNL     1       9.693  10.869  19.942  0.00  0.00    +0.000 A 
ATOM     26  C   UNL     1      10.690  11.540  19.223  0.00  0.00    +0.000 A 
ATOM     27  C   UNL     1      11.036  12.856  19.559  0.00  0.00    +0.000 A 
BRANCH  22  29
ATOM     28  C   UNL     1      10.194  15.523  22.216  0.00  0.00    +0.000 C 
ATOM     29  C   UNL     1      10.773  14.905  20.967  0.00  0.00    +0.000 C 
ATOM     30  O   UNL     1      11.531  15.532  20.234  0.00  0.00    +0.000 OA
ENDBRANCH  22  29
ENDBRANCH  18  25
ENDBRANCH  17  19
ENDBRANCH   1  17
TORSDOF 6
ENDMDL
MODEL 3
REMARK VINA RESULT:      -8.1      7.633      8.918
REMARK  Name = 
REMARK  7 active torsions:
REMARK  status: ('A' for Active; 'I' for Inactive)
REMARK    1  A    between atoms: C_1  and  C_2
REMARK    2  A    between atoms: C_2  and  C_4
REMARK    3  A    between atoms: C_7  and  N_8
REMARK    4  A    between atoms: C_9  and  C_11
REMARK    5  A    between atoms: C_11  and  O_12
REMARK    6  A    between atoms: O_12  and  C_13
REMARK    7  A    between atoms: C_16  and  C_17
REMARK                            x       y       z     vdW  Elec       q    Type
REMARK                         _______ _______ _______ _____ _____    ______ ____
ROOT
ATOM      1  O   UNL     1       9.083   9.196  18.932  0.00  0.00    +0.000 OA
ENDROOT
BRANCH   1   2
ATOM      2  C   UNL     1       9.521  10.484  19.008  0.00  0.00    +0.000 A 
ATOM      3  C   UNL     1       9.447  11.039  20.284  0.00  0.00    +0.000 A 
ATOM      4  C   UNL     1       9.891  12.338  20.515  0.00  0.00    +0.000 A 
ATOM      5  C   UNL     1      10.429  13.088  19.466  0.00  0.00    +0.000 A 
ATOM      6  C   UNL     1      10.518  12.527  18.187  0.00  0.00    +0.000 A 
ATOM      7  C   UNL     1      10.061  11.224  17.956  0.00  0.00    +0.000 A 
BRANCH   5   8
ATOM      8  C   UNL     1      10.898  14.450  19.720  0.00  0.00    +0.000 C 
ATOM      9  C   UNL     1      10.214  15.564  19.433  0.00  0.00    +0.000 C 
ATOM     10  S   UNL     1       8.639  15.707  18.746  0.00  0.00    +0.000 S 
ATOM     11  C   UNL     1       8.713  17.458  18.747  0.00  0.00    +0.000 C 
ATOM     12  O   UNL     1       7.829  18.185  18.330  0.00  0.00    +0.000 OA
ATOM     13  N   UNL     1       9.897  17.867  19.272  0.00  0.00    +0.000 N 
ATOM     14  C   UNL     1      10.786  16.914  19.670  0.00  0.00    +0.000 C 
ATOM     15  O   UNL     1      11.889  17.142  20.137  0.00  0.00    +0.000 OA
ATOM     16  H   UNL     1      10.118  18.846  19.341  0.00  0.00    +0.000 HD
ENDBRANCH   5   8
ENDBRANCH   1   2
BRANCH   1  17
ATOM     17  C   UNL     1       8.214   8.888  17.849  0.00  0.00    +0.000 C 
BRANCH  17  19
ATOM     18  N   UNL     1       6.453   7.281  17.338  0.00  0.00    +0.000 N 
ATOM     19  C   UNL     1       7.626   7.494  18.048  0.00  0.00    +0.000 C 
ATOM     20  O   UNL     1       8.196   6.681  18.771  0.00  0.00    +0.000 OA
ATOM     21  H   UNL     1       6.213   8.010  16.670  0.00  0.00    +0.000 HD
BRANCH  18  25
ATOM     22  C   UNL     1       3.953   3.893  17.520  0.00  0.00    +0.000 A 
ATOM     23  C   UNL     1       4.764   4.102  16.405  0.00  0.00    +0.000 A 
ATOM     24  C   UNL     1       5.597   5.214  16.341  0.00  0.00    +0.000 A 
ATOM     25  C   UNL     1       5.642   6.137  17.385  0.00  0.00    +0.000 A 
ATOM     26  C   UNL     1       4.864   5.909  18.526  0.00  0.00    +0.000 A 
ATOM     27  C   UNL     1       4.011   4.799  18.588  0.00  0.00    +0.000 A 
BRANCH  22  29
ATOM     28  C   UNL     1       3.475   1.499  18.345  0.00  0.00    +0.000 C 
ATOM     29  C   UNL     1       3.026   2.727  17.593  0.00  0.00    +0.000 C 
ATOM     30  O   UNL     1       1.928   2.783  17.051  0.00  0.00    +0.000 OA
ENDBRANCH  22  29
ENDBRANCH  18  25
ENDBRANCH  17  19
ENDBRANCH   1  17
TORSDOF 6
ENDMDL
MODEL 4
REMARK VINA RESULT:      -7.9      6.563      9.796
REMARK  Name = 
REMARK  7 active torsions:
REMARK  status: ('A' for Active; 'I' for Inactive)
REMARK    1  A    between atoms: C_1  and  C_2
REMARK    2  A    between atoms: C_2  and  C_4
REMARK    3  A    between atoms: C_7  and  N_8
REMARK    4  A    between atoms: C_9  and  C_11
REMARK    5  A    between atoms: C_11  and  O_12
REMARK    6  A    between atoms: O_12  and  C_13
REMARK    7  A    between atoms: C_16  and  C_17
REMARK                            x       y       z     vdW  Elec       q    Type
REMARK                         _______ _______ _______ _____ _____    ______ ____
ROOT
ATOM      1  O   UNL     1       7.816   8.076  17.308  0.00  0.00    +0.000 OA
ENDROOT
BRANCH   1   2
ATOM      2  C   UNL     1       6.966   7.014  17.378  0.00  0.00    +0.000 A 
ATOM      3  C   UNL     1       5.663   7.296  16.972  0.00  0.00    +0.000 A 
ATOM      4  C   UNL     1       4.696   6.296  16.962  0.00  0.00    +0.000 A 
ATOM      5  C   UNL     1       5.032   4.995  17.347  0.00  0.00    +0.000 A 
ATOM      6  C   UNL     1       6.343   4.707  17.741  0.00  0.00    +0.000 A 
ATOM      7  C   UNL     1       7.312   5.717  17.759  0.00  0.00    +0.000 A 
BRANCH   5   8
ATOM      8  C   UNL     1       4.010   3.950  17.327  0.00  0.00    +0.000 C 
ATOM      9  C   UNL     1       3.253   3.597  18.373  0.00  0.00    +0.000 C 
ATOM     10  S   UNL     1       3.241   4.266  19.961  0.00  0.00    +0.000 S 
ATOM     11  C   UNL     1       2.019   3.136  20.512  0.00  0.00    +0.000 C 
ATOM     12  O   UNL     1       1.576   3.100  21.646  0.00  0.00    +0.000 OA
ATOM     13  N   UNL     1       1.657   2.318  19.491  0.00  0.00    +0.000 N 
ATOM     14  C   UNL     1       2.274   2.483  18.287  0.00  0.00    +0.000 C 
ATOM     15  O   UNL     1       2.059   1.805  17.296  0.00  0.00    +0.000 OA
ATOM     16  H   UNL     1       0.969   1.596  19.629  0.00  0.00    +0.000 HD
ENDBRANCH   5   8
ENDBRANCH   1   2
BRANCH   1  17
ATOM     17  C   UNL     1       8.636   8.305  18.448  0.00  0.00    +0.000 C 
BRANCH  17  19
ATOM     18  N   UNL     1       9.411  10.131  19.865  0.00  0.00    +0.000 N 
ATOM     19  C   UNL     1       8.805   9.807  18.659  0.00  0.00    +0.000 C 
ATOM     20  O   UNL     1       8.433  10.598  17.797  0.00  0.00    +0.000 OA
ATOM     21  H   UNL     1       9.794   9.344  20.383  0.00  0.00    +0.000 HD
BRANCH  18  25
ATOM     22  C   UNL     1      10.041  13.974  21.478  0.00  0.00    +0.000 A 
ATOM     23  C   UNL     1      10.746  13.569  20.345  0.00  0.00    +0.000 A 
ATOM     24  C   UNL     1      10.538  12.305  19.803  0.00  0.00    +0.000 A 
ATOM     25  C   UNL     1       9.623  11.421  20.375  0.00  0.00    +0.000 A 
ATOM     26  C   UNL     1       8.879  11.838  21.485  0.00  0.00    +0.000 A 
ATOM     27  C   UNL     1       9.098  13.105  22.044  0.00  0.00    +0.000 A 
BRANCH  22  29
ATOM     28  C   UNL     1       9.283  15.815  23.114  0.00  0.00    +0.000 C 
ATOM     29  C   UNL     1      10.276  15.310  22.096  0.00  0.00    +0.000 C 
ATOM     30  O   UNL     1      11.258  15.970  21.776  0.00  0.00    +0.000 OA
ENDBRANCH  22  29
ENDBRANCH  18  25
ENDBRANCH  17  19
ENDBRANCH   1  17
TORSDOF 6
ENDMDL
MODEL 5
REMARK VINA RESULT:      -7.9      7.229     10.063
REMARK  Name = 
REMARK  7 active torsions:
REMARK  status: ('A' for Active; 'I' for Inactive)
REMARK    1  A    between atoms: C_1  and  C_2
REMARK    2  A    between atoms: C_2  and  C_4
REMARK    3  A    between atoms: C_7  and  N_8
REMARK    4  A    between atoms: C_9  and  C_11
REMARK    5  A    between atoms: C_11  and  O_12
REMARK    6  A    between atoms: O_12  and  C_13
REMARK    7  A    between atoms: C_16  and  C_17
REMARK                            x       y       z     vdW  Elec       q    Type
REMARK                         _______ _______ _______ _____ _____    ______ ____
ROOT
ATOM      1  O   UNL     1       8.544   8.302  18.348  0.00  0.00    +0.000 OA
ENDROOT
BRANCH   1   2
ATOM      2  C   UNL     1       7.684   7.263  18.155  0.00  0.00    +0.000 A 
ATOM      3  C   UNL     1       7.897   6.179  19.005  0.00  0.00    +0.000 A 
ATOM      4  C   UNL     1       7.072   5.060  18.941  0.00  0.00    +0.000 A 
ATOM      5  C   UNL     1       6.012   5.026  18.031  0.00  0.00    +0.000 A 
ATOM      6  C   UNL     1       5.788   6.119  17.187  0.00  0.00    +0.000 A 
ATOM      7  C   UNL     1       6.625   7.239  17.247  0.00  0.00    +0.000 A 
BRANCH   5   8
ATOM      8  C   UNL     1       5.148   3.848  17.975  0.00  0.00    +0.000 C 
ATOM      9  C   UNL     1       3.987   3.715  18.628  0.00  0.00    +0.000 C 
ATOM     10  S   UNL     1       3.194   4.858  19.646  0.00  0.00    +0.000 S 
ATOM     11  C   UNL     1       1.882   3.750  19.999  0.00  0.00    +0.000 C 
ATOM     12  O   UNL     1       0.946   4.003  20.736  0.00  0.00    +0.000 OA
ATOM     13  N   UNL     1       2.076   2.582  19.333  0.00  0.00    +0.000 N 
ATOM     14  C   UNL     1       3.195   2.460  18.565  0.00  0.00    +0.000 C 
ATOM     15  O   UNL     1       3.501   1.462  17.934  0.00  0.00    +0.000 OA
ATOM     16  H   UNL     1       1.423   1.822  19.426  0.00  0.00    +0.000 HD
ENDBRANCH   5   8
ENDBRANCH   1   2
BRANCH   1  17
ATOM     17  C   UNL     1       8.176   9.544  17.759  0.00  0.00    +0.000 C 
BRANCH  17  19
ATOM     18  N   UNL     1       8.800  11.900  17.781  0.00  0.00    +0.000 N 
ATOM     19  C   UNL     1       8.996  10.667  18.388  0.00  0.00    +0.000 C 
ATOM     20  O   UNL     1       9.727  10.436  19.347  0.00  0.00    +0.000 OA
ATOM     21  H   UNL     1       8.042  11.935  17.105  0.00  0.00    +0.000 HD
BRANCH  18  25
ATOM     22  C   UNL     1      10.833  15.502  18.591  0.00  0.00    +0.000 A 
ATOM     23  C   UNL     1       9.709  15.153  19.338  0.00  0.00    +0.000 A 
ATOM     24  C   UNL     1       9.037  13.963  19.082  0.00  0.00    +0.000 A 
ATOM     25  C   UNL     1       9.472  13.095  18.080  0.00  0.00    +0.000 A 
ATOM     26  C   UNL     1      10.627  13.418  17.357  0.00  0.00    +0.000 A 
ATOM     27  C   UNL     1      11.297  14.625  17.602  0.00  0.00    +0.000 A 
BRANCH  22  29
ATOM     28  C   UNL     1      12.326  17.399  17.687  0.00  0.00    +0.000 C 
ATOM     29  C   UNL     1      11.546  16.791  18.826  0.00  0.00    +0.000 C 
ATOM     30  O   UNL     1      11.488  17.332  19.925  0.00  0.00    +0.000 OA
ENDBRANCH  22  29
ENDBRANCH  18  25
ENDBRANCH  17  19
ENDBRANCH   1  17
TORSDOF 6
ENDMDL
MODEL 6
REMARK VINA RESULT:      -7.7      3.180     10.322
REMARK  Name = 
REMARK  7 active torsions:
REMARK  status: ('A' for Active; 'I' for Inactive)
REMARK    1  A    between atoms: C_1  and  C_2
REMARK    2  A    between atoms: C_2  and  C_4
REMARK    3  A    between atoms: C_7  and  N_8
REMARK    4  A    between atoms: C_9  and  C_11
REMARK    5  A    between atoms: C_11  and  O_12
REMARK    6  A    between atoms: O_12  and  C_13
REMARK    7  A    between atoms: C_16  and  C_17
REMARK                            x       y       z     vdW  Elec       q    Type
REMARK                         _______ _______ _______ _____ _____    ______ ____
ROOT
ATOM      1  O   UNL     1       0.888  10.453  19.718  0.00  0.00    +0.000 OA
ENDROOT
BRANCH   1   2
ATOM      2  C   UNL     1       1.450   9.308  19.240  0.00  0.00    +0.000 A 
ATOM      3  C   UNL     1       1.655   8.325  20.205  0.00  0.00    +0.000 A 
ATOM      4  C   UNL     1       2.193   7.091  19.852  0.00  0.00    +0.000 A 
ATOM      5  C   UNL     1       2.517   6.826  18.519  0.00  0.00    +0.000 A 
ATOM      6  C   UNL     1       2.298   7.807  17.546  0.00  0.00    +0.000 A 
ATOM      7  C   UNL     1       1.766   9.051  17.906  0.00  0.00    +0.000 A 
BRANCH   5   8
ATOM      8  C   UNL     1       3.076   5.525  18.158  0.00  0.00    +0.000 C 
ATOM      9  C   UNL     1       4.248   5.337  17.539  0.00  0.00    +0.000 C 
ATOM     10  S   UNL     1       5.400   6.521  17.046  0.00  0.00    +0.000 S 
ATOM     11  C   UNL     1       6.459   5.311  16.347  0.00  0.00    +0.000 C 
ATOM     12  O   UNL     1       7.512   5.559  15.787  0.00  0.00    +0.000 OA
ATOM     13  N   UNL     1       5.923   4.076  16.522  0.00  0.00    +0.000 N 
ATOM     14  C   UNL     1       4.719   3.983  17.154  0.00  0.00    +0.000 C 
ATOM     15  O   UNL     1       4.119   2.940  17.357  0.00  0.00    +0.000 OA
ATOM     16  H   UNL     1       6.393   3.257  16.173  0.00  0.00    +0.000 HD
ENDBRANCH   5   8
ENDBRANCH   1   2
BRANCH   1  17
ATOM     17  C   UNL     1       1.035  11.614  18.909  0.00  0.00    +0.000 C 
BRANCH  17  19
ATOM     18  N   UNL     1      -1.361  11.615  19.358  0.00  0.00    +0.000 N 
ATOM     19  C   UNL     1      -0.314  12.315  18.776  0.00  0.00    +0.000 C 
ATOM     20  O   UNL     1      -0.392  13.402  18.209  0.00  0.00    +0.000 OA
ATOM     21  H   UNL     1      -1.087  10.812  19.919  0.00  0.00    +0.000 HD
BRANCH  18  25
ATOM     22  C   UNL     1      -5.463  12.575  19.227  0.00  0.00    +0.000 A 
ATOM     23  C   UNL     1      -4.670  13.049  20.271  0.00  0.00    +0.000 A 
ATOM     24  C   UNL     1      -3.313  12.742  20.317  0.00  0.00    +0.000 A 
ATOM     25  C   UNL     1      -2.721  11.962  19.325  0.00  0.00    +0.000 A 
ATOM     26  C   UNL     1      -3.502  11.521  18.250  0.00  0.00    +0.000 A 
ATOM     27  C   UNL     1      -4.873  11.814  18.209  0.00  0.00    +0.000 A 
BRANCH  22  29
ATOM     28  C   UNL     1      -7.569  13.088  17.832  0.00  0.00    +0.000 C 
ATOM     29  C   UNL     1      -6.926  12.861  19.178  0.00  0.00    +0.000 C 
ATOM     30  O   UNL     1      -7.577  12.906  20.215  0.00  0.00    +0.000 OA
ENDBRANCH  22  29
ENDBRANCH  18  25
ENDBRANCH  17  19
ENDBRANCH   1  17
TORSDOF 6
ENDMDL
MODEL 7
REMARK VINA RESULT:      -7.7      7.548      8.903
REMARK  Name = 
REMARK  7 active torsions:
REMARK  status: ('A' for Active; 'I' for Inactive)
REMARK    1  A    between atoms: C_1  and  C_2
REMARK    2  A    between atoms: C_2  and  C_4
REMARK    3  A    between atoms: C_7  and  N_8
REMARK    4  A    between atoms: C_9  and  C_11
REMARK    5  A    between atoms: C_11  and  O_12
REMARK    6  A    between atoms: O_12  and  C_13
REMARK    7  A    between atoms: C_16  and  C_17
REMARK                            x       y       z     vdW  Elec       q    Type
REMARK                         _______ _______ _______ _____ _____    ______ ____
ROOT
ATOM      1  O   UNL     1       8.582   8.985  18.763  0.00  0.00    +0.000 OA
ENDROOT
BRANCH   1   2
ATOM      2  C   UNL     1       9.185  10.159  19.099  0.00  0.00    +0.000 A 
ATOM      3  C   UNL     1       9.610  10.916  18.008  0.00  0.00    +0.000 A 
ATOM      4  C   UNL     1      10.216  12.154  18.201  0.00  0.00    +0.000 A 
ATOM      5  C   UNL     1      10.386  12.653  19.496  0.00  0.00    +0.000 A 
ATOM      6  C   UNL     1       9.947  11.901  20.591  0.00  0.00    +0.000 A 
ATOM      7  C   UNL     1       9.347  10.652  20.393  0.00  0.00    +0.000 A 
BRANCH   5   8
ATOM      8  C   UNL     1      11.018  13.957  19.687  0.00  0.00    +0.000 C 
ATOM      9  C   UNL     1      10.457  15.134  19.388  0.00  0.00    +0.000 C 
ATOM     10  S   UNL     1       8.883  15.440  18.754  0.00  0.00    +0.000 S 
ATOM     11  C   UNL     1       9.159  17.170  18.693  0.00  0.00    +0.000 C 
ATOM     12  O   UNL     1       8.349  17.983  18.285  0.00  0.00    +0.000 OA
ATOM     13  N   UNL     1      10.402  17.453  19.162  0.00  0.00    +0.000 N 
ATOM     14  C   UNL     1      11.190  16.415  19.559  0.00  0.00    +0.000 C 
ATOM     15  O   UNL     1      12.330  16.527  19.978  0.00  0.00    +0.000 OA
ATOM     16  H   UNL     1      10.737  18.402  19.191  0.00  0.00    +0.000 HD
ENDBRANCH   5   8
ENDBRANCH   1   2
BRANCH   1  17
ATOM     17  C   UNL     1       8.035   8.908  17.452  0.00  0.00    +0.000 C 
BRANCH  17  19
ATOM     18  N   UNL     1       6.206   7.371  17.934  0.00  0.00    +0.000 N 
ATOM     19  C   UNL     1       7.399   7.537  17.245  0.00  0.00    +0.000 C 
ATOM     20  O   UNL     1       7.937   6.710  16.513  0.00  0.00    +0.000 OA
ATOM     21  H   UNL     1       5.833   8.214  18.364  0.00  0.00    +0.000 HD
BRANCH  18  25
ATOM     22  C   UNL     1       3.883   3.857  18.068  0.00  0.00    +0.000 A 
ATOM     23  C   UNL     1       5.041   3.956  18.837  0.00  0.00    +0.000 A 
ATOM     24  C   UNL     1       5.809   5.116  18.804  0.00  0.00    +0.000 A 
ATOM     25  C   UNL     1       5.438   6.199  18.008  0.00  0.00    +0.000 A 
ATOM     26  C   UNL     1       4.252   6.123  17.268  0.00  0.00    +0.000 A 
ATOM     27  C   UNL     1       3.484   4.950  17.287  0.00  0.00    +0.000 A 
BRANCH  22  29
ATOM     28  C   UNL     1       3.687   1.340  18.589  0.00  0.00    +0.000 C 
ATOM     29  C   UNL     1       3.065   2.610  18.062  0.00  0.00    +0.000 C 
ATOM     30  O   UNL     1       1.915   2.633  17.638  0.00  0.00    +0.000 OA
ENDBRANCH  22  29
ENDBRANCH  18  25
ENDBRANCH  17  19
ENDBRANCH   1  17
TORSDOF 6
ENDMDL
MODEL 8
REMARK VINA RESULT:      -7.7      4.358     10.915
REMARK  Name = 
REMARK  7 active torsions:
REMARK  status: ('A' for Active; 'I' for Inactive)
REMARK    1  A    between atoms: C_1  and  C_2
REMARK    2  A    between atoms: C_2  and  C_4
REMARK    3  A    between atoms: C_7  and  N_8
REMARK    4  A    between atoms: C_9  and  C_11
REMARK    5  A    between atoms: C_11  and  O_12
REMARK    6  A    between atoms: O_12  and  C_13
REMARK    7  A    between atoms: C_16  and  C_17
REMARK                            x       y       z     vdW  Elec       q    Type
REMARK                         _______ _______ _______ _____ _____    ______ ____
ROOT
ATOM      1  O   UNL     1       0.564  10.440  19.854  0.00  0.00    +0.000 OA
ENDROOT
BRANCH   1   2
ATOM      2  C   UNL     1       1.198   9.325  19.396  0.00  0.00    +0.000 A 
ATOM      3  C   UNL     1       1.455   8.369  20.377  0.00  0.00    +0.000 A 
ATOM      4  C   UNL     1       2.070   7.165  20.045  0.00  0.00    +0.000 A 
ATOM      5  C   UNL     1       2.420   6.903  18.718  0.00  0.00    +0.000 A 
ATOM      6  C   UNL     1       2.150   7.855  17.730  0.00  0.00    +0.000 A 
ATOM      7  C   UNL     1       1.541   9.069  18.068  0.00  0.00    +0.000 A 
BRANCH   5   8
ATOM      8  C   UNL     1       3.060   5.633  18.379  0.00  0.00    +0.000 C 
ATOM      9  C   UNL     1       4.242   5.509  17.765  0.00  0.00    +0.000 C 
ATOM     10  S   UNL     1       5.319   6.753  17.251  0.00  0.00    +0.000 S 
ATOM     11  C   UNL     1       6.452   5.600  16.573  0.00  0.00    +0.000 C 
ATOM     12  O   UNL     1       7.489   5.904  16.009  0.00  0.00    +0.000 OA
ATOM     13  N   UNL     1       5.995   4.337  16.770  0.00  0.00    +0.000 N 
ATOM     14  C   UNL     1       4.798   4.180  17.403  0.00  0.00    +0.000 C 
ATOM     15  O   UNL     1       4.264   3.105  17.624  0.00  0.00    +0.000 OA
ATOM     16  H   UNL     1       6.515   3.544  16.435  0.00  0.00    +0.000 HD
ENDBRANCH   5   8
ENDBRANCH   1   2
BRANCH   1  17
ATOM     17  C   UNL     1       0.822  10.801  21.206  0.00  0.00    +0.000 C 
BRANCH  17  19
ATOM     18  N   UNL     1      -1.330  11.888  21.567  0.00  0.00    +0.000 N 
ATOM     19  C   UNL     1      -0.494  10.859  21.977  0.00  0.00    +0.000 C 
ATOM     20  O   UNL     1      -0.734  10.033  22.853  0.00  0.00    +0.000 OA
ATOM     21  H   UNL     1      -1.037  12.376  20.724  0.00  0.00    +0.000 HD
BRANCH  18  25
ATOM     22  C   UNL     1      -5.069  12.920  23.216  0.00  0.00    +0.000 A 
ATOM     23  C   UNL     1      -4.030  12.508  24.049  0.00  0.00    +0.000 A 
ATOM     24  C   UNL     1      -2.791  12.173  23.513  0.00  0.00    +0.000 A 
ATOM     25  C   UNL     1      -2.561  12.245  22.139  0.00  0.00    +0.000 A 
ATOM     26  C   UNL     1      -3.587  12.701  21.302  0.00  0.00    +0.000 A 
ATOM     27  C   UNL     1      -4.842  13.024  21.837  0.00  0.00    +0.000 A 
BRANCH  22  29
ATOM     28  C   UNL     1      -6.827  14.699  23.841  0.00  0.00    +0.000 C 
ATOM     29  C   UNL     1      -6.415  13.249  23.767  0.00  0.00    +0.000 C 
ATOM     30  O   UNL     1      -7.160  12.351  24.144  0.00  0.00    +0.000 OA
ENDBRANCH  22  29
ENDBRANCH  18  25
ENDBRANCH  17  19
ENDBRANCH   1  17
TORSDOF 6
ENDMDL
MODEL 9
REMARK VINA RESULT:      -7.7      1.299      1.768
REMARK  Name = 
REMARK  7 active torsions:
REMARK  status: ('A' for Active; 'I' for Inactive)
REMARK    1  A    between atoms: C_1  and  C_2
REMARK    2  A    between atoms: C_2  and  C_4
REMARK    3  A    between atoms: C_7  and  N_8
REMARK    4  A    between atoms: C_9  and  C_11
REMARK    5  A    between atoms: C_11  and  O_12
REMARK    6  A    between atoms: O_12  and  C_13
REMARK    7  A    between atoms: C_16  and  C_17
REMARK                            x       y       z     vdW  Elec       q    Type
REMARK                         _______ _______ _______ _____ _____    ______ ____
ROOT
ATOM      1  O   UNL     1       2.310   5.240  19.692  0.00  0.00    +0.000 OA
ENDROOT
BRANCH   1   2
ATOM      2  C   UNL     1       2.007   6.568  19.667  0.00  0.00    +0.000 A 
ATOM      3  C   UNL     1       2.190   7.173  18.425  0.00  0.00    +0.000 A 
ATOM      4  C   UNL     1       1.890   8.520  18.245  0.00  0.00    +0.000 A 
ATOM      5  C   UNL     1       1.388   9.271  19.311  0.00  0.00    +0.000 A 
ATOM      6  C   UNL     1       1.190   8.662  20.555  0.00  0.00    +0.000 A 
ATOM      7  C   UNL     1       1.502   7.309  20.735  0.00  0.00    +0.000 A 
BRANCH   5   8
ATOM      8  C   UNL     1       1.071  10.684  19.111  0.00  0.00    +0.000 C 
ATOM      9  C   UNL     1      -0.112  11.155  18.698  0.00  0.00    +0.000 C 
ATOM     10  S   UNL     1      -1.548  10.274  18.336  0.00  0.00    +0.000 S 
ATOM     11  C   UNL     1      -2.416  11.727  17.878  0.00  0.00    +0.000 C 
ATOM     12  O   UNL     1      -3.568  11.744  17.482  0.00  0.00    +0.000 OA
ATOM     13  N   UNL     1      -1.611  12.809  18.027  0.00  0.00    +0.000 N 
ATOM     14  C   UNL     1      -0.336  12.605  18.462  0.00  0.00    +0.000 C 
ATOM     15  O   UNL     1       0.496  13.483  18.619  0.00  0.00    +0.000 OA
ATOM     16  H   UNL     1      -1.941  13.732  17.800  0.00  0.00    +0.000 HD
ENDBRANCH   5   8
ENDBRANCH   1   2
BRANCH   1  17
ATOM     17  C   UNL     1       3.564   4.889  20.265  0.00  0.00    +0.000 C 
BRANCH  17  19
ATOM     18  N   UNL     1       4.217   4.866  17.917  0.00  0.00    +0.000 N 
ATOM     19  C   UNL     1       4.663   5.045  19.219  0.00  0.00    +0.000 C 
ATOM     20  O   UNL     1       5.810   5.319  19.563  0.00  0.00    +0.000 OA
ATOM     21  H   UNL     1       3.208   4.801  17.810  0.00  0.00    +0.000 HD
BRANCH  18  25
ATOM     22  C   UNL     1       6.612   4.942  14.449  0.00  0.00    +0.000 A 
ATOM     23  C   UNL     1       6.463   3.756  15.168  0.00  0.00    +0.000 A 
ATOM     24  C   UNL     1       5.668   3.722  16.309  0.00  0.00    +0.000 A 
ATOM     25  C   UNL     1       5.004   4.864  16.755  0.00  0.00    +0.000 A 
ATOM     26  C   UNL     1       5.114   6.046  16.013  0.00  0.00    +0.000 A 
ATOM     27  C   UNL     1       5.926   6.089  14.872  0.00  0.00    +0.000 A 
BRANCH  22  29
ATOM     28  C   UNL     1       7.155   4.130  12.064  0.00  0.00    +0.000 C 
ATOM     29  C   UNL     1       7.487   5.009  13.244  0.00  0.00    +0.000 C 
ATOM     30  O   UNL     1       8.450   5.769  13.227  0.00  0.00    +0.000 OA
ENDBRANCH  22  29
ENDBRANCH  18  25
ENDBRANCH  17  19
ENDBRANCH   1  17
TORSDOF 6
ENDMDL
