MODEL 1
REMARK VINA RESULT:      -5.9      0.000      0.000
REMARK  Name = 
REMARK  3 active torsions:
REMARK  status: ('A' for Active; 'I' for Inactive)
REMARK    1  A    between atoms: C_2  and  O_3
REMARK    2  A    between atoms: C_2  and  C_4
REMARK    3  A    between atoms: C_4  and  C_5
REMARK                            x       y       z     vdW  Elec       q    Type
REMARK                         _______ _______ _______ _____ _____    ______ ____
ROOT
ATOM      1  C   UNL     1       2.363   3.810  18.647  0.00  0.00    +0.000 C 
ATOM      2  C   UNL     1       1.818   4.972  17.781  0.00  0.00    +0.000 C 
ATOM      3  C   UNL     1       2.335   6.380  18.141  0.00  0.00    +0.000 C 
ATOM      4  C   UNL     1       2.616   6.629  19.618  0.00  0.00    +0.000 C 
ATOM      5  C   UNL     1       1.884   5.631  20.481  0.00  0.00    +0.000 C 
ATOM      6  C   UNL     1       2.367   4.214  20.164  0.00  0.00    +0.000 C 
ATOM      7  C   UNL     1       1.431   3.227  20.857  0.00  0.00    +0.000 C 
ATOM      8  N   UNL     1       1.588   2.035  20.048  0.00  0.00    +0.000 NA
ATOM      9  C   UNL     1       1.480   2.526  18.669  0.00  0.00    +0.000 C 
ATOM     10  H   UNL     1       0.855   1.361  20.251  0.00  0.00    +0.000 HD
ENDROOT
BRANCH   1  11
ATOM     11  C   UNL     1       3.750   3.378  18.091  0.00  0.00    +0.000 C 
BRANCH  11  13
ATOM     12  O   UNL     1       5.671   4.248  19.378  0.00  0.00    +0.000 OA
ATOM     13  C   UNL     1       4.862   3.367  19.139  0.00  0.00    +0.000 C 
BRANCH  13  14
ATOM     14  O   UNL     1       4.922   2.210  19.822  0.00  0.00    +0.000 OA
ATOM     15  H   UNL     1       4.029   1.817  19.706  0.00  0.00    +0.000 HD
ENDBRANCH  13  14
ENDBRANCH  11  13
ENDBRANCH   1  11
TORSDOF 3
ENDMDL
MODEL 2
REMARK VINA RESULT:      -5.8      1.359      1.804
REMARK  Name = 
REMARK  3 active torsions:
REMARK  status: ('A' for Active; 'I' for Inactive)
REMARK    1  A    between atoms: C_2  and  O_3
REMARK    2  A    between atoms: C_2  and  C_4
REMARK    3  A    between atoms: C_4  and  C_5
REMARK                            x       y       z     vdW  Elec       q    Type
REMARK                         _______ _______ _______ _____ _____    ______ ____
ROOT
ATOM      1  C   UNL     1       2.916   3.825  18.580  0.00  0.00    +0.000 C 
ATOM      2  C   UNL     1       2.758   5.365  18.538  0.00  0.00    +0.000 C 
ATOM      3  C   UNL     1       2.539   6.056  19.899  0.00  0.00    +0.000 C 
ATOM      4  C   UNL     1       1.749   5.259  20.931  0.00  0.00    +0.000 C 
ATOM      5  C   UNL     1       0.933   4.178  20.267  0.00  0.00    +0.000 C 
ATOM      6  C   UNL     1       1.857   3.192  19.550  0.00  0.00    +0.000 C 
ATOM      7  C   UNL     1       0.996   2.277  18.684  0.00  0.00    +0.000 C 
ATOM      8  N   UNL     1       1.934   1.846  17.666  0.00  0.00    +0.000 NA
ATOM      9  C   UNL     1       2.594   3.087  17.244  0.00  0.00    +0.000 C 
ATOM     10  H   UNL     1       1.447   1.412  16.887  0.00  0.00    +0.000 HD
ENDROOT
BRANCH   1  11
ATOM     11  C   UNL     1       4.394   3.481  18.924  0.00  0.00    +0.000 C 
BRANCH  11  13
ATOM     12  O   UNL     1       4.725   2.146  20.976  0.00  0.00    +0.000 OA
ATOM     13  C   UNL     1       4.555   2.219  19.770  0.00  0.00    +0.000 C 
BRANCH  13  14
ATOM     14  O   UNL     1       4.531   1.094  19.035  0.00  0.00    +0.000 OA
ATOM     15  H   UNL     1       5.120   1.292  18.273  0.00  0.00    +0.000 HD
ENDBRANCH  13  14
ENDBRANCH  11  13
ENDBRANCH   1  11
TORSDOF 3
ENDMDL
MODEL 3
REMARK VINA RESULT:      -5.7      1.714      2.004
REMARK  Name = 
REMARK  3 active torsions:
REMARK  status: ('A' for Active; 'I' for Inactive)
REMARK    1  A    between atoms: C_2  and  O_3
REMARK    2  A    between atoms: C_2  and  C_4
REMARK    3  A    between atoms: C_4  and  C_5
REMARK                            x       y       z     vdW  Elec       q    Type
REMARK                         _______ _______ _______ _____ _____    ______ ____
ROOT
ATOM      1  C   UNL     1       3.586   3.587  18.007  0.00  0.00    +0.000 C 
ATOM      2  C   UNL     1       2.285   4.323  17.602  0.00  0.00    +0.000 C 
ATOM      3  C   UNL     1       2.132   5.762  18.134  0.00  0.00    +0.000 C 
ATOM      4  C   UNL     1       2.737   6.032  19.507  0.00  0.00    +0.000 C 
ATOM      5  C   UNL     1       2.930   4.746  20.272  0.00  0.00    +0.000 C 
ATOM      6  C   UNL     1       3.904   3.834  19.524  0.00  0.00    +0.000 C 
ATOM      7  C   UNL     1       3.871   2.459  20.185  0.00  0.00    +0.000 C 
ATOM      8  N   UNL     1       4.307   1.591  19.109  0.00  0.00    +0.000 NA
ATOM      9  C   UNL     1       3.512   2.030  17.956  0.00  0.00    +0.000 C 
ATOM     10  H   UNL     1       4.117   0.618  19.330  0.00  0.00    +0.000 HD
ENDROOT
BRANCH   1  11
ATOM     11  C   UNL     1       4.723   4.004  17.032  0.00  0.00    +0.000 C 
BRANCH  11  13
ATOM     12  O   UNL     1       5.864   6.046  17.828  0.00  0.00    +0.000 OA
ATOM     13  C   UNL     1       5.827   4.834  17.686  0.00  0.00    +0.000 C 
BRANCH  13  14
ATOM     14  O   UNL     1       6.863   4.086  18.104  0.00  0.00    +0.000 OA
ATOM     15  H   UNL     1       6.864   4.202  19.080  0.00  0.00    +0.000 HD
ENDBRANCH  13  14
ENDBRANCH  11  13
ENDBRANCH   1  11
TORSDOF 3
ENDMDL
MODEL 4
REMARK VINA RESULT:      -5.6      3.431      4.496
REMARK  Name = 
REMARK  3 active torsions:
REMARK  status: ('A' for Active; 'I' for Inactive)
REMARK    1  A    between atoms: C_2  and  O_3
REMARK    2  A    between atoms: C_2  and  C_4
REMARK    3  A    between atoms: C_4  and  C_5
REMARK                            x       y       z     vdW  Elec       q    Type
REMARK                         _______ _______ _______ _____ _____    ______ ____
ROOT
ATOM      1  C   UNL     1       5.876   5.644  16.323  0.00  0.00    +0.000 C 
ATOM      2  C   UNL     1       4.916   6.856  16.242  0.00  0.00    +0.000 C 
ATOM      3  C   UNL     1       4.031   7.099  17.482  0.00  0.00    +0.000 C 
ATOM      4  C   UNL     1       3.585   5.851  18.236  0.00  0.00    +0.000 C 
ATOM      5  C   UNL     1       3.685   4.628  17.358  0.00  0.00    +0.000 C 
ATOM      6  C   UNL     1       5.139   4.403  16.939  0.00  0.00    +0.000 C 
ATOM      7  C   UNL     1       5.161   3.328  15.857  0.00  0.00    +0.000 C 
ATOM      8  N   UNL     1       6.395   3.623  15.156  0.00  0.00    +0.000 NA
ATOM      9  C   UNL     1       6.346   5.075  14.949  0.00  0.00    +0.000 C 
ATOM     10  H   UNL     1       6.432   3.132  14.267  0.00  0.00    +0.000 HD
ENDROOT
BRANCH   1  11
ATOM     11  C   UNL     1       7.163   6.074  17.082  0.00  0.00    +0.000 C 
BRANCH  11  13
ATOM     12  O   UNL     1       7.387   5.207  19.385  0.00  0.00    +0.000 OA
ATOM     13  C   UNL     1       7.585   5.104  18.185  0.00  0.00    +0.000 C 
BRANCH  13  14
ATOM     14  O   UNL     1       8.279   4.053  17.716  0.00  0.00    +0.000 OA
ATOM     15  H   UNL     1       8.110   3.341  18.373  0.00  0.00    +0.000 HD
ENDBRANCH  13  14
ENDBRANCH  11  13
ENDBRANCH   1  11
TORSDOF 3
ENDMDL
MODEL 5
REMARK VINA RESULT:      -5.6      1.784      2.336
REMARK  Name = 
REMARK  3 active torsions:
REMARK  status: ('A' for Active; 'I' for Inactive)
REMARK    1  A    between atoms: C_2  and  O_3
REMARK    2  A    between atoms: C_2  and  C_4
REMARK    3  A    between atoms: C_4  and  C_5
REMARK                            x       y       z     vdW  Elec       q    Type
REMARK                         _______ _______ _______ _____ _____    ______ ____
ROOT
ATOM      1  C   UNL     1       3.098   3.748  18.537  0.00  0.00    +0.000 C 
ATOM      2  C   UNL     1       1.723   4.383  18.857  0.00  0.00    +0.000 C 
ATOM      3  C   UNL     1       1.560   4.954  20.281  0.00  0.00    +0.000 C 
ATOM      4  C   UNL     1       2.308   4.215  21.384  0.00  0.00    +0.000 C 
ATOM      5  C   UNL     1       2.656   2.812  20.952  0.00  0.00    +0.000 C 
ATOM      6  C   UNL     1       3.580   2.855  19.733  0.00  0.00    +0.000 C 
ATOM      7  C   UNL     1       3.696   1.440  19.174  0.00  0.00    +0.000 C 
ATOM      8  N   UNL     1       4.046   1.685  17.789  0.00  0.00    +0.000 NA
ATOM      9  C   UNL     1       3.099   2.722  17.362  0.00  0.00    +0.000 C 
ATOM     10  H   UNL     1       3.933   0.842  17.233  0.00  0.00    +0.000 HD
ENDROOT
BRANCH   1  11
ATOM     11  C   UNL     1       4.089   4.877  18.132  0.00  0.00    +0.000 C 
BRANCH  11  13
ATOM     12  O   UNL     1       5.873   5.401  19.760  0.00  0.00    +0.000 OA
ATOM     13  C   UNL     1       5.458   4.768  18.802  0.00  0.00    +0.000 C 
BRANCH  13  14
ATOM     14  O   UNL     1       6.263   3.877  18.198  0.00  0.00    +0.000 OA
ATOM     15  H   UNL     1       6.166   4.076  17.241  0.00  0.00    +0.000 HD
ENDBRANCH  13  14
ENDBRANCH  11  13
ENDBRANCH   1  11
TORSDOF 3
ENDMDL
MODEL 6
REMARK VINA RESULT:      -5.6      2.185      3.723
REMARK  Name = 
REMARK  3 active torsions:
REMARK  status: ('A' for Active; 'I' for Inactive)
REMARK    1  A    between atoms: C_2  and  O_3
REMARK    2  A    between atoms: C_2  and  C_4
REMARK    3  A    between atoms: C_4  and  C_5
REMARK                            x       y       z     vdW  Elec       q    Type
REMARK                         _______ _______ _______ _____ _____    ______ ____
ROOT
ATOM      1  C   UNL     1       2.992   4.653  19.385  0.00  0.00    +0.000 C 
ATOM      2  C   UNL     1       1.873   4.699  18.316  0.00  0.00    +0.000 C 
ATOM      3  C   UNL     1       1.217   3.346  17.970  0.00  0.00    +0.000 C 
ATOM      4  C   UNL     1       2.130   2.127  18.033  0.00  0.00    +0.000 C 
ATOM      5  C   UNL     1       3.580   2.536  17.944  0.00  0.00    +0.000 C 
ATOM      6  C   UNL     1       3.944   3.432  19.130  0.00  0.00    +0.000 C 
ATOM      7  C   UNL     1       5.324   4.029  18.868  0.00  0.00    +0.000 C 
ATOM      8  N   UNL     1       5.293   5.236  19.670  0.00  0.00    +0.000 NA
ATOM      9  C   UNL     1       3.998   5.845  19.346  0.00  0.00    +0.000 C 
ATOM     10  H   UNL     1       6.058   5.856  19.419  0.00  0.00    +0.000 HD
ENDROOT
BRANCH   1  11
ATOM     11  C   UNL     1       2.339   4.678  20.796  0.00  0.00    +0.000 C 
BRANCH  11  13
ATOM     12  O   UNL     1       2.909   2.566  21.943  0.00  0.00    +0.000 OA
ATOM     13  C   UNL     1       2.097   3.293  21.392  0.00  0.00    +0.000 C 
BRANCH  13  14
ATOM     14  O   UNL     1       0.832   2.868  21.229  0.00  0.00    +0.000 OA
ATOM     15  H   UNL     1       0.664   2.306  22.016  0.00  0.00    +0.000 HD
ENDBRANCH  13  14
ENDBRANCH  11  13
ENDBRANCH   1  11
TORSDOF 3
ENDMDL
MODEL 7
REMARK VINA RESULT:      -5.6      2.162      3.362
REMARK  Name = 
REMARK  3 active torsions:
REMARK  status: ('A' for Active; 'I' for Inactive)
REMARK    1  A    between atoms: C_2  and  O_3
REMARK    2  A    between atoms: C_2  and  C_4
REMARK    3  A    between atoms: C_4  and  C_5
REMARK                            x       y       z     vdW  Elec       q    Type
REMARK                         _______ _______ _______ _____ _____    ______ ____
ROOT
ATOM      1  C   UNL     1       2.592   3.714  18.399  0.00  0.00    +0.000 C 
ATOM      2  C   UNL     1       1.356   2.790  18.524  0.00  0.00    +0.000 C 
ATOM      3  C   UNL     1       0.544   2.924  19.829  0.00  0.00    +0.000 C 
ATOM      4  C   UNL     1       1.346   3.261  21.081  0.00  0.00    +0.000 C 
ATOM      5  C   UNL     1       2.803   2.918  20.894  0.00  0.00    +0.000 C 
ATOM      6  C   UNL     1       3.392   3.745  19.749  0.00  0.00    +0.000 C 
ATOM      7  C   UNL     1       4.775   3.189  19.424  0.00  0.00    +0.000 C 
ATOM      8  N   UNL     1       4.953   3.597  18.044  0.00  0.00    +0.000 NA
ATOM      9  C   UNL     1       3.687   3.229  17.400  0.00  0.00    +0.000 C 
ATOM     10  H   UNL     1       5.732   3.102  17.619  0.00  0.00    +0.000 HD
ENDROOT
BRANCH   1  11
ATOM     11  C   UNL     1       2.125   5.109  17.893  0.00  0.00    +0.000 C 
BRANCH  11  13
ATOM     12  O   UNL     1       2.377   6.908  19.568  0.00  0.00    +0.000 OA
ATOM     13  C   UNL     1       2.795   6.283  18.607  0.00  0.00    +0.000 C 
BRANCH  13  14
ATOM     14  O   UNL     1       3.962   6.639  18.041  0.00  0.00    +0.000 OA
ATOM     15  H   UNL     1       3.860   7.601  17.867  0.00  0.00    +0.000 HD
ENDBRANCH  13  14
ENDBRANCH  11  13
ENDBRANCH   1  11
TORSDOF 3
ENDMDL
MODEL 8
REMARK VINA RESULT:      -5.5      1.414      1.871
REMARK  Name = 
REMARK  3 active torsions:
REMARK  status: ('A' for Active; 'I' for Inactive)
REMARK    1  A    between atoms: C_2  and  O_3
REMARK    2  A    between atoms: C_2  and  C_4
REMARK    3  A    between atoms: C_4  and  C_5
REMARK                            x       y       z     vdW  Elec       q    Type
REMARK                         _______ _______ _______ _____ _____    ______ ____
ROOT
ATOM      1  C   UNL     1       3.141   3.765  18.766  0.00  0.00    +0.000 C 
ATOM      2  C   UNL     1       2.974   5.287  18.540  0.00  0.00    +0.000 C 
ATOM      3  C   UNL     1       2.589   6.115  19.783  0.00  0.00    +0.000 C 
ATOM      4  C   UNL     1       1.691   5.415  20.797  0.00  0.00    +0.000 C 
ATOM      5  C   UNL     1       0.970   4.251  20.164  0.00  0.00    +0.000 C 
ATOM      6  C   UNL     1       1.982   3.215  19.670  0.00  0.00    +0.000 C 
ATOM      7  C   UNL     1       1.238   2.194  18.815  0.00  0.00    +0.000 C 
ATOM      8  N   UNL     1       2.293   1.678  17.965  0.00  0.00    +0.000 NA
ATOM      9  C   UNL     1       2.986   2.882  17.490  0.00  0.00    +0.000 C 
ATOM     10  H   UNL     1       1.906   1.152  17.187  0.00  0.00    +0.000 HD
ENDROOT
BRANCH   1  11
ATOM     11  C   UNL     1       4.571   3.494  19.314  0.00  0.00    +0.000 C 
BRANCH  11  13
ATOM     12  O   UNL     1       5.999   4.462  17.545  0.00  0.00    +0.000 OA
ATOM     13  C   UNL     1       5.647   4.396  18.712  0.00  0.00    +0.000 C 
BRANCH  13  14
ATOM     14  O   UNL     1       6.262   5.159  19.633  0.00  0.00    +0.000 OA
ATOM     15  H   UNL     1       6.015   4.746  20.490  0.00  0.00    +0.000 HD
ENDBRANCH  13  14
ENDBRANCH  11  13
ENDBRANCH   1  11
TORSDOF 3
ENDMDL
MODEL 9
REMARK VINA RESULT:      -5.5      3.018      4.101
REMARK  Name = 
REMARK  3 active torsions:
REMARK  status: ('A' for Active; 'I' for Inactive)
REMARK    1  A    between atoms: C_2  and  O_3
REMARK    2  A    between atoms: C_2  and  C_4
REMARK    3  A    between atoms: C_4  and  C_5
REMARK                            x       y       z     vdW  Elec       q    Type
REMARK                         _______ _______ _______ _____ _____    ______ ____
ROOT
ATOM      1  C   UNL     1       5.763   4.659  17.781  0.00  0.00    +0.000 C 
ATOM      2  C   UNL     1       5.525   4.158  16.335  0.00  0.00    +0.000 C 
ATOM      3  C   UNL     1       5.655   5.221  15.225  0.00  0.00    +0.000 C 
ATOM      4  C   UNL     1       5.219   6.633  15.599  0.00  0.00    +0.000 C 
ATOM      5  C   UNL     1       4.305   6.612  16.800  0.00  0.00    +0.000 C 
ATOM      6  C   UNL     1       5.043   6.035  18.009  0.00  0.00    +0.000 C 
ATOM      7  C   UNL     1       4.022   5.790  19.117  0.00  0.00    +0.000 C 
ATOM      8  N   UNL     1       4.664   4.755  19.902  0.00  0.00    +0.000 NA
ATOM      9  C   UNL     1       5.122   3.784  18.901  0.00  0.00    +0.000 C 
ATOM     10  H   UNL     1       4.003   4.328  20.545  0.00  0.00    +0.000 HD
ENDROOT
BRANCH   1  11
ATOM     11  C   UNL     1       7.293   4.676  18.060  0.00  0.00    +0.000 C 
BRANCH  11  13
ATOM     12  O   UNL     1       8.132   6.940  18.585  0.00  0.00    +0.000 OA
ATOM     13  C   UNL     1       7.748   5.838  18.942  0.00  0.00    +0.000 C 
BRANCH  13  14
ATOM     14  O   UNL     1       7.731   5.535  20.252  0.00  0.00    +0.000 OA
ATOM     15  H   UNL     1       7.249   6.285  20.666  0.00  0.00    +0.000 HD
ENDBRANCH  13  14
ENDBRANCH  11  13
ENDBRANCH   1  11
TORSDOF 3
ENDMDL
