MODEL 1
REMARK VINA RESULT:      -7.4      0.000      0.000
REMARK  Name = 
REMARK  4 active torsions:
REMARK  status: ('A' for Active; 'I' for Inactive)
REMARK    1  A    between atoms: C_1  and  S_2
REMARK    2  A    between atoms: S_2  and  N_5
REMARK    3  A    between atoms: C_7  and  C_8
REMARK    4  A    between atoms: C_14  and  C_15
REMARK                            x       y       z     vdW  Elec       q    Type
REMARK                         _______ _______ _______ _____ _____    ______ ____
ROOT
ATOM      1  N   UNL     1       6.040   4.787  18.430  0.00  0.00    +0.000 N 
ATOM      2  N   UNL     1       5.134   4.209  19.381  0.00  0.00    +0.000 NA
ATOM      3  C   UNL     1       3.946   4.340  18.869  0.00  0.00    +0.000 C 
ATOM      4  C   UNL     1       3.881   5.083  17.558  0.00  0.00    +0.000 C 
ATOM      5  C   UNL     1       5.350   5.443  17.309  0.00  0.00    +0.000 C 
ENDROOT
BRANCH   5   6
ATOM      6  C   UNL     1       5.821   4.978  15.952  0.00  0.00    +0.000 A 
ATOM      7  C   UNL     1       5.198   3.893  15.321  0.00  0.00    +0.000 A 
ATOM      8  C   UNL     1       5.612   3.481  14.051  0.00  0.00    +0.000 A 
ATOM      9  C   UNL     1       6.652   4.144  13.404  0.00  0.00    +0.000 A 
ATOM     10  C   UNL     1       7.282   5.221  14.023  0.00  0.00    +0.000 A 
ATOM     11  C   UNL     1       6.868   5.636  15.289  0.00  0.00    +0.000 A 
ENDBRANCH   5   6
BRANCH   3  12
ATOM     12  C   UNL     1       2.779   3.794  19.523  0.00  0.00    +0.000 A 
ATOM     13  C   UNL     1       1.467   3.831  19.083  0.00  0.00    +0.000 A 
ATOM     14  C   UNL     1       0.563   3.222  20.001  0.00  0.00    +0.000 A 
ATOM     15  C   UNL     1       1.210   2.736  21.113  0.00  0.00    +0.000 A 
ATOM     16  S   UNL     1       2.895   3.009  21.041  0.00  0.00    +0.000 S 
ENDBRANCH   3  12
BRANCH   1  18
ATOM     17  C   UNL     1       7.820   6.795  18.128  0.00  0.00    +0.000 C 
ATOM     18  S   UNL     1       7.655   5.133  18.736  0.00  0.00    +0.000 S 
ATOM     19  O   UNL     1       8.465   4.269  17.900  0.00  0.00    +0.000 OA
ATOM     20  O   UNL     1       7.860   5.173  20.171  0.00  0.00    +0.000 OA
ENDBRANCH   1  18
TORSDOF 3
ENDMDL
MODEL 2
REMARK VINA RESULT:      -7.3      0.476      1.179
REMARK  Name = 
REMARK  4 active torsions:
REMARK  status: ('A' for Active; 'I' for Inactive)
REMARK    1  A    between atoms: C_1  and  S_2
REMARK    2  A    between atoms: S_2  and  N_5
REMARK    3  A    between atoms: C_7  and  C_8
REMARK    4  A    between atoms: C_14  and  C_15
REMARK                            x       y       z     vdW  Elec       q    Type
REMARK                         _______ _______ _______ _____ _____    ______ ____
ROOT
ATOM      1  N   UNL     1       5.955   4.796  18.230  0.00  0.00    +0.000 N 
ATOM      2  N   UNL     1       5.009   4.198  19.129  0.00  0.00    +0.000 NA
ATOM      3  C   UNL     1       3.843   4.344  18.572  0.00  0.00    +0.000 C 
ATOM      4  C   UNL     1       3.833   5.118  17.278  0.00  0.00    +0.000 C 
ATOM      5  C   UNL     1       5.312   5.479  17.098  0.00  0.00    +0.000 C 
ENDROOT
BRANCH   5   6
ATOM      6  C   UNL     1       5.838   5.045  15.751  0.00  0.00    +0.000 A 
ATOM      7  C   UNL     1       6.920   5.717  15.165  0.00  0.00    +0.000 A 
ATOM      8  C   UNL     1       7.429   5.297  13.934  0.00  0.00    +0.000 A 
ATOM      9  C   UNL     1       6.862   4.207  13.275  0.00  0.00    +0.000 A 
ATOM     10  C   UNL     1       5.783   3.534  13.846  0.00  0.00    +0.000 A 
ATOM     11  C   UNL     1       5.276   3.950  15.077  0.00  0.00    +0.000 A 
ENDBRANCH   5   6
BRANCH   3  12
ATOM     12  C   UNL     1       2.649   3.786  19.165  0.00  0.00    +0.000 A 
ATOM     13  C   UNL     1       1.671   3.030  18.544  0.00  0.00    +0.000 A 
ATOM     14  C   UNL     1       0.610   2.672  19.428  0.00  0.00    +0.000 A 
ATOM     15  C   UNL     1       0.813   3.163  20.697  0.00  0.00    +0.000 A 
ATOM     16  S   UNL     1       2.273   4.041  20.817  0.00  0.00    +0.000 S 
ENDBRANCH   3  12
BRANCH   1  18
ATOM     17  C   UNL     1       7.755   6.799  18.030  0.00  0.00    +0.000 C 
ATOM     18  S   UNL     1       7.556   5.131  18.610  0.00  0.00    +0.000 S 
ATOM     19  O   UNL     1       8.398   4.273  17.800  0.00  0.00    +0.000 OA
ATOM     20  O   UNL     1       7.699   5.153  20.053  0.00  0.00    +0.000 OA
ENDBRANCH   1  18
TORSDOF 3
ENDMDL
MODEL 3
REMARK VINA RESULT:      -7.3      1.075      1.215
REMARK  Name = 
REMARK  4 active torsions:
REMARK  status: ('A' for Active; 'I' for Inactive)
REMARK    1  A    between atoms: C_1  and  S_2
REMARK    2  A    between atoms: S_2  and  N_5
REMARK    3  A    between atoms: C_7  and  C_8
REMARK    4  A    between atoms: C_14  and  C_15
REMARK                            x       y       z     vdW  Elec       q    Type
REMARK                         _______ _______ _______ _____ _____    ______ ____
ROOT
ATOM      1  N   UNL     1       6.017   4.799  17.704  0.00  0.00    +0.000 N 
ATOM      2  N   UNL     1       5.124   4.212  18.662  0.00  0.00    +0.000 NA
ATOM      3  C   UNL     1       3.940   4.262  18.126  0.00  0.00    +0.000 C 
ATOM      4  C   UNL     1       3.862   4.950  16.787  0.00  0.00    +0.000 C 
ATOM      5  C   UNL     1       5.315   5.374  16.547  0.00  0.00    +0.000 C 
ENDROOT
BRANCH   5   6
ATOM      6  C   UNL     1       5.834   4.882  15.218  0.00  0.00    +0.000 A 
ATOM      7  C   UNL     1       5.100   3.947  14.475  0.00  0.00    +0.000 A 
ATOM      8  C   UNL     1       5.563   3.515  13.229  0.00  0.00    +0.000 A 
ATOM      9  C   UNL     1       6.762   4.007  12.717  0.00  0.00    +0.000 A 
ATOM     10  C   UNL     1       7.502   4.933  13.449  0.00  0.00    +0.000 A 
ATOM     11  C   UNL     1       7.040   5.369  14.690  0.00  0.00    +0.000 A 
ENDBRANCH   5   6
BRANCH   3  12
ATOM     12  C   UNL     1       2.791   3.682  18.783  0.00  0.00    +0.000 A 
ATOM     13  C   UNL     1       1.764   2.956  18.206  0.00  0.00    +0.000 A 
ATOM     14  C   UNL     1       0.770   2.564  19.151  0.00  0.00    +0.000 A 
ATOM     15  C   UNL     1       1.070   3.001  20.421  0.00  0.00    +0.000 A 
ATOM     16  S   UNL     1       2.541   3.868  20.468  0.00  0.00    +0.000 S 
ENDBRANCH   3  12
BRANCH   1  18
ATOM     17  C   UNL     1       7.601   5.477  19.785  0.00  0.00    +0.000 C 
ATOM     18  S   UNL     1       7.606   5.239  18.022  0.00  0.00    +0.000 S 
ATOM     19  O   UNL     1       7.848   6.525  17.400  0.00  0.00    +0.000 OA
ATOM     20  O   UNL     1       8.470   4.109  17.740  0.00  0.00    +0.000 OA
ENDBRANCH   1  18
TORSDOF 3
ENDMDL
MODEL 4
REMARK VINA RESULT:      -7.3      2.124      5.737
REMARK  Name = 
REMARK  4 active torsions:
REMARK  status: ('A' for Active; 'I' for Inactive)
REMARK    1  A    between atoms: C_1  and  S_2
REMARK    2  A    between atoms: S_2  and  N_5
REMARK    3  A    between atoms: C_7  and  C_8
REMARK    4  A    between atoms: C_14  and  C_15
REMARK                            x       y       z     vdW  Elec       q    Type
REMARK                         _______ _______ _______ _____ _____    ______ ____
ROOT
ATOM      1  N   UNL     1       6.565   5.096  17.382  0.00  0.00    +0.000 N 
ATOM      2  N   UNL     1       7.128   4.885  16.078  0.00  0.00    +0.000 NA
ATOM      3  C   UNL     1       6.163   4.422  15.341  0.00  0.00    +0.000 C 
ATOM      4  C   UNL     1       4.856   4.185  16.055  0.00  0.00    +0.000 C 
ATOM      5  C   UNL     1       5.184   4.600  17.493  0.00  0.00    +0.000 C 
ENDROOT
BRANCH   5   6
ATOM      6  C   UNL     1       4.213   5.629  18.019  0.00  0.00    +0.000 A 
ATOM      7  C   UNL     1       4.102   6.880  17.396  0.00  0.00    +0.000 A 
ATOM      8  C   UNL     1       3.181   7.821  17.861  0.00  0.00    +0.000 A 
ATOM      9  C   UNL     1       2.366   7.525  18.953  0.00  0.00    +0.000 A 
ATOM     10  C   UNL     1       2.470   6.287  19.582  0.00  0.00    +0.000 A 
ATOM     11  C   UNL     1       3.386   5.344  19.117  0.00  0.00    +0.000 A 
ENDBRANCH   5   6
BRANCH   3  12
ATOM     12  C   UNL     1       6.348   4.166  13.931  0.00  0.00    +0.000 A 
ATOM     13  C   UNL     1       5.577   3.362  13.109  0.00  0.00    +0.000 A 
ATOM     14  C   UNL     1       6.071   3.311  11.772  0.00  0.00    +0.000 A 
ATOM     15  C   UNL     1       7.201   4.079  11.613  0.00  0.00    +0.000 A 
ATOM     16  S   UNL     1       7.655   4.856  13.065  0.00  0.00    +0.000 S 
ENDBRANCH   3  12
BRANCH   1  18
ATOM     17  C   UNL     1       8.006   7.080  18.513  0.00  0.00    +0.000 C 
ATOM     18  S   UNL     1       7.456   5.408  18.769  0.00  0.00    +0.000 S 
ATOM     19  O   UNL     1       8.623   4.548  18.757  0.00  0.00    +0.000 OA
ATOM     20  O   UNL     1       6.560   5.417  19.909  0.00  0.00    +0.000 OA
ENDBRANCH   1  18
TORSDOF 3
ENDMDL
MODEL 5
REMARK VINA RESULT:      -7.2      3.455      4.297
REMARK  Name = 
REMARK  4 active torsions:
REMARK  status: ('A' for Active; 'I' for Inactive)
REMARK    1  A    between atoms: C_1  and  S_2
REMARK    2  A    between atoms: S_2  and  N_5
REMARK    3  A    between atoms: C_7  and  C_8
REMARK    4  A    between atoms: C_14  and  C_15
REMARK                            x       y       z     vdW  Elec       q    Type
REMARK                         _______ _______ _______ _____ _____    ______ ____
ROOT
ATOM      1  N   UNL     1       3.288   4.279  18.943  0.00  0.00    +0.000 N 
ATOM      2  N   UNL     1       2.245   5.193  19.311  0.00  0.00    +0.000 NA
ATOM      3  C   UNL     1       2.802   6.366  19.375  0.00  0.00    +0.000 C 
ATOM      4  C   UNL     1       4.291   6.392  19.141  0.00  0.00    +0.000 C 
ATOM      5  C   UNL     1       4.615   4.913  18.908  0.00  0.00    +0.000 C 
ENDROOT
BRANCH   5   6
ATOM      6  C   UNL     1       5.356   4.695  17.611  0.00  0.00    +0.000 A 
ATOM      7  C   UNL     1       4.656   4.648  16.397  0.00  0.00    +0.000 A 
ATOM      8  C   UNL     1       5.343   4.479  15.192  0.00  0.00    +0.000 A 
ATOM      9  C   UNL     1       6.730   4.351  15.188  0.00  0.00    +0.000 A 
ATOM     10  C   UNL     1       7.436   4.392  16.388  0.00  0.00    +0.000 A 
ATOM     11  C   UNL     1       6.753   4.565  17.592  0.00  0.00    +0.000 A 
ENDBRANCH   5   6
BRANCH   3  12
ATOM     12  C   UNL     1       2.025   7.555  19.646  0.00  0.00    +0.000 A 
ATOM     13  C   UNL     1       1.367   7.886  20.818  0.00  0.00    +0.000 A 
ATOM     14  C   UNL     1       0.668   9.124  20.723  0.00  0.00    +0.000 A 
ATOM     15  C   UNL     1       0.814   9.703  19.483  0.00  0.00    +0.000 A 
ATOM     16  S   UNL     1       1.793   8.758  18.450  0.00  0.00    +0.000 S 
ENDBRANCH   3  12
BRANCH   1  18
ATOM     17  C   UNL     1       1.735   2.362  20.042  0.00  0.00    +0.000 C 
ATOM     18  S   UNL     1       3.161   2.606  19.009  0.00  0.00    +0.000 S 
ATOM     19  O   UNL     1       4.318   2.095  19.718  0.00  0.00    +0.000 OA
ATOM     20  O   UNL     1       2.830   2.110  17.687  0.00  0.00    +0.000 OA
ENDBRANCH   1  18
TORSDOF 3
ENDMDL
MODEL 6
REMARK VINA RESULT:      -7.2      2.110      5.687
REMARK  Name = 
REMARK  4 active torsions:
REMARK  status: ('A' for Active; 'I' for Inactive)
REMARK    1  A    between atoms: C_1  and  S_2
REMARK    2  A    between atoms: S_2  and  N_5
REMARK    3  A    between atoms: C_7  and  C_8
REMARK    4  A    between atoms: C_14  and  C_15
REMARK                            x       y       z     vdW  Elec       q    Type
REMARK                         _______ _______ _______ _____ _____    ______ ____
ROOT
ATOM      1  N   UNL     1       6.554   5.094  17.363  0.00  0.00    +0.000 N 
ATOM      2  N   UNL     1       7.131   4.897  16.064  0.00  0.00    +0.000 NA
ATOM      3  C   UNL     1       6.179   4.420  15.318  0.00  0.00    +0.000 C 
ATOM      4  C   UNL     1       4.870   4.160  16.020  0.00  0.00    +0.000 C 
ATOM      5  C   UNL     1       5.181   4.576  17.462  0.00  0.00    +0.000 C 
ENDROOT
BRANCH   5   6
ATOM      6  C   UNL     1       4.189   5.588  17.984  0.00  0.00    +0.000 A 
ATOM      7  C   UNL     1       3.379   5.281  19.086  0.00  0.00    +0.000 A 
ATOM      8  C   UNL     1       2.484   6.227  19.590  0.00  0.00    +0.000 A 
ATOM      9  C   UNL     1       2.384   7.484  18.997  0.00  0.00    +0.000 A 
ATOM     10  C   UNL     1       3.181   7.799  17.898  0.00  0.00    +0.000 A 
ATOM     11  C   UNL     1       4.079   6.858  17.396  0.00  0.00    +0.000 A 
ENDBRANCH   5   6
BRANCH   3  12
ATOM     12  C   UNL     1       6.379   4.172  13.908  0.00  0.00    +0.000 A 
ATOM     13  C   UNL     1       5.638   3.345  13.082  0.00  0.00    +0.000 A 
ATOM     14  C   UNL     1       6.140   3.311  11.747  0.00  0.00    +0.000 A 
ATOM     15  C   UNL     1       7.246   4.114  11.595  0.00  0.00    +0.000 A 
ATOM     16  S   UNL     1       7.667   4.905  13.049  0.00  0.00    +0.000 S 
ENDBRANCH   3  12
BRANCH   1  18
ATOM     17  C   UNL     1       7.982   7.086  18.498  0.00  0.00    +0.000 C 
ATOM     18  S   UNL     1       7.430   5.416  18.759  0.00  0.00    +0.000 S 
ATOM     19  O   UNL     1       8.597   4.557  18.766  0.00  0.00    +0.000 OA
ATOM     20  O   UNL     1       6.520   5.433  19.888  0.00  0.00    +0.000 OA
ENDBRANCH   1  18
TORSDOF 3
ENDMDL
MODEL 7
REMARK VINA RESULT:      -7.2      1.050      1.598
REMARK  Name = 
REMARK  4 active torsions:
REMARK  status: ('A' for Active; 'I' for Inactive)
REMARK    1  A    between atoms: C_1  and  S_2
REMARK    2  A    between atoms: S_2  and  N_5
REMARK    3  A    between atoms: C_7  and  C_8
REMARK    4  A    between atoms: C_14  and  C_15
REMARK                            x       y       z     vdW  Elec       q    Type
REMARK                         _______ _______ _______ _____ _____    ______ ____
ROOT
ATOM      1  N   UNL     1       5.999   4.810  17.727  0.00  0.00    +0.000 N 
ATOM      2  N   UNL     1       5.114   4.214  18.686  0.00  0.00    +0.000 NA
ATOM      3  C   UNL     1       3.925   4.274  18.163  0.00  0.00    +0.000 C 
ATOM      4  C   UNL     1       3.835   4.980  16.833  0.00  0.00    +0.000 C 
ATOM      5  C   UNL     1       5.286   5.403  16.584  0.00  0.00    +0.000 C 
ENDROOT
BRANCH   5   6
ATOM      6  C   UNL     1       5.791   4.927  15.243  0.00  0.00    +0.000 A 
ATOM      7  C   UNL     1       7.004   5.409  14.732  0.00  0.00    +0.000 A 
ATOM      8  C   UNL     1       7.488   4.945  13.507  0.00  0.00    +0.000 A 
ATOM      9  C   UNL     1       6.766   4.001  12.779  0.00  0.00    +0.000 A 
ATOM     10  C   UNL     1       5.557   3.518  13.275  0.00  0.00    +0.000 A 
ATOM     11  C   UNL     1       5.074   3.976  14.500  0.00  0.00    +0.000 A 
ENDBRANCH   5   6
BRANCH   3  12
ATOM     12  C   UNL     1       2.780   3.689  18.824  0.00  0.00    +0.000 A 
ATOM     13  C   UNL     1       1.714   3.027  18.241  0.00  0.00    +0.000 A 
ATOM     14  C   UNL     1       0.741   2.609  19.194  0.00  0.00    +0.000 A 
ATOM     15  C   UNL     1       1.093   2.962  20.476  0.00  0.00    +0.000 A 
ATOM     16  S   UNL     1       2.590   3.784  20.523  0.00  0.00    +0.000 S 
ENDBRANCH   3  12
BRANCH   1  18
ATOM     17  C   UNL     1       7.603   5.467  19.798  0.00  0.00    +0.000 C 
ATOM     18  S   UNL     1       7.592   5.242  18.034  0.00  0.00    +0.000 S 
ATOM     19  O   UNL     1       7.835   6.532  17.419  0.00  0.00    +0.000 OA
ATOM     20  O   UNL     1       8.449   4.111  17.736  0.00  0.00    +0.000 OA
ENDBRANCH   1  18
TORSDOF 3
ENDMDL
MODEL 8
REMARK VINA RESULT:      -7.2      3.219      4.059
REMARK  Name = 
REMARK  4 active torsions:
REMARK  status: ('A' for Active; 'I' for Inactive)
REMARK    1  A    between atoms: C_1  and  S_2
REMARK    2  A    between atoms: S_2  and  N_5
REMARK    3  A    between atoms: C_7  and  C_8
REMARK    4  A    between atoms: C_14  and  C_15
REMARK                            x       y       z     vdW  Elec       q    Type
REMARK                         _______ _______ _______ _____ _____    ______ ____
ROOT
ATOM      1  N   UNL     1       3.621   4.585  18.664  0.00  0.00    +0.000 N 
ATOM      2  N   UNL     1       2.536   5.466  18.988  0.00  0.00    +0.000 NA
ATOM      3  C   UNL     1       2.974   6.670  18.767  0.00  0.00    +0.000 C 
ATOM      4  C   UNL     1       4.417   6.770  18.343  0.00  0.00    +0.000 C 
ATOM      5  C   UNL     1       4.864   5.304  18.345  0.00  0.00    +0.000 C 
ENDROOT
BRANCH   5   6
ATOM      6  C   UNL     1       5.476   4.900  17.025  0.00  0.00    +0.000 A 
ATOM      7  C   UNL     1       4.661   4.679  15.906  0.00  0.00    +0.000 A 
ATOM      8  C   UNL     1       5.228   4.337  14.676  0.00  0.00    +0.000 A 
ATOM      9  C   UNL     1       6.610   4.206  14.552  0.00  0.00    +0.000 A 
ATOM     10  C   UNL     1       7.430   4.419  15.659  0.00  0.00    +0.000 A 
ATOM     11  C   UNL     1       6.866   4.765  16.886  0.00  0.00    +0.000 A 
ENDBRANCH   5   6
BRANCH   3  12
ATOM     12  C   UNL     1       2.114   7.823  18.913  0.00  0.00    +0.000 A 
ATOM     13  C   UNL     1       1.717   8.712  17.930  0.00  0.00    +0.000 A 
ATOM     14  C   UNL     1       0.891   9.757  18.436  0.00  0.00    +0.000 A 
ATOM     15  C   UNL     1       0.680   9.634  19.790  0.00  0.00    +0.000 A 
ATOM     16  S   UNL     1       1.469   8.264  20.437  0.00  0.00    +0.000 S 
ENDBRANCH   3  12
BRANCH   1  18
ATOM     17  C   UNL     1       2.304   2.767  20.166  0.00  0.00    +0.000 C 
ATOM     18  S   UNL     1       3.675   2.951  19.048  0.00  0.00    +0.000 S 
ATOM     19  O   UNL     1       4.894   2.705  19.793  0.00  0.00    +0.000 OA
ATOM     20  O   UNL     1       3.370   2.180  17.858  0.00  0.00    +0.000 OA
ENDBRANCH   1  18
TORSDOF 3
ENDMDL
MODEL 9
REMARK VINA RESULT:      -7.2      3.581      4.484
REMARK  Name = 
REMARK  4 active torsions:
REMARK  status: ('A' for Active; 'I' for Inactive)
REMARK    1  A    between atoms: C_1  and  S_2
REMARK    2  A    between atoms: S_2  and  N_5
REMARK    3  A    between atoms: C_7  and  C_8
REMARK    4  A    between atoms: C_14  and  C_15
REMARK                            x       y       z     vdW  Elec       q    Type
REMARK                         _______ _______ _______ _____ _____    ______ ____
ROOT
ATOM      1  N   UNL     1       3.064   4.319  18.715  0.00  0.00    +0.000 N 
ATOM      2  N   UNL     1       2.063   5.273  19.100  0.00  0.00    +0.000 NA
ATOM      3  C   UNL     1       2.696   6.385  19.331  0.00  0.00    +0.000 C 
ATOM      4  C   UNL     1       4.198   6.314  19.211  0.00  0.00    +0.000 C 
ATOM      5  C   UNL     1       4.432   4.844  18.846  0.00  0.00    +0.000 C 
ENDROOT
BRANCH   5   6
ATOM      6  C   UNL     1       5.258   4.699  17.591  0.00  0.00    +0.000 A 
ATOM      7  C   UNL     1       6.653   4.586  17.672  0.00  0.00    +0.000 A 
ATOM      8  C   UNL     1       7.416   4.420  16.514  0.00  0.00    +0.000 A 
ATOM      9  C   UNL     1       6.797   4.368  15.267  0.00  0.00    +0.000 A 
ATOM     10  C   UNL     1       5.412   4.483  15.173  0.00  0.00    +0.000 A 
ATOM     11  C   UNL     1       4.647   4.646  16.328  0.00  0.00    +0.000 A 
ENDBRANCH   5   6
BRANCH   3  12
ATOM     12  C   UNL     1       1.989   7.599  19.669  0.00  0.00    +0.000 A 
ATOM     13  C   UNL     1       1.413   7.932  20.882  0.00  0.00    +0.000 A 
ATOM     14  C   UNL     1       0.764   9.200  20.852  0.00  0.00    +0.000 A 
ATOM     15  C   UNL     1       0.866   9.799  19.618  0.00  0.00    +0.000 A 
ATOM     16  S   UNL     1       1.744   8.838  18.512  0.00  0.00    +0.000 S 
ENDBRANCH   3  12
BRANCH   1  18
ATOM     17  C   UNL     1       1.515   2.377  19.776  0.00  0.00    +0.000 C 
ATOM     18  S   UNL     1       2.811   2.664  18.592  0.00  0.00    +0.000 S 
ATOM     19  O   UNL     1       4.004   1.991  19.065  0.00  0.00    +0.000 OA
ATOM     20  O   UNL     1       2.270   2.370  17.279  0.00  0.00    +0.000 OA
ENDBRANCH   1  18
TORSDOF 3
ENDMDL
