MODEL 1
REMARK VINA RESULT:      -7.7      0.000      0.000
REMARK  Name = 
REMARK  5 active torsions:
REMARK  status: ('A' for Active; 'I' for Inactive)
REMARK    1  A    between atoms: C_5  and  C_6
REMARK    2  A    between atoms: C_6  and  C_7
REMARK    3  A    between atoms: C_7  and  C_8
REMARK    4  A    between atoms: C_10  and  C_11
REMARK    5  A    between atoms: C_17  and  C_18
REMARK                            x       y       z     vdW  Elec       q    Type
REMARK                         _______ _______ _______ _____ _____    ______ ____
ROOT
ATOM      1  C   UNL     1       2.674   7.577  18.136  0.00  0.00    +0.000 C 
ATOM      2  N   UNL     1       3.967   7.771  18.199  0.00  0.00    +0.000 NA
ATOM      3  C   UNL     1       4.531   6.441  18.618  0.00  0.00    +0.000 C 
ATOM      4  C   UNL     1       3.305   5.637  19.190  0.00  0.00    +0.000 C 
ATOM      5  N   UNL     1       2.208   6.354  18.550  0.00  0.00    +0.000 N 
ATOM      6  H   UNL     1       1.297   6.280  18.982  0.00  0.00    +0.000 HD
ENDROOT
BRANCH   3   7
ATOM      7  C   UNL     1       5.257   5.803  17.441  0.00  0.00    +0.000 A 
ATOM      8  C   UNL     1       4.837   6.048  16.126  0.00  0.00    +0.000 A 
ATOM      9  C   UNL     1       5.549   5.516  15.049  0.00  0.00    +0.000 A 
ATOM     10  C   UNL     1       6.681   4.729  15.268  0.00  0.00    +0.000 A 
ATOM     11  C   UNL     1       7.096   4.462  16.568  0.00  0.00    +0.000 A 
ATOM     12  C   UNL     1       6.382   4.984  17.645  0.00  0.00    +0.000 A 
ENDBRANCH   3   7
BRANCH   4  13
ATOM     13  C   UNL     1       3.280   4.144  18.940  0.00  0.00    +0.000 A 
ATOM     14  C   UNL     1       4.028   3.290  19.770  0.00  0.00    +0.000 A 
ATOM     15  C   UNL     1       4.137   1.928  19.484  0.00  0.00    +0.000 A 
ATOM     16  C   UNL     1       3.476   1.391  18.382  0.00  0.00    +0.000 A 
ATOM     17  C   UNL     1       2.685   2.210  17.579  0.00  0.00    +0.000 A 
ATOM     18  C   UNL     1       2.585   3.574  17.858  0.00  0.00    +0.000 A 
ENDBRANCH   4  13
BRANCH   1  19
ATOM     19  C   UNL     1       1.786   8.639  17.535  0.00  0.00    +0.000 C 
BRANCH  19  20
ATOM     20  C   UNL     1       1.547   9.832  18.449  0.00  0.00    +0.000 C 
BRANCH  20  25
ATOM     21 CL   UNL     1      -4.189  11.690  18.346  0.00  0.00    +0.000 Cl
ATOM     22  C   UNL     1      -2.558  11.141  18.392  0.00  0.00    +0.000 A 
ATOM     23  C   UNL     1      -1.663  11.708  19.297  0.00  0.00    +0.000 A 
ATOM     24  C   UNL     1      -0.335  11.275  19.323  0.00  0.00    +0.000 A 
ATOM     25  C   UNL     1       0.106  10.281  18.435  0.00  0.00    +0.000 A 
ATOM     26  C   UNL     1      -0.812   9.704  17.547  0.00  0.00    +0.000 A 
ATOM     27  C   UNL     1      -2.140  10.137  17.521  0.00  0.00    +0.000 A 
ENDBRANCH  20  25
ENDBRANCH  19  20
ENDBRANCH   1  19
TORSDOF 5
ENDMDL
MODEL 2
REMARK VINA RESULT:      -7.7      0.074      1.341
REMARK  Name = 
REMARK  5 active torsions:
REMARK  status: ('A' for Active; 'I' for Inactive)
REMARK    1  A    between atoms: C_5  and  C_6
REMARK    2  A    between atoms: C_6  and  C_7
REMARK    3  A    between atoms: C_7  and  C_8
REMARK    4  A    between atoms: C_10  and  C_11
REMARK    5  A    between atoms: C_17  and  C_18
REMARK                            x       y       z     vdW  Elec       q    Type
REMARK                         _______ _______ _______ _____ _____    ______ ____
ROOT
ATOM      1  C   UNL     1       2.655   7.556  18.138  0.00  0.00    +0.000 C 
ATOM      2  N   UNL     1       3.944   7.768  18.219  0.00  0.00    +0.000 NA
ATOM      3  C   UNL     1       4.521   6.442  18.635  0.00  0.00    +0.000 C 
ATOM      4  C   UNL     1       3.299   5.617  19.184  0.00  0.00    +0.000 C 
ATOM      5  N   UNL     1       2.201   6.324  18.536  0.00  0.00    +0.000 N 
ATOM      6  H   UNL     1       1.285   6.233  18.955  0.00  0.00    +0.000 HD
ENDROOT
BRANCH   3   7
ATOM      7  C   UNL     1       5.272   5.824  17.463  0.00  0.00    +0.000 A 
ATOM      8  C   UNL     1       6.403   5.026  17.682  0.00  0.00    +0.000 A 
ATOM      9  C   UNL     1       7.047   4.406  16.608  0.00  0.00    +0.000 A 
ATOM     10  C   UNL     1       6.576   4.580  15.305  0.00  0.00    +0.000 A 
ATOM     11  C   UNL     1       5.467   5.386  15.073  0.00  0.00    +0.000 A 
ATOM     12  C   UNL     1       4.829   6.014  16.142  0.00  0.00    +0.000 A 
ENDBRANCH   3   7
BRANCH   4  13
ATOM     13  C   UNL     1       3.298   4.126  18.922  0.00  0.00    +0.000 A 
ATOM     14  C   UNL     1       4.064   3.278  19.743  0.00  0.00    +0.000 A 
ATOM     15  C   UNL     1       4.195   1.920  19.445  0.00  0.00    +0.000 A 
ATOM     16  C   UNL     1       3.539   1.381  18.342  0.00  0.00    +0.000 A 
ATOM     17  C   UNL     1       2.732   2.193  17.548  0.00  0.00    +0.000 A 
ATOM     18  C   UNL     1       2.610   3.553  17.838  0.00  0.00    +0.000 A 
ENDBRANCH   4  13
BRANCH   1  19
ATOM     19  C   UNL     1       1.761   8.611  17.533  0.00  0.00    +0.000 C 
BRANCH  19  20
ATOM     20  C   UNL     1       1.519   9.808  18.441  0.00  0.00    +0.000 C 
BRANCH  20  25
ATOM     21 CL   UNL     1      -4.229  11.624  18.306  0.00  0.00    +0.000 Cl
ATOM     22  C   UNL     1      -2.583  11.124  18.327  0.00  0.00    +0.000 A 
ATOM     23  C   UNL     1      -2.159  10.103  17.479  0.00  0.00    +0.000 A 
ATOM     24  C   UNL     1      -0.827   9.685  17.509  0.00  0.00    +0.000 A 
ATOM     25  C   UNL     1       0.086  10.278  18.395  0.00  0.00    +0.000 A 
ATOM     26  C   UNL     1      -0.350  11.320  19.225  0.00  0.00    +0.000 A 
ATOM     27  C   UNL     1      -1.683  11.739  19.195  0.00  0.00    +0.000 A 
ENDBRANCH  20  25
ENDBRANCH  19  20
ENDBRANCH   1  19
TORSDOF 5
ENDMDL
MODEL 3
REMARK VINA RESULT:      -7.6      0.197      1.352
REMARK  Name = 
REMARK  5 active torsions:
REMARK  status: ('A' for Active; 'I' for Inactive)
REMARK    1  A    between atoms: C_5  and  C_6
REMARK    2  A    between atoms: C_6  and  C_7
REMARK    3  A    between atoms: C_7  and  C_8
REMARK    4  A    between atoms: C_10  and  C_11
REMARK    5  A    between atoms: C_17  and  C_18
REMARK                            x       y       z     vdW  Elec       q    Type
REMARK                         _______ _______ _______ _____ _____    ______ ____
ROOT
ATOM      1  C   UNL     1       2.705   7.573  18.116  0.00  0.00    +0.000 C 
ATOM      2  N   UNL     1       3.989   7.821  18.156  0.00  0.00    +0.000 NA
ATOM      3  C   UNL     1       4.618   6.510  18.541  0.00  0.00    +0.000 C 
ATOM      4  C   UNL     1       3.439   5.645  19.123  0.00  0.00    +0.000 C 
ATOM      5  N   UNL     1       2.299   6.325  18.518  0.00  0.00    +0.000 N 
ATOM      6  H   UNL     1       1.401   6.205  18.966  0.00  0.00    +0.000 HD
ENDROOT
BRANCH   3   7
ATOM      7  C   UNL     1       5.346   5.923  17.339  0.00  0.00    +0.000 A 
ATOM      8  C   UNL     1       6.474   5.110  17.517  0.00  0.00    +0.000 A 
ATOM      9  C   UNL     1       7.097   4.519  16.415  0.00  0.00    +0.000 A 
ATOM     10  C   UNL     1       6.609   4.737  15.125  0.00  0.00    +0.000 A 
ATOM     11  C   UNL     1       5.503   5.558  14.935  0.00  0.00    +0.000 A 
ATOM     12  C   UNL     1       4.886   6.157  16.032  0.00  0.00    +0.000 A 
ENDBRANCH   3   7
BRANCH   4  13
ATOM     13  C   UNL     1       3.472   4.157  18.848  0.00  0.00    +0.000 A 
ATOM     14  C   UNL     1       2.698   3.629  17.799  0.00  0.00    +0.000 A 
ATOM     15  C   UNL     1       2.598   2.249  17.606  0.00  0.00    +0.000 A 
ATOM     16  C   UNL     1       3.295   1.376  18.438  0.00  0.00    +0.000 A 
ATOM     17  C   UNL     1       4.109   1.882  19.449  0.00  0.00    +0.000 A 
ATOM     18  C   UNL     1       4.201   3.260  19.649  0.00  0.00    +0.000 A 
ENDBRANCH   4  13
BRANCH   1  19
ATOM     19  C   UNL     1       1.761   8.606  17.551  0.00  0.00    +0.000 C 
BRANCH  19  20
ATOM     20  C   UNL     1       1.422   9.728  18.522  0.00  0.00    +0.000 C 
BRANCH  20  25
ATOM     21 CL   UNL     1      -4.252  11.666  17.881  0.00  0.00    +0.000 Cl
ATOM     22  C   UNL     1      -2.641  11.096  18.081  0.00  0.00    +0.000 A 
ATOM     23  C   UNL     1      -1.795  11.719  18.997  0.00  0.00    +0.000 A 
ATOM     24  C   UNL     1      -0.482  11.268  19.147  0.00  0.00    +0.000 A 
ATOM     25  C   UNL     1      -0.005  10.198  18.374  0.00  0.00    +0.000 A 
ATOM     26  C   UNL     1      -0.874   9.566  17.475  0.00  0.00    +0.000 A 
ATOM     27  C   UNL     1      -2.188  10.017  17.324  0.00  0.00    +0.000 A 
ENDBRANCH  20  25
ENDBRANCH  19  20
ENDBRANCH   1  19
TORSDOF 5
ENDMDL
MODEL 4
REMARK VINA RESULT:      -7.6      0.431      1.041
REMARK  Name = 
REMARK  5 active torsions:
REMARK  status: ('A' for Active; 'I' for Inactive)
REMARK    1  A    between atoms: C_5  and  C_6
REMARK    2  A    between atoms: C_6  and  C_7
REMARK    3  A    between atoms: C_7  and  C_8
REMARK    4  A    between atoms: C_10  and  C_11
REMARK    5  A    between atoms: C_17  and  C_18
REMARK                            x       y       z     vdW  Elec       q    Type
REMARK                         _______ _______ _______ _____ _____    ______ ____
ROOT
ATOM      1  C   UNL     1       2.639   7.452  18.112  0.00  0.00    +0.000 C 
ATOM      2  N   UNL     1       3.925   7.685  18.176  0.00  0.00    +0.000 NA
ATOM      3  C   UNL     1       4.525   6.377  18.616  0.00  0.00    +0.000 C 
ATOM      4  C   UNL     1       3.320   5.546  19.194  0.00  0.00    +0.000 C 
ATOM      5  N   UNL     1       2.206   6.223  18.541  0.00  0.00    +0.000 N 
ATOM      6  H   UNL     1       1.295   6.128  18.971  0.00  0.00    +0.000 HD
ENDROOT
BRANCH   3   7
ATOM      7  C   UNL     1       5.274   5.744  17.450  0.00  0.00    +0.000 A 
ATOM      8  C   UNL     1       4.855   5.962  16.131  0.00  0.00    +0.000 A 
ATOM      9  C   UNL     1       5.586   5.436  15.063  0.00  0.00    +0.000 A 
ATOM     10  C   UNL     1       6.737   4.681  15.298  0.00  0.00    +0.000 A 
ATOM     11  C   UNL     1       7.152   4.441  16.603  0.00  0.00    +0.000 A 
ATOM     12  C   UNL     1       6.418   4.957  17.670  0.00  0.00    +0.000 A 
ENDBRANCH   3   7
BRANCH   4  13
ATOM     13  C   UNL     1       3.339   4.050  18.965  0.00  0.00    +0.000 A 
ATOM     14  C   UNL     1       4.083   3.226  19.829  0.00  0.00    +0.000 A 
ATOM     15  C   UNL     1       4.234   1.863  19.566  0.00  0.00    +0.000 A 
ATOM     16  C   UNL     1       3.618   1.295  18.453  0.00  0.00    +0.000 A 
ATOM     17  C   UNL     1       2.833   2.084  17.616  0.00  0.00    +0.000 A 
ATOM     18  C   UNL     1       2.691   3.448  17.872  0.00  0.00    +0.000 A 
ENDBRANCH   4  13
BRANCH   1  19
ATOM     19  C   UNL     1       1.723   8.480  17.493  0.00  0.00    +0.000 C 
BRANCH  19  20
ATOM     20  C   UNL     1       1.837   9.863  18.117  0.00  0.00    +0.000 C 
BRANCH  20  25
ATOM     21 CL   UNL     1      -3.570  12.169  19.461  0.00  0.00    +0.000 Cl
ATOM     22  C   UNL     1      -2.024  11.529  19.060  0.00  0.00    +0.000 A 
ATOM     23  C   UNL     1      -1.919  10.521  18.103  0.00  0.00    +0.000 A 
ATOM     24  C   UNL     1      -0.666   9.990  17.790  0.00  0.00    +0.000 A 
ATOM     25  C   UNL     1       0.487  10.456  18.441  0.00  0.00    +0.000 A 
ATOM     26  C   UNL     1       0.369  11.487  19.383  0.00  0.00    +0.000 A 
ATOM     27  C   UNL     1      -0.885  12.019  19.696  0.00  0.00    +0.000 A 
ENDBRANCH  20  25
ENDBRANCH  19  20
ENDBRANCH   1  19
TORSDOF 5
ENDMDL
MODEL 5
REMARK VINA RESULT:      -7.6      3.400      8.414
REMARK  Name = 
REMARK  5 active torsions:
REMARK  status: ('A' for Active; 'I' for Inactive)
REMARK    1  A    between atoms: C_5  and  C_6
REMARK    2  A    between atoms: C_6  and  C_7
REMARK    3  A    between atoms: C_7  and  C_8
REMARK    4  A    between atoms: C_10  and  C_11
REMARK    5  A    between atoms: C_17  and  C_18
REMARK                            x       y       z     vdW  Elec       q    Type
REMARK                         _______ _______ _______ _____ _____    ______ ____
ROOT
ATOM      1  C   UNL     1       1.511   9.522  18.089  0.00  0.00    +0.000 C 
ATOM      2  N   UNL     1       1.914  10.368  19.002  0.00  0.00    +0.000 NA
ATOM      3  C   UNL     1       0.716  11.238  19.269  0.00  0.00    +0.000 C 
ATOM      4  C   UNL     1      -0.245  10.999  18.046  0.00  0.00    +0.000 C 
ATOM      5  N   UNL     1       0.252   9.711  17.577  0.00  0.00    +0.000 N 
ATOM      6  H   UNL     1       0.053   9.464  16.617  0.00  0.00    +0.000 HD
ENDROOT
BRANCH   3   7
ATOM      7  C   UNL     1       0.144  10.907  20.642  0.00  0.00    +0.000 A 
ATOM      8  C   UNL     1      -0.335  11.924  21.478  0.00  0.00    +0.000 A 
ATOM      9  C   UNL     1      -0.921  11.608  22.707  0.00  0.00    +0.000 A 
ATOM     10  C   UNL     1      -1.028  10.279  23.119  0.00  0.00    +0.000 A 
ATOM     11  C   UNL     1      -0.537   9.262  22.307  0.00  0.00    +0.000 A 
ATOM     12  C   UNL     1       0.056   9.575  21.085  0.00  0.00    +0.000 A 
ENDBRANCH   3   7
BRANCH   4  13
ATOM     13  C   UNL     1      -1.733  11.010  18.324  0.00  0.00    +0.000 A 
ATOM     14  C   UNL     1      -2.532   9.949  17.861  0.00  0.00    +0.000 A 
ATOM     15  C   UNL     1      -3.923   9.994  17.979  0.00  0.00    +0.000 A 
ATOM     16  C   UNL     1      -4.536  11.085  18.590  0.00  0.00    +0.000 A 
ATOM     17  C   UNL     1      -3.759  12.121  19.103  0.00  0.00    +0.000 A 
ATOM     18  C   UNL     1      -2.369  12.081  18.976  0.00  0.00    +0.000 A 
ENDBRANCH   4  13
BRANCH   1  19
ATOM     19  C   UNL     1       2.384   8.346  17.721  0.00  0.00    +0.000 C 
BRANCH  19  20
ATOM     20  C   UNL     1       2.887   7.554  18.919  0.00  0.00    +0.000 C 
BRANCH  20  25
ATOM     21 CL   UNL     1       0.617   1.968  19.011  0.00  0.00    +0.000 Cl
ATOM     22  C   UNL     1       1.288   3.552  18.989  0.00  0.00    +0.000 A 
ATOM     23  C   UNL     1       1.337   4.300  20.164  0.00  0.00    +0.000 A 
ATOM     24  C   UNL     1       1.865   5.592  20.143  0.00  0.00    +0.000 A 
ATOM     25  C   UNL     1       2.338   6.148  18.943  0.00  0.00    +0.000 A 
ATOM     26  C   UNL     1       2.305   5.375  17.775  0.00  0.00    +0.000 A 
ATOM     27  C   UNL     1       1.776   4.082  17.796  0.00  0.00    +0.000 A 
ENDBRANCH  20  25
ENDBRANCH  19  20
ENDBRANCH   1  19
TORSDOF 5
ENDMDL
MODEL 6
REMARK VINA RESULT:      -7.6      3.395      8.505
REMARK  Name = 
REMARK  5 active torsions:
REMARK  status: ('A' for Active; 'I' for Inactive)
REMARK    1  A    between atoms: C_5  and  C_6
REMARK    2  A    between atoms: C_6  and  C_7
REMARK    3  A    between atoms: C_7  and  C_8
REMARK    4  A    between atoms: C_10  and  C_11
REMARK    5  A    between atoms: C_17  and  C_18
REMARK                            x       y       z     vdW  Elec       q    Type
REMARK                         _______ _______ _______ _____ _____    ______ ____
ROOT
ATOM      1  C   UNL     1       1.279   9.584  17.970  0.00  0.00    +0.000 C 
ATOM      2  N   UNL     1       1.753  10.250  18.992  0.00  0.00    +0.000 NA
ATOM      3  C   UNL     1       0.625  11.151  19.415  0.00  0.00    +0.000 C 
ATOM      4  C   UNL     1      -0.364  11.173  18.191  0.00  0.00    +0.000 C 
ATOM      5  N   UNL     1       0.032   9.940  17.520  0.00  0.00    +0.000 N 
ATOM      6  H   UNL     1      -0.195   9.858  16.538  0.00  0.00    +0.000 HD
ENDROOT
BRANCH   3   7
ATOM      7  C   UNL     1       0.045  10.655  20.733  0.00  0.00    +0.000 A 
ATOM      8  C   UNL     1      -0.060   9.282  20.994  0.00  0.00    +0.000 A 
ATOM      9  C   UNL     1      -0.528   8.834  22.232  0.00  0.00    +0.000 A 
ATOM     10  C   UNL     1      -0.905   9.747  23.219  0.00  0.00    +0.000 A 
ATOM     11  C   UNL     1      -0.825  11.111  22.964  0.00  0.00    +0.000 A 
ATOM     12  C   UNL     1      -0.367  11.561  21.726  0.00  0.00    +0.000 A 
ENDBRANCH   3   7
BRANCH   4  13
ATOM     13  C   UNL     1      -1.844  11.247  18.499  0.00  0.00    +0.000 A 
ATOM     14  C   UNL     1      -2.719  10.309  17.922  0.00  0.00    +0.000 A 
ATOM     15  C   UNL     1      -4.102  10.431  18.074  0.00  0.00    +0.000 A 
ATOM     16  C   UNL     1      -4.632  11.474  18.831  0.00  0.00    +0.000 A 
ATOM     17  C   UNL     1      -3.779  12.381  19.455  0.00  0.00    +0.000 A 
ATOM     18  C   UNL     1      -2.397  12.266  19.294  0.00  0.00    +0.000 A 
ENDBRANCH   4  13
BRANCH   1  19
ATOM     19  C   UNL     1       2.058   8.420  17.409  0.00  0.00    +0.000 C 
BRANCH  19  20
ATOM     20  C   UNL     1       3.013   7.780  18.406  0.00  0.00    +0.000 C 
BRANCH  20  25
ATOM     21 CL   UNL     1       1.029   2.474  20.473  0.00  0.00    +0.000 Cl
ATOM     22  C   UNL     1       1.571   3.995  19.878  0.00  0.00    +0.000 A 
ATOM     23  C   UNL     1       1.910   4.132  18.534  0.00  0.00    +0.000 A 
ATOM     24  C   UNL     1       2.367   5.362  18.055  0.00  0.00    +0.000 A 
ATOM     25  C   UNL     1       2.497   6.459  18.921  0.00  0.00    +0.000 A 
ATOM     26  C   UNL     1       2.129   6.312  20.265  0.00  0.00    +0.000 A 
ATOM     27  C   UNL     1       1.672   5.082  20.745  0.00  0.00    +0.000 A 
ENDBRANCH  20  25
ENDBRANCH  19  20
ENDBRANCH   1  19
TORSDOF 5
ENDMDL
MODEL 7
REMARK VINA RESULT:      -7.6      1.526      1.873
REMARK  Name = 
REMARK  5 active torsions:
REMARK  status: ('A' for Active; 'I' for Inactive)
REMARK    1  A    between atoms: C_5  and  C_6
REMARK    2  A    between atoms: C_6  and  C_7
REMARK    3  A    between atoms: C_7  and  C_8
REMARK    4  A    between atoms: C_10  and  C_11
REMARK    5  A    between atoms: C_17  and  C_18
REMARK                            x       y       z     vdW  Elec       q    Type
REMARK                         _______ _______ _______ _____ _____    ______ ____
ROOT
ATOM      1  C   UNL     1       2.581   7.444  18.155  0.00  0.00    +0.000 C 
ATOM      2  N   UNL     1       3.864   7.692  18.228  0.00  0.00    +0.000 NA
ATOM      3  C   UNL     1       4.479   6.388  18.657  0.00  0.00    +0.000 C 
ATOM      4  C   UNL     1       3.282   5.536  19.221  0.00  0.00    +0.000 C 
ATOM      5  N   UNL     1       2.162   6.205  18.570  0.00  0.00    +0.000 N 
ATOM      6  H   UNL     1       1.251   6.094  18.994  0.00  0.00    +0.000 HD
ENDROOT
BRANCH   3   7
ATOM      7  C   UNL     1       5.241   5.777  17.489  0.00  0.00    +0.000 A 
ATOM      8  C   UNL     1       4.822   5.998  16.170  0.00  0.00    +0.000 A 
ATOM      9  C   UNL     1       5.565   5.492  15.100  0.00  0.00    +0.000 A 
ATOM     10  C   UNL     1       6.728   4.755  15.332  0.00  0.00    +0.000 A 
ATOM     11  C   UNL     1       7.142   4.512  16.637  0.00  0.00    +0.000 A 
ATOM     12  C   UNL     1       6.398   5.007  17.706  0.00  0.00    +0.000 A 
ENDBRANCH   3   7
BRANCH   4  13
ATOM     13  C   UNL     1       3.321   4.042  18.977  0.00  0.00    +0.000 A 
ATOM     14  C   UNL     1       4.090   3.222  19.822  0.00  0.00    +0.000 A 
ATOM     15  C   UNL     1       4.259   1.864  19.544  0.00  0.00    +0.000 A 
ATOM     16  C   UNL     1       3.637   1.297  18.434  0.00  0.00    +0.000 A 
ATOM     17  C   UNL     1       2.828   2.082  17.615  0.00  0.00    +0.000 A 
ATOM     18  C   UNL     1       2.668   3.441  17.887  0.00  0.00    +0.000 A 
ENDBRANCH   4  13
BRANCH   1  19
ATOM     19  C   UNL     1       1.655   8.466  17.542  0.00  0.00    +0.000 C 
BRANCH  19  20
ATOM     20  C   UNL     1       1.839   9.873  18.092  0.00  0.00    +0.000 C 
BRANCH  20  25
ATOM     21 CL   UNL     1      -1.341  10.849  23.122  0.00  0.00    +0.000 Cl
ATOM     22  C   UNL     1      -0.452  10.556  21.678  0.00  0.00    +0.000 A 
ATOM     23  C   UNL     1       0.464   9.507  21.630  0.00  0.00    +0.000 A 
ATOM     24  C   UNL     1       1.198   9.280  20.464  0.00  0.00    +0.000 A 
ATOM     25  C   UNL     1       1.027  10.107  19.343  0.00  0.00    +0.000 A 
ATOM     26  C   UNL     1       0.084  11.142  19.398  0.00  0.00    +0.000 A 
ATOM     27  C   UNL     1      -0.650  11.370  20.565  0.00  0.00    +0.000 A 
ENDBRANCH  20  25
ENDBRANCH  19  20
ENDBRANCH   1  19
TORSDOF 5
ENDMDL
MODEL 8
REMARK VINA RESULT:      -7.6      0.158      1.347
REMARK  Name = 
REMARK  5 active torsions:
REMARK  status: ('A' for Active; 'I' for Inactive)
REMARK    1  A    between atoms: C_5  and  C_6
REMARK    2  A    between atoms: C_6  and  C_7
REMARK    3  A    between atoms: C_7  and  C_8
REMARK    4  A    between atoms: C_10  and  C_11
REMARK    5  A    between atoms: C_17  and  C_18
REMARK                            x       y       z     vdW  Elec       q    Type
REMARK                         _______ _______ _______ _____ _____    ______ ____
ROOT
ATOM      1  C   UNL     1       2.742   7.534  18.121  0.00  0.00    +0.000 C 
ATOM      2  N   UNL     1       4.031   7.765  18.130  0.00  0.00    +0.000 NA
ATOM      3  C   UNL     1       4.649   6.449  18.519  0.00  0.00    +0.000 C 
ATOM      4  C   UNL     1       3.471   5.609  19.138  0.00  0.00    +0.000 C 
ATOM      5  N   UNL     1       2.328   6.298  18.549  0.00  0.00    +0.000 N 
ATOM      6  H   UNL     1       1.439   6.196  19.018  0.00  0.00    +0.000 HD
ENDROOT
BRANCH   3   7
ATOM      7  C   UNL     1       5.342   5.836  17.309  0.00  0.00    +0.000 A 
ATOM      8  C   UNL     1       4.874   6.094  16.013  0.00  0.00    +0.000 A 
ATOM      9  C   UNL     1       5.555   5.585  14.904  0.00  0.00    +0.000 A 
ATOM     10  C   UNL     1       6.704   4.810  15.074  0.00  0.00    +0.000 A 
ATOM     11  C   UNL     1       7.165   4.530  16.355  0.00  0.00    +0.000 A 
ATOM     12  C   UNL     1       6.482   5.029  17.463  0.00  0.00    +0.000 A 
ENDBRANCH   3   7
BRANCH   4  13
ATOM     13  C   UNL     1       3.477   4.117  18.882  0.00  0.00    +0.000 A 
ATOM     14  C   UNL     1       2.655   3.584  17.873  0.00  0.00    +0.000 A 
ATOM     15  C   UNL     1       2.532   2.204  17.703  0.00  0.00    +0.000 A 
ATOM     16  C   UNL     1       3.254   1.333  18.517  0.00  0.00    +0.000 A 
ATOM     17  C   UNL     1       4.115   1.843  19.486  0.00  0.00    +0.000 A 
ATOM     18  C   UNL     1       4.229   3.223  19.664  0.00  0.00    +0.000 A 
ENDBRANCH   4  13
BRANCH   1  19
ATOM     19  C   UNL     1       1.800   8.573  17.564  0.00  0.00    +0.000 C 
BRANCH  19  20
ATOM     20  C   UNL     1       1.529   9.732  18.512  0.00  0.00    +0.000 C 
BRANCH  20  25
ATOM     21 CL   UNL     1      -4.181  11.642  18.182  0.00  0.00    +0.000 Cl
ATOM     22  C   UNL     1      -2.545  11.114  18.259  0.00  0.00    +0.000 A 
ATOM     23  C   UNL     1      -2.114  10.072  17.440  0.00  0.00    +0.000 A 
ATOM     24  C   UNL     1      -0.791   9.632  17.514  0.00  0.00    +0.000 A 
ATOM     25  C   UNL     1       0.106  10.225  18.417  0.00  0.00    +0.000 A 
ATOM     26  C   UNL     1      -0.335  11.288  19.217  0.00  0.00    +0.000 A 
ATOM     27  C   UNL     1      -1.659  11.729  19.142  0.00  0.00    +0.000 A 
ENDBRANCH  20  25
ENDBRANCH  19  20
ENDBRANCH   1  19
TORSDOF 5
ENDMDL
MODEL 9
REMARK VINA RESULT:      -7.5      1.656      2.119
REMARK  Name = 
REMARK  5 active torsions:
REMARK  status: ('A' for Active; 'I' for Inactive)
REMARK    1  A    between atoms: C_5  and  C_6
REMARK    2  A    between atoms: C_6  and  C_7
REMARK    3  A    between atoms: C_7  and  C_8
REMARK    4  A    between atoms: C_10  and  C_11
REMARK    5  A    between atoms: C_17  and  C_18
REMARK                            x       y       z     vdW  Elec       q    Type
REMARK                         _______ _______ _______ _____ _____    ______ ____
ROOT
ATOM      1  C   UNL     1       2.714   7.396  18.113  0.00  0.00    +0.000 C 
ATOM      2  N   UNL     1       3.992   7.677  18.099  0.00  0.00    +0.000 NA
ATOM      3  C   UNL     1       4.667   6.394  18.501  0.00  0.00    +0.000 C 
ATOM      4  C   UNL     1       3.532   5.520  19.152  0.00  0.00    +0.000 C 
ATOM      5  N   UNL     1       2.355   6.152  18.568  0.00  0.00    +0.000 N 
ATOM      6  H   UNL     1       1.477   6.023  19.052  0.00  0.00    +0.000 HD
ENDROOT
BRANCH   3   7
ATOM      7  C   UNL     1       5.368   5.788  17.292  0.00  0.00    +0.000 A 
ATOM      8  C   UNL     1       4.906   6.050  15.995  0.00  0.00    +0.000 A 
ATOM      9  C   UNL     1       5.594   5.548  14.888  0.00  0.00    +0.000 A 
ATOM     10  C   UNL     1       6.742   4.772  15.060  0.00  0.00    +0.000 A 
ATOM     11  C   UNL     1       7.197   4.488  16.342  0.00  0.00    +0.000 A 
ATOM     12  C   UNL     1       6.508   4.981  17.449  0.00  0.00    +0.000 A 
ENDBRANCH   3   7
BRANCH   4  13
ATOM     13  C   UNL     1       3.594   4.025  18.922  0.00  0.00    +0.000 A 
ATOM     14  C   UNL     1       2.818   3.449  17.900  0.00  0.00    +0.000 A 
ATOM     15  C   UNL     1       2.746   2.062  17.751  0.00  0.00    +0.000 A 
ATOM     16  C   UNL     1       3.472   1.230  18.599  0.00  0.00    +0.000 A 
ATOM     17  C   UNL     1       4.289   1.783  19.583  0.00  0.00    +0.000 A 
ATOM     18  C   UNL     1       4.353   3.169  19.740  0.00  0.00    +0.000 A 
ENDBRANCH   4  13
BRANCH   1  19
ATOM     19  C   UNL     1       1.724   8.387  17.551  0.00  0.00    +0.000 C 
BRANCH  19  20
ATOM     20  C   UNL     1       1.892   9.800  18.091  0.00  0.00    +0.000 C 
BRANCH  20  25
ATOM     21 CL   UNL     1      -1.231  10.635  23.181  0.00  0.00    +0.000 Cl
ATOM     22  C   UNL     1      -0.319  10.406  21.740  0.00  0.00    +0.000 A 
ATOM     23  C   UNL     1      -0.279  11.413  20.778  0.00  0.00    +0.000 A 
ATOM     24  C   UNL     1       0.447  11.221  19.601  0.00  0.00    +0.000 A 
ATOM     25  C   UNL     1       1.128  10.014  19.375  0.00  0.00    +0.000 A 
ATOM     26  C   UNL     1       1.098   9.020  20.361  0.00  0.00    +0.000 A 
ATOM     27  C   UNL     1       0.372   9.212  21.540  0.00  0.00    +0.000 A 
ENDBRANCH  20  25
ENDBRANCH  19  20
ENDBRANCH   1  19
TORSDOF 5
ENDMDL
