MODEL 1
REMARK VINA RESULT:      -8.5      0.000      0.000
REMARK  Name = 
REMARK  4 active torsions:
REMARK  status: ('A' for Active; 'I' for Inactive)
REMARK    1  A    between atoms: C_1  and  C_2
REMARK    2  A    between atoms: C_2  and  C_3
REMARK    3  A    between atoms: C_3  and  S_4
REMARK    4  A    between atoms: S_4  and  C_7
REMARK                            x       y       z     vdW  Elec       q    Type
REMARK                         _______ _______ _______ _____ _____    ______ ____
ROOT
ATOM      1  C   UNL     1       7.495   6.792  17.627  0.00  0.00    +0.000 C 
ATOM      2  C   UNL     1       6.438   5.701  17.429  0.00  0.00    +0.000 C 
ATOM      3  C   UNL     1       5.463   6.105  16.296  0.00  0.00    +0.000 C 
ATOM      4  O   UNL     1       6.104   6.121  15.012  0.00  0.00    +0.000 OA
ATOM      5  C   UNL     1       6.832   4.907  14.769  0.00  0.00    +0.000 C 
ATOM      6  C   UNL     1       7.588   5.086  13.439  0.00  0.00    +0.000 C 
ATOM      7  C   UNL     1       7.055   4.011  12.495  0.00  0.00    +0.000 C 
ATOM      8  C   UNL     1       5.687   3.659  13.047  0.00  0.00    +0.000 C 
ATOM      9  C   UNL     1       5.922   3.682  14.548  0.00  0.00    +0.000 C 
ATOM     10  O   UNL     1       7.789   4.688  15.808  0.00  0.00    +0.000 OA
ATOM     11  O   UNL     1       7.037   4.454  17.043  0.00  0.00    +0.000 OA
ENDROOT
BRANCH   2  12
ATOM     12  C   UNL     1       5.691   5.466  18.757  0.00  0.00    +0.000 C 
BRANCH  12  13
ATOM     13  S   UNL     1       4.008   4.875  18.514  0.00  0.00    +0.000 S 
ATOM     14  O   UNL     1       3.772   4.619  17.119  0.00  0.00    +0.000 OA
ATOM     15  O   UNL     1       3.716   3.866  19.531  0.00  0.00    +0.000 OA
BRANCH  13  16
ATOM     16  C   UNL     1       3.005   6.287  18.922  0.00  0.00    +0.000 A 
ATOM     17  C   UNL     1       2.870   7.323  17.994  0.00  0.00    +0.000 A 
ATOM     18  C   UNL     1       2.141   8.462  18.339  0.00  0.00    +0.000 A 
ATOM     19  C   UNL     1       1.532   8.541  19.592  0.00  0.00    +0.000 A 
ATOM     20 CL   UNL     1       0.649   9.953  20.024  0.00  0.00    +0.000 Cl
ATOM     21  C   UNL     1       1.653   7.496  20.508  0.00  0.00    +0.000 A 
ATOM     22  C   UNL     1       2.388   6.359  20.177  0.00  0.00    +0.000 A 
ENDBRANCH  13  16
ENDBRANCH  12  13
ENDBRANCH   2  12
TORSDOF 3
ENDMDL
MODEL 2
REMARK VINA RESULT:      -8.4      0.171      1.050
REMARK  Name = 
REMARK  4 active torsions:
REMARK  status: ('A' for Active; 'I' for Inactive)
REMARK    1  A    between atoms: C_1  and  C_2
REMARK    2  A    between atoms: C_2  and  C_3
REMARK    3  A    between atoms: C_3  and  S_4
REMARK    4  A    between atoms: S_4  and  C_7
REMARK                            x       y       z     vdW  Elec       q    Type
REMARK                         _______ _______ _______ _____ _____    ______ ____
ROOT
ATOM      1  C   UNL     1       7.525   6.862  17.408  0.00  0.00    +0.000 C 
ATOM      2  C   UNL     1       6.472   5.758  17.273  0.00  0.00    +0.000 C 
ATOM      3  C   UNL     1       5.464   6.119  16.155  0.00  0.00    +0.000 C 
ATOM      4  O   UNL     1       6.071   6.099  14.853  0.00  0.00    +0.000 OA
ATOM      5  C   UNL     1       6.801   4.882  14.630  0.00  0.00    +0.000 C 
ATOM      6  C   UNL     1       7.520   5.024  13.275  0.00  0.00    +0.000 C 
ATOM      7  C   UNL     1       6.970   3.916  12.380  0.00  0.00    +0.000 C 
ATOM      8  C   UNL     1       5.621   3.572  12.980  0.00  0.00    +0.000 C 
ATOM      9  C   UNL     1       5.895   3.645  14.472  0.00  0.00    +0.000 C 
ATOM     10  O   UNL     1       7.788   4.703  15.649  0.00  0.00    +0.000 OA
ATOM     11  O   UNL     1       7.070   4.503  16.911  0.00  0.00    +0.000 OA
ENDROOT
BRANCH   2  12
ATOM     12  C   UNL     1       5.763   5.560  18.628  0.00  0.00    +0.000 C 
BRANCH  12  13
ATOM     13  S   UNL     1       4.064   4.994  18.446  0.00  0.00    +0.000 S 
ATOM     14  O   UNL     1       3.782   4.710  17.066  0.00  0.00    +0.000 OA
ATOM     15  O   UNL     1       3.784   4.015  19.495  0.00  0.00    +0.000 OA
BRANCH  13  16
ATOM     16  C   UNL     1       3.097   6.433  18.850  0.00  0.00    +0.000 A 
ATOM     17  C   UNL     1       2.457   6.503  20.090  0.00  0.00    +0.000 A 
ATOM     18  C   UNL     1       1.643   7.598  20.381  0.00  0.00    +0.000 A 
ATOM     19  C   UNL     1       1.500   8.623  19.445  0.00  0.00    +0.000 A 
ATOM     20 CL   UNL     1       0.482   9.964  19.796  0.00  0.00    +0.000 Cl
ATOM     21  C   UNL     1       2.156   8.559  18.216  0.00  0.00    +0.000 A 
ATOM     22  C   UNL     1       2.963   7.463  17.912  0.00  0.00    +0.000 A 
ENDBRANCH  13  16
ENDBRANCH  12  13
ENDBRANCH   2  12
TORSDOF 3
ENDMDL
MODEL 3
REMARK VINA RESULT:      -8.4      2.568      3.071
REMARK  Name = 
REMARK  4 active torsions:
REMARK  status: ('A' for Active; 'I' for Inactive)
REMARK    1  A    between atoms: C_1  and  C_2
REMARK    2  A    between atoms: C_2  and  C_3
REMARK    3  A    between atoms: C_3  and  S_4
REMARK    4  A    between atoms: S_4  and  C_7
REMARK                            x       y       z     vdW  Elec       q    Type
REMARK                         _______ _______ _______ _____ _____    ______ ____
ROOT
ATOM      1  C   UNL     1       7.233   6.580  17.405  0.00  0.00    +0.000 C 
ATOM      2  C   UNL     1       6.171   5.538  17.040  0.00  0.00    +0.000 C 
ATOM      3  C   UNL     1       5.348   6.023  15.821  0.00  0.00    +0.000 C 
ATOM      4  O   UNL     1       6.135   6.067  14.621  0.00  0.00    +0.000 OA
ATOM      5  C   UNL     1       6.846   4.837  14.410  0.00  0.00    +0.000 C 
ATOM      6  C   UNL     1       7.757   5.040  13.185  0.00  0.00    +0.000 C 
ATOM      7  C   UNL     1       7.302   4.024  12.139  0.00  0.00    +0.000 C 
ATOM      8  C   UNL     1       5.869   3.702  12.515  0.00  0.00    +0.000 C 
ATOM      9  C   UNL     1       5.928   3.657  14.032  0.00  0.00    +0.000 C 
ATOM     10  O   UNL     1       7.668   4.540  15.542  0.00  0.00    +0.000 OA
ATOM     11  O   UNL     1       6.770   4.286  16.670  0.00  0.00    +0.000 OA
ENDROOT
BRANCH   2  12
ATOM     12  C   UNL     1       5.267   5.279  18.262  0.00  0.00    +0.000 C 
BRANCH  12  13
ATOM     13  S   UNL     1       3.543   5.026  17.810  0.00  0.00    +0.000 S 
ATOM     14  O   UNL     1       2.866   6.290  17.716  0.00  0.00    +0.000 OA
ATOM     15  O   UNL     1       3.484   4.050  16.723  0.00  0.00    +0.000 OA
BRANCH  13  16
ATOM     16  C   UNL     1       2.852   4.213  19.235  0.00  0.00    +0.000 A 
ATOM     17  C   UNL     1       3.617   3.269  19.923  0.00  0.00    +0.000 A 
ATOM     18  C   UNL     1       3.053   2.580  20.998  0.00  0.00    +0.000 A 
ATOM     19  C   UNL     1       1.744   2.862  21.391  0.00  0.00    +0.000 A 
ATOM     20 CL   UNL     1       1.042   2.001  22.703  0.00  0.00    +0.000 Cl
ATOM     21  C   UNL     1       0.990   3.820  20.713  0.00  0.00    +0.000 A 
ATOM     22  C   UNL     1       1.541   4.505  19.631  0.00  0.00    +0.000 A 
ENDBRANCH  13  16
ENDBRANCH  12  13
ENDBRANCH   2  12
TORSDOF 3
ENDMDL
MODEL 4
REMARK VINA RESULT:      -8.3      2.679      3.089
REMARK  Name = 
REMARK  4 active torsions:
REMARK  status: ('A' for Active; 'I' for Inactive)
REMARK    1  A    between atoms: C_1  and  C_2
REMARK    2  A    between atoms: C_2  and  C_3
REMARK    3  A    between atoms: C_3  and  S_4
REMARK    4  A    between atoms: S_4  and  C_7
REMARK                            x       y       z     vdW  Elec       q    Type
REMARK                         _______ _______ _______ _____ _____    ______ ____
ROOT
ATOM      1  C   UNL     1       7.148   6.482  17.491  0.00  0.00    +0.000 C 
ATOM      2  C   UNL     1       6.105   5.444  17.068  0.00  0.00    +0.000 C 
ATOM      3  C   UNL     1       5.305   5.962  15.847  0.00  0.00    +0.000 C 
ATOM      4  O   UNL     1       6.119   6.051  14.667  0.00  0.00    +0.000 OA
ATOM      5  C   UNL     1       6.846   4.834  14.433  0.00  0.00    +0.000 C 
ATOM      6  C   UNL     1       7.783   5.085  13.237  0.00  0.00    +0.000 C 
ATOM      7  C   UNL     1       7.362   4.100  12.149  0.00  0.00    +0.000 C 
ATOM      8  C   UNL     1       5.924   3.754  12.480  0.00  0.00    +0.000 C 
ATOM      9  C   UNL     1       5.948   3.660  13.996  0.00  0.00    +0.000 C 
ATOM     10  O   UNL     1       7.645   4.508  15.574  0.00  0.00    +0.000 OA
ATOM     11  O   UNL     1       6.723   4.210  16.672  0.00  0.00    +0.000 OA
ENDROOT
BRANCH   2  12
ATOM     12  C   UNL     1       5.175   5.138  18.259  0.00  0.00    +0.000 C 
BRANCH  12  13
ATOM     13  S   UNL     1       3.466   4.879  17.759  0.00  0.00    +0.000 S 
ATOM     14  O   UNL     1       2.777   6.138  17.683  0.00  0.00    +0.000 OA
ATOM     15  O   UNL     1       3.444   3.933  16.645  0.00  0.00    +0.000 OA
BRANCH  13  16
ATOM     16  C   UNL     1       2.750   4.020  19.144  0.00  0.00    +0.000 A 
ATOM     17  C   UNL     1       1.379   4.134  19.386  0.00  0.00    +0.000 A 
ATOM     18  C   UNL     1       0.828   3.518  20.511  0.00  0.00    +0.000 A 
ATOM     19  C   UNL     1       1.644   2.772  21.363  0.00  0.00    +0.000 A 
ATOM     20 CL   UNL     1       0.968   2.029  22.759  0.00  0.00    +0.000 Cl
ATOM     21  C   UNL     1       3.009   2.645  21.105  0.00  0.00    +0.000 A 
ATOM     22  C   UNL     1       3.571   3.266  19.991  0.00  0.00    +0.000 A 
ENDBRANCH  13  16
ENDBRANCH  12  13
ENDBRANCH   2  12
TORSDOF 3
ENDMDL
MODEL 5
REMARK VINA RESULT:      -8.0      3.471      6.852
REMARK  Name = 
REMARK  4 active torsions:
REMARK  status: ('A' for Active; 'I' for Inactive)
REMARK    1  A    between atoms: C_1  and  C_2
REMARK    2  A    between atoms: C_2  and  C_3
REMARK    3  A    between atoms: C_3  and  S_4
REMARK    4  A    between atoms: S_4  and  C_7
REMARK                            x       y       z     vdW  Elec       q    Type
REMARK                         _______ _______ _______ _____ _____    ______ ____
ROOT
ATOM      1  C   UNL     1       6.230   5.251  19.387  0.00  0.00    +0.000 C 
ATOM      2  C   UNL     1       5.034   5.280  18.430  0.00  0.00    +0.000 C 
ATOM      3  C   UNL     1       4.609   3.835  18.069  0.00  0.00    +0.000 C 
ATOM      4  O   UNL     1       4.061   3.135  19.196  0.00  0.00    +0.000 OA
ATOM      5  C   UNL     1       3.047   3.909  19.856  0.00  0.00    +0.000 C 
ATOM      6  C   UNL     1       2.630   3.133  21.119  0.00  0.00    +0.000 C 
ATOM      7  C   UNL     1       1.146   2.811  20.955  0.00  0.00    +0.000 C 
ATOM      8  C   UNL     1       0.906   2.864  19.459  0.00  0.00    +0.000 C 
ATOM      9  C   UNL     1       1.752   4.051  19.031  0.00  0.00    +0.000 C 
ATOM     10  O   UNL     1       3.574   5.177  20.257  0.00  0.00    +0.000 OA
ATOM     11  O   UNL     1       3.896   5.914  19.033  0.00  0.00    +0.000 OA
ENDROOT
BRANCH   2  12
ATOM     12  C   UNL     1       5.405   6.089  17.172  0.00  0.00    +0.000 C 
BRANCH  12  13
ATOM     13  S   UNL     1       7.000   5.613  16.485  0.00  0.00    +0.000 S 
ATOM     14  O   UNL     1       7.762   6.785  16.148  0.00  0.00    +0.000 OA
ATOM     15  O   UNL     1       7.567   4.551  17.313  0.00  0.00    +0.000 OA
BRANCH  13  16
ATOM     16  C   UNL     1       6.577   4.851  14.933  0.00  0.00    +0.000 A 
ATOM     17  C   UNL     1       5.341   4.214  14.798  0.00  0.00    +0.000 A 
ATOM     18  C   UNL     1       5.036   3.555  13.605  0.00  0.00    +0.000 A 
ATOM     19  C   UNL     1       5.954   3.565  12.554  0.00  0.00    +0.000 A 
ATOM     20 CL   UNL     1       5.586   2.738  11.091  0.00  0.00    +0.000 Cl
ATOM     21  C   UNL     1       7.178   4.220  12.687  0.00  0.00    +0.000 A 
ATOM     22  C   UNL     1       7.497   4.870  13.878  0.00  0.00    +0.000 A 
ENDBRANCH  13  16
ENDBRANCH  12  13
ENDBRANCH   2  12
TORSDOF 3
ENDMDL
MODEL 6
REMARK VINA RESULT:      -7.9      3.450      6.818
REMARK  Name = 
REMARK  4 active torsions:
REMARK  status: ('A' for Active; 'I' for Inactive)
REMARK    1  A    between atoms: C_1  and  C_2
REMARK    2  A    between atoms: C_2  and  C_3
REMARK    3  A    between atoms: C_3  and  S_4
REMARK    4  A    between atoms: S_4  and  C_7
REMARK                            x       y       z     vdW  Elec       q    Type
REMARK                         _______ _______ _______ _____ _____    ______ ____
ROOT
ATOM      1  C   UNL     1       6.100   5.368  19.490  0.00  0.00    +0.000 C 
ATOM      2  C   UNL     1       4.945   5.302  18.486  0.00  0.00    +0.000 C 
ATOM      3  C   UNL     1       4.572   3.826  18.203  0.00  0.00    +0.000 C 
ATOM      4  O   UNL     1       3.994   3.184  19.350  0.00  0.00    +0.000 OA
ATOM      5  C   UNL     1       2.934   3.970  19.917  0.00  0.00    +0.000 C 
ATOM      6  C   UNL     1       2.485   3.265  21.210  0.00  0.00    +0.000 C 
ATOM      7  C   UNL     1       1.017   2.892  21.007  0.00  0.00    +0.000 C 
ATOM      8  C   UNL     1       0.839   2.843  19.502  0.00  0.00    +0.000 C 
ATOM      9  C   UNL     1       1.672   4.023  19.033  0.00  0.00    +0.000 C 
ATOM     10  O   UNL     1       3.411   5.275  20.255  0.00  0.00    +0.000 OA
ATOM     11  O   UNL     1       3.766   5.942  19.000  0.00  0.00    +0.000 OA
ENDROOT
BRANCH   2  12
ATOM     12  C   UNL     1       5.348   6.039  17.193  0.00  0.00    +0.000 C 
BRANCH  12  13
ATOM     13  S   UNL     1       6.959   5.526  16.575  0.00  0.00    +0.000 S 
ATOM     14  O   UNL     1       7.749   6.679  16.239  0.00  0.00    +0.000 OA
ATOM     15  O   UNL     1       7.481   4.475  17.446  0.00  0.00    +0.000 OA
BRANCH  13  16
ATOM     16  C   UNL     1       6.580   4.734  15.026  0.00  0.00    +0.000 A 
ATOM     17  C   UNL     1       7.464   4.868  13.954  0.00  0.00    +0.000 A 
ATOM     18  C   UNL     1       7.136   4.306  12.719  0.00  0.00    +0.000 A 
ATOM     19  C   UNL     1       5.944   3.594  12.577  0.00  0.00    +0.000 A 
ATOM     20 CL   UNL     1       5.530   2.917  11.051  0.00  0.00    +0.000 Cl
ATOM     21  C   UNL     1       5.073   3.445  13.657  0.00  0.00    +0.000 A 
ATOM     22  C   UNL     1       5.387   4.013  14.891  0.00  0.00    +0.000 A 
ENDBRANCH  13  16
ENDBRANCH  12  13
ENDBRANCH   2  12
TORSDOF 3
ENDMDL
MODEL 7
REMARK VINA RESULT:      -7.6      3.285      6.754
REMARK  Name = 
REMARK  4 active torsions:
REMARK  status: ('A' for Active; 'I' for Inactive)
REMARK    1  A    between atoms: C_1  and  C_2
REMARK    2  A    between atoms: C_2  and  C_3
REMARK    3  A    between atoms: C_3  and  S_4
REMARK    4  A    between atoms: S_4  and  C_7
REMARK                            x       y       z     vdW  Elec       q    Type
REMARK                         _______ _______ _______ _____ _____    ______ ____
ROOT
ATOM      1  C   UNL     1       2.285   7.557  17.990  0.00  0.00    +0.000 C 
ATOM      2  C   UNL     1       3.363   6.473  18.074  0.00  0.00    +0.000 C 
ATOM      3  C   UNL     1       3.798   6.270  19.546  0.00  0.00    +0.000 C 
ATOM      4  O   UNL     1       2.751   5.697  20.345  0.00  0.00    +0.000 OA
ATOM      5  C   UNL     1       2.188   4.532  19.722  0.00  0.00    +0.000 C 
ATOM      6  C   UNL     1       0.993   4.086  20.585  0.00  0.00    +0.000 C 
ATOM      7  C   UNL     1       1.322   2.678  21.078  0.00  0.00    +0.000 C 
ATOM      8  C   UNL     1       2.834   2.590  21.003  0.00  0.00    +0.000 C 
ATOM      9  C   UNL     1       3.144   3.323  19.709  0.00  0.00    +0.000 C 
ATOM     10  O   UNL     1       1.707   4.854  18.414  0.00  0.00    +0.000 OA
ATOM     11  O   UNL     1       2.873   5.208  17.602  0.00  0.00    +0.000 OA
ENDROOT
BRANCH   2  12
ATOM     12  C   UNL     1       4.558   6.870  17.184  0.00  0.00    +0.000 C 
BRANCH  12  13
ATOM     13  S   UNL     1       5.988   5.803  17.423  0.00  0.00    +0.000 S 
ATOM     14  O   UNL     1       7.162   6.597  17.661  0.00  0.00    +0.000 OA
ATOM     15  O   UNL     1       5.612   4.714  18.324  0.00  0.00    +0.000 OA
BRANCH  13  16
ATOM     16  C   UNL     1       6.226   5.056  15.825  0.00  0.00    +0.000 A 
ATOM     17  C   UNL     1       7.374   5.361  15.090  0.00  0.00    +0.000 A 
ATOM     18  C   UNL     1       7.528   4.831  13.808  0.00  0.00    +0.000 A 
ATOM     19  C   UNL     1       6.551   3.982  13.287  0.00  0.00    +0.000 A 
ATOM     20 CL   UNL     1       6.733   3.344  11.700  0.00  0.00    +0.000 Cl
ATOM     21  C   UNL     1       5.416   3.664  14.033  0.00  0.00    +0.000 A 
ATOM     22  C   UNL     1       5.247   4.198  15.310  0.00  0.00    +0.000 A 
ENDBRANCH  13  16
ENDBRANCH  12  13
ENDBRANCH   2  12
TORSDOF 3
ENDMDL
MODEL 8
REMARK VINA RESULT:      -7.5      2.981      6.075
REMARK  Name = 
REMARK  4 active torsions:
REMARK  status: ('A' for Active; 'I' for Inactive)
REMARK    1  A    between atoms: C_1  and  C_2
REMARK    2  A    between atoms: C_2  and  C_3
REMARK    3  A    between atoms: C_3  and  S_4
REMARK    4  A    between atoms: S_4  and  C_7
REMARK                            x       y       z     vdW  Elec       q    Type
REMARK                         _______ _______ _______ _____ _____    ______ ____
ROOT
ATOM      1  C   UNL     1       3.490   6.888  17.477  0.00  0.00    +0.000 C 
ATOM      2  C   UNL     1       4.071   5.476  17.601  0.00  0.00    +0.000 C 
ATOM      3  C   UNL     1       4.647   5.261  19.023  0.00  0.00    +0.000 C 
ATOM      4  O   UNL     1       3.618   5.239  20.024  0.00  0.00    +0.000 OA
ATOM      5  C   UNL     1       2.554   4.342  19.668  0.00  0.00    +0.000 C 
ATOM      6  C   UNL     1       1.450   4.499  20.730  0.00  0.00    +0.000 C 
ATOM      7  C   UNL     1       1.299   3.134  21.398  0.00  0.00    +0.000 C 
ATOM      8  C   UNL     1       2.625   2.440  21.155  0.00  0.00    +0.000 C 
ATOM      9  C   UNL     1       2.959   2.856  19.733  0.00  0.00    +0.000 C 
ATOM     10  O   UNL     1       2.010   4.699  18.394  0.00  0.00    +0.000 OA
ATOM     11  O   UNL     1       3.062   4.474  17.400  0.00  0.00    +0.000 OA
ENDROOT
BRANCH   2  12
ATOM     12  C   UNL     1       5.152   5.271  16.520  0.00  0.00    +0.000 C 
BRANCH  12  13
ATOM     13  S   UNL     1       6.761   4.861  17.215  0.00  0.00    +0.000 S 
ATOM     14  O   UNL     1       6.599   4.077  18.409  0.00  0.00    +0.000 OA
ATOM     15  O   UNL     1       7.639   4.423  16.132  0.00  0.00    +0.000 OA
BRANCH  13  16
ATOM     16  C   UNL     1       7.397   6.434  17.754  0.00  0.00    +0.000 A 
ATOM     17  C   UNL     1       7.151   7.573  16.983  0.00  0.00    +0.000 A 
ATOM     18  C   UNL     1       7.707   8.794  17.366  0.00  0.00    +0.000 A 
ATOM     19  C   UNL     1       8.476   8.871  18.528  0.00  0.00    +0.000 A 
ATOM     20 CL   UNL     1       9.177  10.372  18.991  0.00  0.00    +0.000 Cl
ATOM     21  C   UNL     1       8.702   7.735  19.306  0.00  0.00    +0.000 A 
ATOM     22  C   UNL     1       8.161   6.508  18.925  0.00  0.00    +0.000 A 
ENDBRANCH  13  16
ENDBRANCH  12  13
ENDBRANCH   2  12
TORSDOF 3
ENDMDL
MODEL 9
REMARK VINA RESULT:      -7.5      3.675      7.021
REMARK  Name = 
REMARK  4 active torsions:
REMARK  status: ('A' for Active; 'I' for Inactive)
REMARK    1  A    between atoms: C_1  and  C_2
REMARK    2  A    between atoms: C_2  and  C_3
REMARK    3  A    between atoms: C_3  and  S_4
REMARK    4  A    between atoms: S_4  and  C_7
REMARK                            x       y       z     vdW  Elec       q    Type
REMARK                         _______ _______ _______ _____ _____    ______ ____
ROOT
ATOM      1  C   UNL     1       5.681   5.617  19.379  0.00  0.00    +0.000 C 
ATOM      2  C   UNL     1       5.176   4.580  18.371  0.00  0.00    +0.000 C 
ATOM      3  C   UNL     1       4.857   3.248  19.095  0.00  0.00    +0.000 C 
ATOM      4  O   UNL     1       3.729   3.369  19.975  0.00  0.00    +0.000 OA
ATOM      5  C   UNL     1       2.606   3.974  19.315  0.00  0.00    +0.000 C 
ATOM      6  C   UNL     1       1.510   4.182  20.377  0.00  0.00    +0.000 C 
ATOM      7  C   UNL     1       0.310   3.355  19.922  0.00  0.00    +0.000 C 
ATOM      8  C   UNL     1       0.898   2.294  19.012  0.00  0.00    +0.000 C 
ATOM      9  C   UNL     1       1.961   3.067  18.249  0.00  0.00    +0.000 C 
ATOM     10  O   UNL     1       2.972   5.252  18.787  0.00  0.00    +0.000 OA
ATOM     11  O   UNL     1       3.964   5.013  17.735  0.00  0.00    +0.000 OA
ENDROOT
BRANCH   2  12
ATOM     12  C   UNL     1       6.235   4.381  17.268  0.00  0.00    +0.000 C 
BRANCH  12  13
ATOM     13  S   UNL     1       6.274   5.740  16.089  0.00  0.00    +0.000 S 
ATOM     14  O   UNL     1       4.988   6.379  16.029  0.00  0.00    +0.000 OA
ATOM     15  O   UNL     1       7.496   6.512  16.306  0.00  0.00    +0.000 OA
BRANCH  13  16
ATOM     16  C   UNL     1       6.482   4.926  14.519  0.00  0.00    +0.000 A 
ATOM     17  C   UNL     1       5.560   3.954  14.124  0.00  0.00    +0.000 A 
ATOM     18  C   UNL     1       5.760   3.266  12.926  0.00  0.00    +0.000 A 
ATOM     19  C   UNL     1       6.859   3.575  12.125  0.00  0.00    +0.000 A 
ATOM     20 CL   UNL     1       7.116   2.714  10.658  0.00  0.00    +0.000 Cl
ATOM     21  C   UNL     1       7.766   4.561  12.514  0.00  0.00    +0.000 A 
ATOM     22  C   UNL     1       7.581   5.246  13.714  0.00  0.00    +0.000 A 
ENDBRANCH  13  16
ENDBRANCH  12  13
ENDBRANCH   2  12
TORSDOF 3
ENDMDL
