MODEL 1
REMARK VINA RESULT:      -9.1      0.000      0.000
REMARK  Name = 
REMARK  8 active torsions:
REMARK  status: ('A' for Active; 'I' for Inactive)
REMARK    1  A    between atoms: C_1  and  C_2
REMARK    2  A    between atoms: C_4  and  C_5
REMARK    3  A    between atoms: C_5  and  C_6
REMARK    4  A    between atoms: C_11  and  C_12
REMARK    5  A    between atoms: C_13  and  C_14
REMARK    6  A    between atoms: N_21  and  C_22
REMARK    7  A    between atoms: C_27  and  O_28
REMARK    8  A    between atoms: O_28  and  C_29
REMARK                            x       y       z     vdW  Elec       q    Type
REMARK                         _______ _______ _______ _____ _____    ______ ____
ROOT
ATOM      1  C   UNL     1       6.172   4.815  16.659  0.00  0.00    +0.000 C 
ATOM      2  N   UNL     1       7.074   4.344  17.783  0.00  0.00    +0.000 NA
ATOM      3  C   UNL     1       7.255   5.419  18.461  0.00  0.00    +0.000 C 
ATOM      4  N   UNL     1       7.155   5.502  19.822  0.00  0.00    +0.000 N 
ATOM      5  N   UNL     1       7.286   6.536  17.758  0.00  0.00    +0.000 N 
ATOM      6  C   UNL     1       8.109   7.698  18.026  0.00  0.00    +0.000 C 
ATOM      7  C   UNL     1       6.268   6.361  16.872  0.00  0.00    +0.000 C 
ATOM      8  O   UNL     1       5.572   7.252  16.407  0.00  0.00    +0.000 OA
ATOM      9  H   UNL     1       6.151   5.433  20.021  0.00  0.00    +0.000 HD
ATOM     10  H   UNL     1       7.392   6.412  20.194  0.00  0.00    +0.000 HD
ENDROOT
BRANCH   1  14
ATOM     11  C   UNL     1       1.410   5.281  17.913  0.00  0.00    +0.000 C 
ATOM     12  C   UNL     1       2.498   4.290  17.607  0.00  0.00    +0.000 A 
ATOM     13  C   UNL     1       3.710   4.778  17.115  0.00  0.00    +0.000 A 
ATOM     14  C   UNL     1       4.888   3.989  16.950  0.00  0.00    +0.000 A 
ATOM     15  C   UNL     1       4.769   2.627  17.173  0.00  0.00    +0.000 A 
ATOM     16  C   UNL     1       3.524   2.100  17.598  0.00  0.00    +0.000 A 
ATOM     17  C   UNL     1       2.401   2.922  17.833  0.00  0.00    +0.000 A 
BRANCH  17  18
ATOM     18  O   UNL     1       1.197   2.508  18.337  0.00  0.00    +0.000 OA
BRANCH  18  19
ATOM     19  C   UNL     1       1.131   2.305  19.733  0.00  0.00    +0.000 C 
ATOM     20  F   UNL     1       2.374   2.419  20.262  0.00  0.00    +0.000 F 
ATOM     21  F   UNL     1       0.394   3.319  20.255  0.00  0.00    +0.000 F 
ENDBRANCH  18  19
ENDBRANCH  17  18
ENDBRANCH   1  14
BRANCH   1  22
ATOM     22  C   UNL     1       6.578   4.489  15.201  0.00  0.00    +0.000 A 
ATOM     23  C   UNL     1       7.784   5.016  14.682  0.00  0.00    +0.000 A 
ATOM     24  C   UNL     1       8.048   5.024  13.314  0.00  0.00    +0.000 A 
ATOM     25  C   UNL     1       7.085   4.553  12.435  0.00  0.00    +0.000 A 
ATOM     26  F   UNL     1       7.307   4.674  11.117  0.00  0.00    +0.000 F 
ATOM     27  C   UNL     1       5.892   4.018  12.912  0.00  0.00    +0.000 A 
ATOM     28  C   UNL     1       5.662   3.935  14.293  0.00  0.00    +0.000 A 
BRANCH  27  29
ATOM     29  C   UNL     1       4.820   3.706  12.016  0.00  0.00    +0.000 C 
ATOM     30  C   UNL     1       3.986   3.528  11.187  0.00  0.00    +0.000 C 
BRANCH  30  31
ATOM     31  C   UNL     1       3.012   3.374  10.145  0.00  0.00    +0.000 C 
ATOM     32  C   UNL     1       2.292   4.590   9.635  0.00  0.00    +0.000 C 
ATOM     33  C   UNL     1       3.333   3.922   8.779  0.00  0.00    +0.000 C 
ENDBRANCH  30  31
ENDBRANCH  27  29
ENDBRANCH   1  22
TORSDOF 6
ENDMDL
MODEL 2
REMARK VINA RESULT:      -9.0      3.257      4.589
REMARK  Name = 
REMARK  8 active torsions:
REMARK  status: ('A' for Active; 'I' for Inactive)
REMARK    1  A    between atoms: C_1  and  C_2
REMARK    2  A    between atoms: C_4  and  C_5
REMARK    3  A    between atoms: C_5  and  C_6
REMARK    4  A    between atoms: C_11  and  C_12
REMARK    5  A    between atoms: C_13  and  C_14
REMARK    6  A    between atoms: N_21  and  C_22
REMARK    7  A    between atoms: C_27  and  O_28
REMARK    8  A    between atoms: O_28  and  C_29
REMARK                            x       y       z     vdW  Elec       q    Type
REMARK                         _______ _______ _______ _____ _____    ______ ____
ROOT
ATOM      1  C   UNL     1       3.959   4.240  17.790  0.00  0.00    +0.000 C 
ATOM      2  N   UNL     1       2.630   3.636  17.379  0.00  0.00    +0.000 NA
ATOM      3  C   UNL     1       2.422   2.771  18.305  0.00  0.00    +0.000 C 
ATOM      4  N   UNL     1       1.236   2.615  18.965  0.00  0.00    +0.000 N 
ATOM      5  N   UNL     1       3.503   2.195  18.797  0.00  0.00    +0.000 N 
ATOM      6  C   UNL     1       3.616   0.821  19.247  0.00  0.00    +0.000 C 
ATOM      7  C   UNL     1       4.373   3.234  18.913  0.00  0.00    +0.000 C 
ATOM      8  O   UNL     1       5.245   3.339  19.763  0.00  0.00    +0.000 OA
ATOM      9  H   UNL     1       1.163   3.432  19.581  0.00  0.00    +0.000 HD
ATOM     10  H   UNL     1       1.231   1.844  19.620  0.00  0.00    +0.000 HD
ENDROOT
BRANCH   1  14
ATOM     11  C   UNL     1       1.392   7.049  20.951  0.00  0.00    +0.000 C 
ATOM     12  C   UNL     1       2.207   7.069  19.688  0.00  0.00    +0.000 A 
ATOM     13  C   UNL     1       2.878   5.900  19.321  0.00  0.00    +0.000 A 
ATOM     14  C   UNL     1       3.536   5.709  18.069  0.00  0.00    +0.000 A 
ATOM     15  C   UNL     1       3.619   6.807  17.228  0.00  0.00    +0.000 A 
ATOM     16  C   UNL     1       3.011   8.027  17.618  0.00  0.00    +0.000 A 
ATOM     17  C   UNL     1       2.293   8.156  18.827  0.00  0.00    +0.000 A 
BRANCH  17  18
ATOM     18  O   UNL     1       1.596   9.264  19.229  0.00  0.00    +0.000 OA
BRANCH  18  19
ATOM     19  C   UNL     1       1.070  10.086  18.209  0.00  0.00    +0.000 C 
ATOM     20  F   UNL     1       0.073   9.426  17.570  0.00  0.00    +0.000 F 
ATOM     21  F   UNL     1       0.498  11.162  18.810  0.00  0.00    +0.000 F 
ENDBRANCH  18  19
ENDBRANCH  17  18
ENDBRANCH   1  14
BRANCH   1  22
ATOM     22  C   UNL     1       5.095   4.306  16.740  0.00  0.00    +0.000 A 
ATOM     23  C   UNL     1       6.185   5.184  16.952  0.00  0.00    +0.000 A 
ATOM     24  C   UNL     1       7.062   5.519  15.923  0.00  0.00    +0.000 A 
ATOM     25  C   UNL     1       6.834   5.022  14.649  0.00  0.00    +0.000 A 
ATOM     26  F   UNL     1       7.619   5.446  13.646  0.00  0.00    +0.000 F 
ATOM     27  C   UNL     1       5.778   4.149  14.408  0.00  0.00    +0.000 A 
ATOM     28  C   UNL     1       4.944   3.747  15.461  0.00  0.00    +0.000 A 
BRANCH  27  29
ATOM     29  C   UNL     1       5.421   3.782  13.070  0.00  0.00    +0.000 C 
ATOM     30  C   UNL     1       5.009   3.536  11.983  0.00  0.00    +0.000 C 
BRANCH  30  31
ATOM     31  C   UNL     1       4.440   3.263  10.694  0.00  0.00    +0.000 C 
ATOM     32  C   UNL     1       3.040   2.725  10.615  0.00  0.00    +0.000 C 
ATOM     33  C   UNL     1       3.320   4.144  10.206  0.00  0.00    +0.000 C 
ENDBRANCH  30  31
ENDBRANCH  27  29
ENDBRANCH   1  22
TORSDOF 6
ENDMDL
MODEL 3
REMARK VINA RESULT:      -9.0      3.487      8.210
REMARK  Name = 
REMARK  8 active torsions:
REMARK  status: ('A' for Active; 'I' for Inactive)
REMARK    1  A    between atoms: C_1  and  C_2
REMARK    2  A    between atoms: C_4  and  C_5
REMARK    3  A    between atoms: C_5  and  C_6
REMARK    4  A    between atoms: C_11  and  C_12
REMARK    5  A    between atoms: C_13  and  C_14
REMARK    6  A    between atoms: N_21  and  C_22
REMARK    7  A    between atoms: C_27  and  O_28
REMARK    8  A    between atoms: O_28  and  C_29
REMARK                            x       y       z     vdW  Elec       q    Type
REMARK                         _______ _______ _______ _____ _____    ______ ____
ROOT
ATOM      1  C   UNL     1       3.835   4.901  18.101  0.00  0.00    +0.000 C 
ATOM      2  N   UNL     1       4.582   4.504  19.360  0.00  0.00    +0.000 NA
ATOM      3  C   UNL     1       4.154   3.312  19.571  0.00  0.00    +0.000 C 
ATOM      4  N   UNL     1       4.952   2.245  19.872  0.00  0.00    +0.000 N 
ATOM      5  N   UNL     1       2.901   3.089  19.219  0.00  0.00    +0.000 N 
ATOM      6  C   UNL     1       1.959   2.222  19.900  0.00  0.00    +0.000 C 
ATOM      7  C   UNL     1       2.806   3.727  18.022  0.00  0.00    +0.000 C 
ATOM      8  O   UNL     1       2.089   3.387  17.091  0.00  0.00    +0.000 OA
ATOM      9  H   UNL     1       5.435   2.016  18.997  0.00  0.00    +0.000 HD
ATOM     10  H   UNL     1       4.440   1.395  20.070  0.00  0.00    +0.000 HD
ENDROOT
BRANCH   1  14
ATOM     11  C   UNL     1       5.325   3.693  13.541  0.00  0.00    +0.000 C 
ATOM     12  C   UNL     1       5.720   4.412  14.802  0.00  0.00    +0.000 A 
ATOM     13  C   UNL     1       4.749   4.579  15.792  0.00  0.00    +0.000 A 
ATOM     14  C   UNL     1       5.015   5.074  17.104  0.00  0.00    +0.000 A 
ATOM     15  C   UNL     1       6.297   5.536  17.354  0.00  0.00    +0.000 A 
ATOM     16  C   UNL     1       7.278   5.448  16.334  0.00  0.00    +0.000 A 
ATOM     17  C   UNL     1       7.001   4.873  15.075  0.00  0.00    +0.000 A 
BRANCH  17  18
ATOM     18  O   UNL     1       7.913   4.659  14.075  0.00  0.00    +0.000 OA
BRANCH  18  19
ATOM     19  C   UNL     1       7.963   5.626  13.048  0.00  0.00    +0.000 C 
ATOM     20  F   UNL     1       9.220   6.130  12.967  0.00  0.00    +0.000 F 
ATOM     21  F   UNL     1       7.728   4.984  11.875  0.00  0.00    +0.000 F 
ENDBRANCH  18  19
ENDBRANCH  17  18
ENDBRANCH   1  14
BRANCH   1  22
ATOM     22  C   UNL     1       3.060   6.241  18.095  0.00  0.00    +0.000 A 
ATOM     23  C   UNL     1       3.476   7.279  17.229  0.00  0.00    +0.000 A 
ATOM     24  C   UNL     1       3.031   8.589  17.394  0.00  0.00    +0.000 A 
ATOM     25  C   UNL     1       2.203   8.895  18.463  0.00  0.00    +0.000 A 
ATOM     26  F   UNL     1       1.878  10.179  18.675  0.00  0.00    +0.000 F 
ATOM     27  C   UNL     1       1.766   7.896  19.328  0.00  0.00    +0.000 A 
ATOM     28  C   UNL     1       2.148   6.564  19.113  0.00  0.00    +0.000 A 
BRANCH  27  29
ATOM     29  C   UNL     1       1.071   8.225  20.536  0.00  0.00    +0.000 C 
ATOM     30  C   UNL     1       0.389   8.524  21.462  0.00  0.00    +0.000 C 
BRANCH  30  31
ATOM     31  C   UNL     1      -0.488   8.912  22.529  0.00  0.00    +0.000 C 
ATOM     32  C   UNL     1       0.090   9.589  23.739  0.00  0.00    +0.000 C 
ATOM     33  C   UNL     1      -0.730  10.381  22.758  0.00  0.00    +0.000 C 
ENDBRANCH  30  31
ENDBRANCH  27  29
ENDBRANCH   1  22
TORSDOF 6
ENDMDL
MODEL 4
REMARK VINA RESULT:      -8.9      3.678      5.343
REMARK  Name = 
REMARK  8 active torsions:
REMARK  status: ('A' for Active; 'I' for Inactive)
REMARK    1  A    between atoms: C_1  and  C_2
REMARK    2  A    between atoms: C_4  and  C_5
REMARK    3  A    between atoms: C_5  and  C_6
REMARK    4  A    between atoms: C_11  and  C_12
REMARK    5  A    between atoms: C_13  and  C_14
REMARK    6  A    between atoms: N_21  and  C_22
REMARK    7  A    between atoms: C_27  and  O_28
REMARK    8  A    between atoms: O_28  and  C_29
REMARK                            x       y       z     vdW  Elec       q    Type
REMARK                         _______ _______ _______ _____ _____    ______ ____
ROOT
ATOM      1  C   UNL     1       3.271   4.890  18.354  0.00  0.00    +0.000 C 
ATOM      2  N   UNL     1       2.088   4.330  17.588  0.00  0.00    +0.000 NA
ATOM      3  C   UNL     1       1.591   3.490  18.423  0.00  0.00    +0.000 C 
ATOM      4  N   UNL     1       0.261   3.391  18.720  0.00  0.00    +0.000 N 
ATOM      5  N   UNL     1       2.464   2.881  19.203  0.00  0.00    +0.000 N 
ATOM      6  C   UNL     1       2.387   1.512  19.675  0.00  0.00    +0.000 C 
ATOM      7  C   UNL     1       3.308   3.888  19.555  0.00  0.00    +0.000 C 
ATOM      8  O   UNL     1       3.907   3.974  20.616  0.00  0.00    +0.000 OA
ATOM      9  H   UNL     1       0.051   4.221  19.286  0.00  0.00    +0.000 HD
ATOM     10  H   UNL     1       0.039   2.632  19.352  0.00  0.00    +0.000 HD
ENDROOT
BRANCH   1  14
ATOM     11  C   UNL     1       1.084   8.071  21.447  0.00  0.00    +0.000 C 
ATOM     12  C   UNL     1       1.716   7.930  20.090  0.00  0.00    +0.000 A 
ATOM     13  C   UNL     1       2.363   6.729  19.790  0.00  0.00    +0.000 A 
ATOM     14  C   UNL     1       2.849   6.379  18.494  0.00  0.00    +0.000 A 
ATOM     15  C   UNL     1       2.782   7.354  17.513  0.00  0.00    +0.000 A 
ATOM     16  C   UNL     1       2.199   8.609  17.820  0.00  0.00    +0.000 A 
ATOM     17  C   UNL     1       1.651   8.892  19.090  0.00  0.00    +0.000 A 
BRANCH  17  18
ATOM     18  O   UNL     1       0.984  10.037  19.437  0.00  0.00    +0.000 OA
BRANCH  18  19
ATOM     19  C   UNL     1      -0.119  10.395  18.632  0.00  0.00    +0.000 C 
ATOM     20  F   UNL     1      -1.265  10.008  19.244  0.00  0.00    +0.000 F 
ATOM     21  F   UNL     1      -0.153  11.752  18.572  0.00  0.00    +0.000 F 
ENDBRANCH  18  19
ENDBRANCH  17  18
ENDBRANCH   1  14
BRANCH   1  22
ATOM     22  C   UNL     1       4.659   4.894  17.669  0.00  0.00    +0.000 A 
ATOM     23  C   UNL     1       5.635   5.829  18.086  0.00  0.00    +0.000 A 
ATOM     24  C   UNL     1       6.768   6.092  17.318  0.00  0.00    +0.000 A 
ATOM     25  C   UNL     1       6.917   5.462  16.092  0.00  0.00    +0.000 A 
ATOM     26  F   UNL     1       7.953   5.813  15.314  0.00  0.00    +0.000 F 
ATOM     27  C   UNL     1       5.981   4.529  15.657  0.00  0.00    +0.000 A 
ATOM     28  C   UNL     1       4.884   4.203  16.467  0.00  0.00    +0.000 A 
BRANCH  27  29
ATOM     29  C   UNL     1       6.025   4.017  14.320  0.00  0.00    +0.000 C 
ATOM     30  C   UNL     1       5.965   3.677  13.182  0.00  0.00    +0.000 C 
BRANCH  30  31
ATOM     31  C   UNL     1       5.828   3.312  11.802  0.00  0.00    +0.000 C 
ATOM     32  C   UNL     1       5.581   1.872  11.450  0.00  0.00    +0.000 C 
ATOM     33  C   UNL     1       4.472   2.878  11.309  0.00  0.00    +0.000 C 
ENDBRANCH  30  31
ENDBRANCH  27  29
ENDBRANCH   1  22
TORSDOF 6
ENDMDL
MODEL 5
REMARK VINA RESULT:      -8.9      3.879      6.529
REMARK  Name = 
REMARK  8 active torsions:
REMARK  status: ('A' for Active; 'I' for Inactive)
REMARK    1  A    between atoms: C_1  and  C_2
REMARK    2  A    between atoms: C_4  and  C_5
REMARK    3  A    between atoms: C_5  and  C_6
REMARK    4  A    between atoms: C_11  and  C_12
REMARK    5  A    between atoms: C_13  and  C_14
REMARK    6  A    between atoms: N_21  and  C_22
REMARK    7  A    between atoms: C_27  and  O_28
REMARK    8  A    between atoms: O_28  and  C_29
REMARK                            x       y       z     vdW  Elec       q    Type
REMARK                         _______ _______ _______ _____ _____    ______ ____
ROOT
ATOM      1  C   UNL     1       3.357   4.404  18.279  0.00  0.00    +0.000 C 
ATOM      2  N   UNL     1       2.183   3.620  17.727  0.00  0.00    +0.000 NA
ATOM      3  C   UNL     1       2.266   2.510  18.368  0.00  0.00    +0.000 C 
ATOM      4  N   UNL     1       1.212   1.882  18.968  0.00  0.00    +0.000 N 
ATOM      5  N   UNL     1       3.492   2.114  18.660  0.00  0.00    +0.000 N 
ATOM      6  C   UNL     1       3.967   0.745  18.694  0.00  0.00    +0.000 C 
ATOM      7  C   UNL     1       4.093   3.267  19.061  0.00  0.00    +0.000 C 
ATOM      8  O   UNL     1       4.982   3.350  19.895  0.00  0.00    +0.000 OA
ATOM      9  H   UNL     1       0.997   2.451  19.794  0.00  0.00    +0.000 HD
ATOM     10  H   UNL     1       1.447   0.985  19.373  0.00  0.00    +0.000 HD
ENDROOT
BRANCH   1  14
ATOM     11  C   UNL     1       2.089   9.146  17.666  0.00  0.00    +0.000 C 
ATOM     12  C   UNL     1       2.030   7.982  18.616  0.00  0.00    +0.000 A 
ATOM     13  C   UNL     1       2.448   6.734  18.149  0.00  0.00    +0.000 A 
ATOM     14  C   UNL     1       2.620   5.582  18.975  0.00  0.00    +0.000 A 
ATOM     15  C   UNL     1       2.219   5.691  20.297  0.00  0.00    +0.000 A 
ATOM     16  C   UNL     1       1.718   6.929  20.771  0.00  0.00    +0.000 A 
ATOM     17  C   UNL     1       1.641   8.073  19.946  0.00  0.00    +0.000 A 
BRANCH  17  18
ATOM     18  O   UNL     1       1.264   9.326  20.350  0.00  0.00    +0.000 OA
BRANCH  18  19
ATOM     19  C   UNL     1       0.156   9.404  21.221  0.00  0.00    +0.000 C 
ATOM     20  F   UNL     1       0.594   9.607  22.488  0.00  0.00    +0.000 F 
ATOM     21  F   UNL     1      -0.553  10.510  20.876  0.00  0.00    +0.000 F 
ENDBRANCH  18  19
ENDBRANCH  17  18
ENDBRANCH   1  14
BRANCH   1  22
ATOM     22  C   UNL     1       4.353   5.043  17.281  0.00  0.00    +0.000 A 
ATOM     23  C   UNL     1       4.718   4.333  16.113  0.00  0.00    +0.000 A 
ATOM     24  C   UNL     1       5.823   4.703  15.349  0.00  0.00    +0.000 A 
ATOM     25  C   UNL     1       6.615   5.759  15.770  0.00  0.00    +0.000 A 
ATOM     26  F   UNL     1       7.739   6.028  15.088  0.00  0.00    +0.000 F 
ATOM     27  C   UNL     1       6.280   6.486  16.908  0.00  0.00    +0.000 A 
ATOM     28  C   UNL     1       5.122   6.165  17.631  0.00  0.00    +0.000 A 
BRANCH  27  29
ATOM     29  C   UNL     1       7.187   7.450  17.455  0.00  0.00    +0.000 C 
ATOM     30  C   UNL     1       7.996   8.253  17.791  0.00  0.00    +0.000 C 
BRANCH  30  31
ATOM     31  C   UNL     1       9.011   9.210  18.127  0.00  0.00    +0.000 C 
ATOM     32  C   UNL     1       8.643  10.664  18.215  0.00  0.00    +0.000 C 
ATOM     33  C   UNL     1       8.937   9.889  19.470  0.00  0.00    +0.000 C 
ENDBRANCH  30  31
ENDBRANCH  27  29
ENDBRANCH   1  22
TORSDOF 6
ENDMDL
MODEL 6
REMARK VINA RESULT:      -8.9      3.448      4.894
REMARK  Name = 
REMARK  8 active torsions:
REMARK  status: ('A' for Active; 'I' for Inactive)
REMARK    1  A    between atoms: C_1  and  C_2
REMARK    2  A    between atoms: C_4  and  C_5
REMARK    3  A    between atoms: C_5  and  C_6
REMARK    4  A    between atoms: C_11  and  C_12
REMARK    5  A    between atoms: C_13  and  C_14
REMARK    6  A    between atoms: N_21  and  C_22
REMARK    7  A    between atoms: C_27  and  O_28
REMARK    8  A    between atoms: O_28  and  C_29
REMARK                            x       y       z     vdW  Elec       q    Type
REMARK                         _______ _______ _______ _____ _____    ______ ____
ROOT
ATOM      1  C   UNL     1       3.977   4.342  17.822  0.00  0.00    +0.000 C 
ATOM      2  N   UNL     1       2.720   3.723  17.242  0.00  0.00    +0.000 NA
ATOM      3  C   UNL     1       2.433   2.819  18.108  0.00  0.00    +0.000 C 
ATOM      4  N   UNL     1       1.185   2.609  18.624  0.00  0.00    +0.000 N 
ATOM      5  N   UNL     1       3.468   2.249  18.698  0.00  0.00    +0.000 N 
ATOM      6  C   UNL     1       3.567   0.862  19.109  0.00  0.00    +0.000 C 
ATOM      7  C   UNL     1       4.290   3.303  18.948  0.00  0.00    +0.000 C 
ATOM      8  O   UNL     1       5.058   3.395  19.895  0.00  0.00    +0.000 OA
ATOM      9  H   UNL     1       1.021   3.400  19.257  0.00  0.00    +0.000 HD
ATOM     10  H   UNL     1       1.129   1.814  19.246  0.00  0.00    +0.000 HD
ENDROOT
BRANCH   1  14
ATOM     11  C   UNL     1       1.415   7.049  21.075  0.00  0.00    +0.000 C 
ATOM     12  C   UNL     1       2.163   7.096  19.771  0.00  0.00    +0.000 A 
ATOM     13  C   UNL     1       2.880   5.961  19.386  0.00  0.00    +0.000 A 
ATOM     14  C   UNL     1       3.486   5.789  18.104  0.00  0.00    +0.000 A 
ATOM     15  C   UNL     1       3.463   6.877  17.246  0.00  0.00    +0.000 A 
ATOM     16  C   UNL     1       2.807   8.066  17.651  0.00  0.00    +0.000 A 
ATOM     17  C   UNL     1       2.144   8.173  18.894  0.00  0.00    +0.000 A 
BRANCH  17  18
ATOM     18  O   UNL     1       1.405   9.245  19.317  0.00  0.00    +0.000 OA
BRANCH  18  19
ATOM     19  C   UNL     1       1.048  10.195  18.336  0.00  0.00    +0.000 C 
ATOM     20  F   UNL     1      -0.171   9.882  17.832  0.00  0.00    +0.000 F 
ATOM     21  F   UNL     1       0.912  11.393  18.962  0.00  0.00    +0.000 F 
ENDBRANCH  18  19
ENDBRANCH  17  18
ENDBRANCH   1  14
BRANCH   1  22
ATOM     22  C   UNL     1       5.222   4.475  16.911  0.00  0.00    +0.000 A 
ATOM     23  C   UNL     1       6.136   5.532  17.135  0.00  0.00    +0.000 A 
ATOM     24  C   UNL     1       7.085   5.889  16.180  0.00  0.00    +0.000 A 
ATOM     25  C   UNL     1       7.102   5.230  14.960  0.00  0.00    +0.000 A 
ATOM     26  F   UNL     1       7.945   5.663  14.010  0.00  0.00    +0.000 F 
ATOM     27  C   UNL     1       6.224   4.179  14.711  0.00  0.00    +0.000 A 
ATOM     28  C   UNL     1       5.324   3.765  15.703  0.00  0.00    +0.000 A 
BRANCH  27  29
ATOM     29  C   UNL     1       6.105   3.620  13.398  0.00  0.00    +0.000 C 
ATOM     30  C   UNL     1       6.025   3.039  12.364  0.00  0.00    +0.000 C 
BRANCH  30  31
ATOM     31  C   UNL     1       5.955   2.272  11.154  0.00  0.00    +0.000 C 
ATOM     32  C   UNL     1       7.190   1.574  10.659  0.00  0.00    +0.000 C 
ATOM     33  C   UNL     1       6.063   0.773  11.250  0.00  0.00    +0.000 C 
ENDBRANCH  30  31
ENDBRANCH  27  29
ENDBRANCH   1  22
TORSDOF 6
ENDMDL
MODEL 7
REMARK VINA RESULT:      -8.8      3.514      8.168
REMARK  Name = 
REMARK  8 active torsions:
REMARK  status: ('A' for Active; 'I' for Inactive)
REMARK    1  A    between atoms: C_1  and  C_2
REMARK    2  A    between atoms: C_4  and  C_5
REMARK    3  A    between atoms: C_5  and  C_6
REMARK    4  A    between atoms: C_11  and  C_12
REMARK    5  A    between atoms: C_13  and  C_14
REMARK    6  A    between atoms: N_21  and  C_22
REMARK    7  A    between atoms: C_27  and  O_28
REMARK    8  A    between atoms: O_28  and  C_29
REMARK                            x       y       z     vdW  Elec       q    Type
REMARK                         _______ _______ _______ _____ _____    ______ ____
ROOT
ATOM      1  C   UNL     1       3.614   4.509  18.489  0.00  0.00    +0.000 C 
ATOM      2  N   UNL     1       4.393   4.197  19.752  0.00  0.00    +0.000 NA
ATOM      3  C   UNL     1       3.903   3.064  20.106  0.00  0.00    +0.000 C 
ATOM      4  N   UNL     1       4.648   1.984  20.488  0.00  0.00    +0.000 N 
ATOM      5  N   UNL     1       2.624   2.889  19.831  0.00  0.00    +0.000 N 
ATOM      6  C   UNL     1       1.663   2.161  20.638  0.00  0.00    +0.000 C 
ATOM      7  C   UNL     1       2.512   3.403  18.577  0.00  0.00    +0.000 C 
ATOM      8  O   UNL     1       1.733   3.016  17.718  0.00  0.00    +0.000 OA
ATOM      9  H   UNL     1       5.075   1.634  19.624  0.00  0.00    +0.000 HD
ATOM     10  H   UNL     1       4.094   1.195  20.796  0.00  0.00    +0.000 HD
ENDROOT
BRANCH   1  14
ATOM     11  C   UNL     1       7.691   6.940  17.098  0.00  0.00    +0.000 C 
ATOM     12  C   UNL     1       6.789   5.783  16.767  0.00  0.00    +0.000 A 
ATOM     13  C   UNL     1       5.792   5.446  17.684  0.00  0.00    +0.000 A 
ATOM     14  C   UNL     1       4.754   4.499  17.433  0.00  0.00    +0.000 A 
ATOM     15  C   UNL     1       4.829   3.783  16.250  0.00  0.00    +0.000 A 
ATOM     16  C   UNL     1       5.881   4.055  15.339  0.00  0.00    +0.000 A 
ATOM     17  C   UNL     1       6.843   5.060  15.582  0.00  0.00    +0.000 A 
BRANCH  17  18
ATOM     18  O   UNL     1       7.827   5.452  14.714  0.00  0.00    +0.000 OA
BRANCH  18  19
ATOM     19  C   UNL     1       7.494   5.462  13.342  0.00  0.00    +0.000 C 
ATOM     20  F   UNL     1       8.555   5.909  12.626  0.00  0.00    +0.000 F 
ATOM     21  F   UNL     1       7.289   4.174  12.966  0.00  0.00    +0.000 F 
ENDBRANCH  18  19
ENDBRANCH  17  18
ENDBRANCH   1  14
BRANCH   1  22
ATOM     22  C   UNL     1       2.922   5.889  18.371  0.00  0.00    +0.000 A 
ATOM     23  C   UNL     1       3.283   6.757  17.313  0.00  0.00    +0.000 A 
ATOM     24  C   UNL     1       2.939   8.107  17.328  0.00  0.00    +0.000 A 
ATOM     25  C   UNL     1       2.273   8.625  18.428  0.00  0.00    +0.000 A 
ATOM     26  F   UNL     1       2.053   9.948  18.479  0.00  0.00    +0.000 F 
ATOM     27  C   UNL     1       1.895   7.797  19.481  0.00  0.00    +0.000 A 
ATOM     28  C   UNL     1       2.169   6.423  19.428  0.00  0.00    +0.000 A 
BRANCH  27  29
ATOM     29  C   UNL     1       1.381   8.350  20.698  0.00  0.00    +0.000 C 
ATOM     30  C   UNL     1       0.996   8.924  21.665  0.00  0.00    +0.000 C 
BRANCH  30  31
ATOM     31  C   UNL     1       0.571   9.682  22.807  0.00  0.00    +0.000 C 
ATOM     32  C   UNL     1      -0.409  10.805  22.613  0.00  0.00    +0.000 C 
ATOM     33  C   UNL     1      -0.853   9.530  23.277  0.00  0.00    +0.000 C 
ENDBRANCH  30  31
ENDBRANCH  27  29
ENDBRANCH   1  22
TORSDOF 6
ENDMDL
MODEL 8
REMARK VINA RESULT:      -8.6      4.079      6.963
REMARK  Name = 
REMARK  8 active torsions:
REMARK  status: ('A' for Active; 'I' for Inactive)
REMARK    1  A    between atoms: C_1  and  C_2
REMARK    2  A    between atoms: C_4  and  C_5
REMARK    3  A    between atoms: C_5  and  C_6
REMARK    4  A    between atoms: C_11  and  C_12
REMARK    5  A    between atoms: C_13  and  C_14
REMARK    6  A    between atoms: N_21  and  C_22
REMARK    7  A    between atoms: C_27  and  O_28
REMARK    8  A    between atoms: O_28  and  C_29
REMARK                            x       y       z     vdW  Elec       q    Type
REMARK                         _______ _______ _______ _____ _____    ______ ____
ROOT
ATOM      1  C   UNL     1       2.980   5.613  18.412  0.00  0.00    +0.000 C 
ATOM      2  N   UNL     1       1.737   4.889  17.932  0.00  0.00    +0.000 NA
ATOM      3  C   UNL     1       1.549   4.020  18.859  0.00  0.00    +0.000 C 
ATOM      4  N   UNL     1       0.344   3.766  19.450  0.00  0.00    +0.000 N 
ATOM      5  N   UNL     1       2.645   3.546  19.423  0.00  0.00    +0.000 N 
ATOM      6  C   UNL     1       2.850   2.193  19.901  0.00  0.00    +0.000 C 
ATOM      7  C   UNL     1       3.412   4.660  19.573  0.00  0.00    +0.000 C 
ATOM      8  O   UNL     1       4.218   4.851  20.472  0.00  0.00    +0.000 OA
ATOM      9  H   UNL     1       0.162   4.580  20.047  0.00  0.00    +0.000 HD
ATOM     10  H   UNL     1       0.367   3.004  20.115  0.00  0.00    +0.000 HD
ENDROOT
BRANCH   1  14
ATOM     11  C   UNL     1       0.949   8.517  21.864  0.00  0.00    +0.000 C 
ATOM     12  C   UNL     1       1.373   8.450  20.423  0.00  0.00    +0.000 A 
ATOM     13  C   UNL     1       2.100   7.334  20.004  0.00  0.00    +0.000 A 
ATOM     14  C   UNL     1       2.414   7.042  18.642  0.00  0.00    +0.000 A 
ATOM     15  C   UNL     1       2.081   8.002  17.701  0.00  0.00    +0.000 A 
ATOM     16  C   UNL     1       1.411   9.180  18.117  0.00  0.00    +0.000 A 
ATOM     17  C   UNL     1       1.040   9.397  19.462  0.00  0.00    +0.000 A 
BRANCH  17  18
ATOM     18  O   UNL     1       0.307  10.456  19.929  0.00  0.00    +0.000 OA
BRANCH  18  19
ATOM     19  C   UNL     1      -0.824  10.826  19.170  0.00  0.00    +0.000 C 
ATOM     20  F   UNL     1      -1.609   9.737  18.974  0.00  0.00    +0.000 F 
ATOM     21  F   UNL     1      -1.550  11.694  19.922  0.00  0.00    +0.000 F 
ENDBRANCH  18  19
ENDBRANCH  17  18
ENDBRANCH   1  14
BRANCH   1  22
ATOM     22  C   UNL     1       4.167   5.769  17.431  0.00  0.00    +0.000 A 
ATOM     23  C   UNL     1       4.483   4.708  16.550  0.00  0.00    +0.000 A 
ATOM     24  C   UNL     1       5.703   4.656  15.878  0.00  0.00    +0.000 A 
ATOM     25  C   UNL     1       6.651   5.639  16.117  0.00  0.00    +0.000 A 
ATOM     26  F   UNL     1       7.862   5.512  15.552  0.00  0.00    +0.000 F 
ATOM     27  C   UNL     1       6.369   6.702  16.969  0.00  0.00    +0.000 A 
ATOM     28  C   UNL     1       5.111   6.798  17.581  0.00  0.00    +0.000 A 
BRANCH  27  29
ATOM     29  C   UNL     1       7.399   7.614  17.368  0.00  0.00    +0.000 C 
ATOM     30  C   UNL     1       8.175   8.466  17.656  0.00  0.00    +0.000 C 
BRANCH  30  31
ATOM     31  C   UNL     1       9.067   9.547  17.964  0.00  0.00    +0.000 C 
ATOM     32  C   UNL     1       8.493  10.901  18.272  0.00  0.00    +0.000 C 
ATOM     33  C   UNL     1       9.092  10.074  19.375  0.00  0.00    +0.000 C 
ENDBRANCH  30  31
ENDBRANCH  27  29
ENDBRANCH   1  22
TORSDOF 6
ENDMDL
MODEL 9
REMARK VINA RESULT:      -8.3      4.368      8.230
REMARK  Name = 
REMARK  8 active torsions:
REMARK  status: ('A' for Active; 'I' for Inactive)
REMARK    1  A    between atoms: C_1  and  C_2
REMARK    2  A    between atoms: C_4  and  C_5
REMARK    3  A    between atoms: C_5  and  C_6
REMARK    4  A    between atoms: C_11  and  C_12
REMARK    5  A    between atoms: C_13  and  C_14
REMARK    6  A    between atoms: N_21  and  C_22
REMARK    7  A    between atoms: C_27  and  O_28
REMARK    8  A    between atoms: O_28  and  C_29
REMARK                            x       y       z     vdW  Elec       q    Type
REMARK                         _______ _______ _______ _____ _____    ______ ____
ROOT
ATOM      1  C   UNL     1       3.080   4.864  18.835  0.00  0.00    +0.000 C 
ATOM      2  N   UNL     1       3.689   3.674  19.550  0.00  0.00    +0.000 NA
ATOM      3  C   UNL     1       3.080   2.684  19.005  0.00  0.00    +0.000 C 
ATOM      4  N   UNL     1       3.695   1.551  18.551  0.00  0.00    +0.000 N 
ATOM      5  N   UNL     1       1.829   2.913  18.648  0.00  0.00    +0.000 N 
ATOM      6  C   UNL     1       0.734   1.964  18.695  0.00  0.00    +0.000 C 
ATOM      7  C   UNL     1       1.896   4.156  18.099  0.00  0.00    +0.000 C 
ATOM      8  O   UNL     1       1.191   4.569  17.190  0.00  0.00    +0.000 OA
ATOM      9  H   UNL     1       4.189   1.838  17.699  0.00  0.00    +0.000 HD
ATOM     10  H   UNL     1       3.054   0.847  18.209  0.00  0.00    +0.000 HD
ENDROOT
BRANCH   1  14
ATOM     11  C   UNL     1       7.920   5.712  19.409  0.00  0.00    +0.000 C 
ATOM     12  C   UNL     1       6.761   5.857  18.461  0.00  0.00    +0.000 A 
ATOM     13  C   UNL     1       5.556   5.238  18.801  0.00  0.00    +0.000 A 
ATOM     14  C   UNL     1       4.326   5.433  18.102  0.00  0.00    +0.000 A 
ATOM     15  C   UNL     1       4.376   6.184  16.938  0.00  0.00    +0.000 A 
ATOM     16  C   UNL     1       5.609   6.756  16.534  0.00  0.00    +0.000 A 
ATOM     17  C   UNL     1       6.789   6.613  17.296  0.00  0.00    +0.000 A 
BRANCH  17  18
ATOM     18  O   UNL     1       7.991   7.213  17.030  0.00  0.00    +0.000 OA
BRANCH  18  19
ATOM     19  C   UNL     1       8.151   8.539  17.486  0.00  0.00    +0.000 C 
ATOM     20  F   UNL     1       6.932   9.081  17.727  0.00  0.00    +0.000 F 
ATOM     21  F   UNL     1       8.791   8.482  18.683  0.00  0.00    +0.000 F 
ENDBRANCH  18  19
ENDBRANCH  17  18
ENDBRANCH   1  14
BRANCH   1  22
ATOM     22  C   UNL     1       2.510   6.024  19.687  0.00  0.00    +0.000 A 
ATOM     23  C   UNL     1       1.660   5.730  20.780  0.00  0.00    +0.000 A 
ATOM     24  C   UNL     1       0.878   6.714  21.381  0.00  0.00    +0.000 A 
ATOM     25  C   UNL     1       0.891   8.001  20.865  0.00  0.00    +0.000 A 
ATOM     26  F   UNL     1       0.046   8.906  21.380  0.00  0.00    +0.000 F 
ATOM     27  C   UNL     1       1.722   8.326  19.797  0.00  0.00    +0.000 A 
ATOM     28  C   UNL     1       2.571   7.356  19.246  0.00  0.00    +0.000 A 
BRANCH  27  29
ATOM     29  C   UNL     1       1.606   9.593  19.138  0.00  0.00    +0.000 C 
ATOM     30  C   UNL     1       1.444  10.684  18.697  0.00  0.00    +0.000 C 
BRANCH  30  31
ATOM     31  C   UNL     1       1.197  12.017  18.225  0.00  0.00    +0.000 C 
ATOM     32  C   UNL     1       1.341  13.167  19.181  0.00  0.00    +0.000 C 
ATOM     33  C   UNL     1       2.367  12.959  18.101  0.00  0.00    +0.000 C 
ENDBRANCH  30  31
ENDBRANCH  27  29
ENDBRANCH   1  22
TORSDOF 6
ENDMDL
