MODEL 1
REMARK VINA RESULT:      -9.9      0.000      0.000
REMARK  Name = 
REMARK  4 active torsions:
REMARK  status: ('A' for Active; 'I' for Inactive)
REMARK    1  A    between atoms: C_2  and  C_4
REMARK    2  A    between atoms: C_8  and  C_9
REMARK    3  A    between atoms: N_19  and  C_20
REMARK    4  A    between atoms: C_23  and  C_24
REMARK                            x       y       z     vdW  Elec       q    Type
REMARK                         _______ _______ _______ _____ _____    ______ ____
ROOT
ATOM      1  C   UNL     1       2.745   7.135  18.342  0.00  0.00    +0.000 A 
ATOM      2  C   UNL     1       2.629   8.286  17.548  0.00  0.00    +0.000 A 
ATOM      3  C   UNL     1       1.860   9.380  17.958  0.00  0.00    +0.000 A 
ATOM      4  C   UNL     1       1.192   9.369  19.188  0.00  0.00    +0.000 A 
ATOM      5  C   UNL     1       1.302   8.236  20.013  0.00  0.00    +0.000 A 
ATOM      6  C   UNL     1       2.073   7.138  19.580  0.00  0.00    +0.000 A 
ATOM      7  C   UNL     1       0.595   8.163  21.346  0.00  0.00    +0.000 C 
ATOM      8  C   UNL     1       1.113   9.193  22.351  0.00  0.00    +0.000 C 
ATOM      9  C   UNL     1       0.620  10.615  22.077  0.00  0.00    +0.000 C 
ATOM     10  C   UNL     1       1.098  11.180  20.739  0.00  0.00    +0.000 C 
ATOM     11  N   UNL     1       0.463  10.516  19.589  0.00  0.00    +0.000 N 
ENDROOT
BRANCH   1  16
ATOM     12  C   UNL     1       5.615   5.159  17.220  0.00  0.00    +0.000 A 
ATOM     13  C   UNL     1       5.123   3.880  17.007  0.00  0.00    +0.000 A 
ATOM     14  C   UNL     1       3.775   3.656  17.245  0.00  0.00    +0.000 A 
ATOM     15  C   UNL     1       2.976   4.711  17.683  0.00  0.00    +0.000 A 
ATOM     16  C   UNL     1       3.541   5.974  17.885  0.00  0.00    +0.000 A 
ATOM     17  N   UNL     1       4.858   6.209  17.652  0.00  0.00    +0.000 NA
BRANCH  12  19
ATOM     18  N   UNL     1       7.914   4.386  17.208  0.00  0.00    +0.000 N 
ATOM     19  C   UNL     1       7.066   5.433  16.970  0.00  0.00    +0.000 C 
ATOM     20  O   UNL     1       7.476   6.516  16.573  0.00  0.00    +0.000 OA
ATOM     21  H   UNL     1       8.902   4.498  17.031  0.00  0.00    +0.000 HD
ATOM     22  H   UNL     1       7.538   3.491  17.500  0.00  0.00    +0.000 HD
ENDBRANCH  12  19
ENDBRANCH   1  16
BRANCH  11  23
ATOM     23  C   UNL     1      -0.830  10.869  19.151  0.00  0.00    +0.000 A 
ATOM     24  C   UNL     1      -1.549  11.949  19.689  0.00  0.00    +0.000 A 
ATOM     25  C   UNL     1      -2.856  12.252  19.281  0.00  0.00    +0.000 A 
ATOM     26  C   UNL     1      -3.499  11.481  18.310  0.00  0.00    +0.000 A 
ATOM     27  C   UNL     1      -2.786  10.432  17.722  0.00  0.00    +0.000 A 
ATOM     28  C   UNL     1      -1.479  10.136  18.138  0.00  0.00    +0.000 A 
BRANCH  26  29
ATOM     29  C   UNL     1      -4.931  11.748  17.922  0.00  0.00    +0.000 C 
ATOM     30  F   UNL     1      -5.066  12.288  16.678  0.00  0.00    +0.000 F 
ATOM     31  F   UNL     1      -5.700  10.624  17.925  0.00  0.00    +0.000 F 
ATOM     32  F   UNL     1      -5.543  12.622  18.770  0.00  0.00    +0.000 F 
ENDBRANCH  26  29
ENDBRANCH  11  23
TORSDOF 4
ENDMDL
MODEL 2
REMARK VINA RESULT:      -9.8      0.136      1.111
REMARK  Name = 
REMARK  4 active torsions:
REMARK  status: ('A' for Active; 'I' for Inactive)
REMARK    1  A    between atoms: C_2  and  C_4
REMARK    2  A    between atoms: C_8  and  C_9
REMARK    3  A    between atoms: N_19  and  C_20
REMARK    4  A    between atoms: C_23  and  C_24
REMARK                            x       y       z     vdW  Elec       q    Type
REMARK                         _______ _______ _______ _____ _____    ______ ____
ROOT
ATOM      1  C   UNL     1       2.736   7.080  18.321  0.00  0.00    +0.000 A 
ATOM      2  C   UNL     1       2.540   8.189  17.484  0.00  0.00    +0.000 A 
ATOM      3  C   UNL     1       1.756   9.276  17.885  0.00  0.00    +0.000 A 
ATOM      4  C   UNL     1       1.150   9.299  19.146  0.00  0.00    +0.000 A 
ATOM      5  C   UNL     1       1.340   8.210  20.014  0.00  0.00    +0.000 A 
ATOM      6  C   UNL     1       2.127   7.119  19.591  0.00  0.00    +0.000 A 
ATOM      7  C   UNL     1       0.704   8.175  21.384  0.00  0.00    +0.000 C 
ATOM      8  C   UNL     1       1.235   9.266  22.314  0.00  0.00    +0.000 C 
ATOM      9  C   UNL     1       0.679  10.657  22.004  0.00  0.00    +0.000 C 
ATOM     10  C   UNL     1       1.071  11.175  20.619  0.00  0.00    +0.000 C 
ATOM     11  N   UNL     1       0.402  10.439  19.534  0.00  0.00    +0.000 N 
ENDROOT
BRANCH   1  16
ATOM     12  C   UNL     1       5.640   5.128  17.247  0.00  0.00    +0.000 A 
ATOM     13  C   UNL     1       5.161   3.847  17.020  0.00  0.00    +0.000 A 
ATOM     14  C   UNL     1       3.811   3.613  17.233  0.00  0.00    +0.000 A 
ATOM     15  C   UNL     1       2.997   4.660  17.659  0.00  0.00    +0.000 A 
ATOM     16  C   UNL     1       3.549   5.927  17.875  0.00  0.00    +0.000 A 
ATOM     17  N   UNL     1       4.868   6.172  17.668  0.00  0.00    +0.000 NA
BRANCH  12  19
ATOM     18  N   UNL     1       7.952   4.403  17.367  0.00  0.00    +0.000 N 
ATOM     19  C   UNL     1       7.094   5.413  17.025  0.00  0.00    +0.000 C 
ATOM     20  O   UNL     1       7.498   6.472  16.562  0.00  0.00    +0.000 OA
ATOM     21  H   UNL     1       8.943   4.523  17.214  0.00  0.00    +0.000 HD
ATOM     22  H   UNL     1       7.583   3.525  17.711  0.00  0.00    +0.000 HD
ENDBRANCH  12  19
ENDBRANCH   1  16
BRANCH  11  23
ATOM     23  C   UNL     1      -0.922  10.729  19.147  0.00  0.00    +0.000 A 
ATOM     24  C   UNL     1      -1.625   9.967  18.200  0.00  0.00    +0.000 A 
ATOM     25  C   UNL     1      -2.922  10.302  17.786  0.00  0.00    +0.000 A 
ATOM     26  C   UNL     1      -3.571  11.423  18.308  0.00  0.00    +0.000 A 
ATOM     27  C   UNL     1      -2.913  12.170  19.290  0.00  0.00    +0.000 A 
ATOM     28  C   UNL     1      -1.615  11.825  19.697  0.00  0.00    +0.000 A 
BRANCH  26  29
ATOM     29  C   UNL     1      -4.933  11.840  17.812  0.00  0.00    +0.000 C 
ATOM     30  F   UNL     1      -5.513  12.814  18.569  0.00  0.00    +0.000 F 
ATOM     31  F   UNL     1      -4.908  12.323  16.540  0.00  0.00    +0.000 F 
ATOM     32  F   UNL     1      -5.820  10.805  17.802  0.00  0.00    +0.000 F 
ENDBRANCH  26  29
ENDBRANCH  11  23
TORSDOF 4
ENDMDL
MODEL 3
REMARK VINA RESULT:      -9.7      1.568      2.176
REMARK  Name = 
REMARK  4 active torsions:
REMARK  status: ('A' for Active; 'I' for Inactive)
REMARK    1  A    between atoms: C_2  and  C_4
REMARK    2  A    between atoms: C_8  and  C_9
REMARK    3  A    between atoms: N_19  and  C_20
REMARK    4  A    between atoms: C_23  and  C_24
REMARK                            x       y       z     vdW  Elec       q    Type
REMARK                         _______ _______ _______ _____ _____    ______ ____
ROOT
ATOM      1  C   UNL     1       2.752   7.460  18.396  0.00  0.00    +0.000 A 
ATOM      2  C   UNL     1       2.540   8.610  17.619  0.00  0.00    +0.000 A 
ATOM      3  C   UNL     1       1.673   9.624  18.039  0.00  0.00    +0.000 A 
ATOM      4  C   UNL     1       0.997   9.532  19.262  0.00  0.00    +0.000 A 
ATOM      5  C   UNL     1       1.201   8.400  20.069  0.00  0.00    +0.000 A 
ATOM      6  C   UNL     1       2.071   7.383  19.626  0.00  0.00    +0.000 A 
ATOM      7  C   UNL     1       0.491   8.241  21.394  0.00  0.00    +0.000 C 
ATOM      8  C   UNL     1       0.906   9.295  22.420  0.00  0.00    +0.000 C 
ATOM      9  C   UNL     1       0.290  10.672  22.165  0.00  0.00    +0.000 C 
ATOM     10  C   UNL     1       0.728  11.300  20.842  0.00  0.00    +0.000 C 
ATOM     11  N   UNL     1       0.165  10.602  19.674  0.00  0.00    +0.000 N 
ENDROOT
BRANCH   1  16
ATOM     12  C   UNL     1       4.276   4.148  18.071  0.00  0.00    +0.000 A 
ATOM     13  C   UNL     1       5.295   4.300  17.142  0.00  0.00    +0.000 A 
ATOM     14  C   UNL     1       5.490   5.558  16.594  0.00  0.00    +0.000 A 
ATOM     15  C   UNL     1       4.668   6.610  16.992  0.00  0.00    +0.000 A 
ATOM     16  C   UNL     1       3.653   6.384  17.928  0.00  0.00    +0.000 A 
ATOM     17  N   UNL     1       3.453   5.158  18.476  0.00  0.00    +0.000 NA
BRANCH  12  19
ATOM     18  N   UNL     1       4.893   2.457  19.696  0.00  0.00    +0.000 N 
ATOM     19  C   UNL     1       4.041   2.801  18.682  0.00  0.00    +0.000 C 
ATOM     20  O   UNL     1       3.146   2.053  18.311  0.00  0.00    +0.000 OA
ATOM     21  H   UNL     1       4.768   1.573  20.170  0.00  0.00    +0.000 HD
ATOM     22  H   UNL     1       5.599   3.115  20.005  0.00  0.00    +0.000 HD
ENDBRANCH  12  19
ENDBRANCH   1  16
BRANCH  11  23
ATOM     23  C   UNL     1      -1.150  10.846  19.229  0.00  0.00    +0.000 A 
ATOM     24  C   UNL     1      -1.771  10.079  18.229  0.00  0.00    +0.000 A 
ATOM     25  C   UNL     1      -3.059  10.370  17.758  0.00  0.00    +0.000 A 
ATOM     26  C   UNL     1      -3.782  11.448  18.274  0.00  0.00    +0.000 A 
ATOM     27  C   UNL     1      -3.207  12.196  19.306  0.00  0.00    +0.000 A 
ATOM     28  C   UNL     1      -1.917  11.896  19.769  0.00  0.00    +0.000 A 
BRANCH  26  29
ATOM     29  C   UNL     1      -5.134  11.819  17.719  0.00  0.00    +0.000 C 
ATOM     30  F   UNL     1      -6.071  10.840  17.869  0.00  0.00    +0.000 F 
ATOM     31  F   UNL     1      -5.661  12.930  18.303  0.00  0.00    +0.000 F 
ATOM     32  F   UNL     1      -5.091  12.084  16.382  0.00  0.00    +0.000 F 
ENDBRANCH  26  29
ENDBRANCH  11  23
TORSDOF 4
ENDMDL
MODEL 4
REMARK VINA RESULT:      -9.7      1.563      1.941
REMARK  Name = 
REMARK  4 active torsions:
REMARK  status: ('A' for Active; 'I' for Inactive)
REMARK    1  A    between atoms: C_2  and  C_4
REMARK    2  A    between atoms: C_8  and  C_9
REMARK    3  A    between atoms: N_19  and  C_20
REMARK    4  A    between atoms: C_23  and  C_24
REMARK                            x       y       z     vdW  Elec       q    Type
REMARK                         _______ _______ _______ _____ _____    ______ ____
ROOT
ATOM      1  C   UNL     1       2.821   7.391  18.330  0.00  0.00    +0.000 A 
ATOM      2  C   UNL     1       2.654   8.559  17.569  0.00  0.00    +0.000 A 
ATOM      3  C   UNL     1       1.812   9.592  17.994  0.00  0.00    +0.000 A 
ATOM      4  C   UNL     1       1.117   9.501  19.205  0.00  0.00    +0.000 A 
ATOM      5  C   UNL     1       1.276   8.351  19.998  0.00  0.00    +0.000 A 
ATOM      6  C   UNL     1       2.121   7.315  19.550  0.00  0.00    +0.000 A 
ATOM      7  C   UNL     1       0.544   8.193  21.310  0.00  0.00    +0.000 C 
ATOM      8  C   UNL     1       0.975   9.219  22.358  0.00  0.00    +0.000 C 
ATOM      9  C   UNL     1       0.405  10.617  22.117  0.00  0.00    +0.000 C 
ATOM     10  C   UNL     1       0.879  11.252  20.809  0.00  0.00    +0.000 C 
ATOM     11  N   UNL     1       0.312  10.590  19.623  0.00  0.00    +0.000 N 
ENDROOT
BRANCH   1  16
ATOM     12  C   UNL     1       4.321   4.064  18.050  0.00  0.00    +0.000 A 
ATOM     13  C   UNL     1       5.293   4.179  17.067  0.00  0.00    +0.000 A 
ATOM     14  C   UNL     1       5.463   5.416  16.464  0.00  0.00    +0.000 A 
ATOM     15  C   UNL     1       4.663   6.484  16.865  0.00  0.00    +0.000 A 
ATOM     16  C   UNL     1       3.696   6.296  17.858  0.00  0.00    +0.000 A 
ATOM     17  N   UNL     1       3.521   5.091  18.459  0.00  0.00    +0.000 NA
BRANCH  12  19
ATOM     18  N   UNL     1       4.947   2.478  19.775  0.00  0.00    +0.000 N 
ATOM     19  C   UNL     1       4.115   2.741  18.721  0.00  0.00    +0.000 C 
ATOM     20  O   UNL     1       3.257   1.944  18.363  0.00  0.00    +0.000 OA
ATOM     21  H   UNL     1       4.839   1.614  20.287  0.00  0.00    +0.000 HD
ATOM     22  H   UNL     1       5.621   3.175  20.069  0.00  0.00    +0.000 HD
ENDBRANCH  12  19
ENDBRANCH   1  16
BRANCH  11  23
ATOM     23  C   UNL     1      -0.989  10.880  19.164  0.00  0.00    +0.000 A 
ATOM     24  C   UNL     1      -1.769  11.923  19.690  0.00  0.00    +0.000 A 
ATOM     25  C   UNL     1      -3.082  12.163  19.260  0.00  0.00    +0.000 A 
ATOM     26  C   UNL     1      -3.671  11.361  18.280  0.00  0.00    +0.000 A 
ATOM     27  C   UNL     1      -2.898  10.347  17.705  0.00  0.00    +0.000 A 
ATOM     28  C   UNL     1      -1.585  10.116  18.142  0.00  0.00    +0.000 A 
BRANCH  26  29
ATOM     29  C   UNL     1      -5.108  11.558  17.869  0.00  0.00    +0.000 C 
ATOM     30  F   UNL     1      -5.684  12.665  18.418  0.00  0.00    +0.000 F 
ATOM     31  F   UNL     1      -5.262  11.688  16.523  0.00  0.00    +0.000 F 
ATOM     32  F   UNL     1      -5.901  10.511  18.237  0.00  0.00    +0.000 F 
ENDBRANCH  26  29
ENDBRANCH  11  23
TORSDOF 4
ENDMDL
MODEL 5
REMARK VINA RESULT:      -9.7      3.422      5.388
REMARK  Name = 
REMARK  4 active torsions:
REMARK  status: ('A' for Active; 'I' for Inactive)
REMARK    1  A    between atoms: C_2  and  C_4
REMARK    2  A    between atoms: C_8  and  C_9
REMARK    3  A    between atoms: N_19  and  C_20
REMARK    4  A    between atoms: C_23  and  C_24
REMARK                            x       y       z     vdW  Elec       q    Type
REMARK                         _______ _______ _______ _____ _____    ______ ____
ROOT
ATOM      1  C   UNL     1       5.160   5.078  15.828  0.00  0.00    +0.000 A 
ATOM      2  C   UNL     1       5.650   6.046  16.718  0.00  0.00    +0.000 A 
ATOM      3  C   UNL     1       4.954   6.385  17.882  0.00  0.00    +0.000 A 
ATOM      4  C   UNL     1       3.747   5.756  18.208  0.00  0.00    +0.000 A 
ATOM      5  C   UNL     1       3.238   4.770  17.345  0.00  0.00    +0.000 A 
ATOM      6  C   UNL     1       3.948   4.447  16.171  0.00  0.00    +0.000 A 
ATOM      7  C   UNL     1       1.935   4.064  17.640  0.00  0.00    +0.000 C 
ATOM      8  C   UNL     1       1.996   3.208  18.905  0.00  0.00    +0.000 C 
ATOM      9  C   UNL     1       1.938   4.024  20.198  0.00  0.00    +0.000 C 
ATOM     10  C   UNL     1       3.124   4.972  20.375  0.00  0.00    +0.000 C 
ATOM     11  N   UNL     1       3.096   6.093  19.421  0.00  0.00    +0.000 N 
ENDROOT
BRANCH   1  16
ATOM     12  C   UNL     1       5.935   3.551  12.593  0.00  0.00    +0.000 A 
ATOM     13  C   UNL     1       7.186   4.036  12.245  0.00  0.00    +0.000 A 
ATOM     14  C   UNL     1       7.808   4.913  13.122  0.00  0.00    +0.000 A 
ATOM     15  C   UNL     1       7.161   5.267  14.304  0.00  0.00    +0.000 A 
ATOM     16  C   UNL     1       5.894   4.745  14.588  0.00  0.00    +0.000 A 
ATOM     17  N   UNL     1       5.276   3.883  13.741  0.00  0.00    +0.000 NA
BRANCH  12  19
ATOM     18  N   UNL     1       5.875   1.408  11.457  0.00  0.00    +0.000 N 
ATOM     19  C   UNL     1       5.238   2.601  11.668  0.00  0.00    +0.000 C 
ATOM     20  O   UNL     1       4.167   2.862  11.135  0.00  0.00    +0.000 OA
ATOM     21  H   UNL     1       5.443   0.713  10.866  0.00  0.00    +0.000 HD
ATOM     22  H   UNL     1       6.742   1.209  11.943  0.00  0.00    +0.000 HD
ENDBRANCH  12  19
ENDBRANCH   1  16
BRANCH  11  23
ATOM     23  C   UNL     1       2.294   7.232  19.640  0.00  0.00    +0.000 A 
ATOM     24  C   UNL     1       1.685   7.511  20.875  0.00  0.00    +0.000 A 
ATOM     25  C   UNL     1       0.846   8.618  21.060  0.00  0.00    +0.000 A 
ATOM     26  C   UNL     1       0.581   9.498  20.008  0.00  0.00    +0.000 A 
ATOM     27  C   UNL     1       1.216   9.271  18.783  0.00  0.00    +0.000 A 
ATOM     28  C   UNL     1       2.054   8.160  18.608  0.00  0.00    +0.000 A 
BRANCH  26  29
ATOM     29  C   UNL     1      -0.383  10.645  20.172  0.00  0.00    +0.000 C 
ATOM     30  F   UNL     1      -1.421  10.615  19.288  0.00  0.00    +0.000 F 
ATOM     31  F   UNL     1      -0.950  10.689  21.409  0.00  0.00    +0.000 F 
ATOM     32  F   UNL     1       0.217  11.856  19.992  0.00  0.00    +0.000 F 
ENDBRANCH  26  29
ENDBRANCH  11  23
TORSDOF 4
ENDMDL
MODEL 6
REMARK VINA RESULT:      -9.6      3.497      5.555
REMARK  Name = 
REMARK  4 active torsions:
REMARK  status: ('A' for Active; 'I' for Inactive)
REMARK    1  A    between atoms: C_2  and  C_4
REMARK    2  A    between atoms: C_8  and  C_9
REMARK    3  A    between atoms: N_19  and  C_20
REMARK    4  A    between atoms: C_23  and  C_24
REMARK                            x       y       z     vdW  Elec       q    Type
REMARK                         _______ _______ _______ _____ _____    ______ ____
ROOT
ATOM      1  C   UNL     1       5.181   5.041  15.848  0.00  0.00    +0.000 A 
ATOM      2  C   UNL     1       5.661   6.001  16.753  0.00  0.00    +0.000 A 
ATOM      3  C   UNL     1       4.954   6.323  17.916  0.00  0.00    +0.000 A 
ATOM      4  C   UNL     1       3.747   5.685  18.225  0.00  0.00    +0.000 A 
ATOM      5  C   UNL     1       3.249   4.708  17.346  0.00  0.00    +0.000 A 
ATOM      6  C   UNL     1       3.969   4.402  16.173  0.00  0.00    +0.000 A 
ATOM      7  C   UNL     1       1.946   3.993  17.622  0.00  0.00    +0.000 C 
ATOM      8  C   UNL     1       2.001   3.123  18.877  0.00  0.00    +0.000 C 
ATOM      9  C   UNL     1       1.929   3.922  20.179  0.00  0.00    +0.000 C 
ATOM     10  C   UNL     1       3.111   4.873  20.377  0.00  0.00    +0.000 C 
ATOM     11  N   UNL     1       3.085   6.005  19.436  0.00  0.00    +0.000 N 
ENDROOT
BRANCH   1  16
ATOM     12  C   UNL     1       6.001   3.533  12.615  0.00  0.00    +0.000 A 
ATOM     13  C   UNL     1       7.242   4.049  12.270  0.00  0.00    +0.000 A 
ATOM     14  C   UNL     1       7.839   4.942  13.148  0.00  0.00    +0.000 A 
ATOM     15  C   UNL     1       7.181   5.280  14.329  0.00  0.00    +0.000 A 
ATOM     16  C   UNL     1       5.927   4.727  14.609  0.00  0.00    +0.000 A 
ATOM     17  N   UNL     1       5.332   3.849  13.761  0.00  0.00    +0.000 NA
BRANCH  12  19
ATOM     18  N   UNL     1       6.019   1.409  11.445  0.00  0.00    +0.000 N 
ATOM     19  C   UNL     1       5.331   2.566  11.688  0.00  0.00    +0.000 C 
ATOM     20  O   UNL     1       4.237   2.784  11.182  0.00  0.00    +0.000 OA
ATOM     21  H   UNL     1       5.606   0.703  10.851  0.00  0.00    +0.000 HD
ATOM     22  H   UNL     1       6.903   1.243  11.910  0.00  0.00    +0.000 HD
ENDBRANCH  12  19
ENDBRANCH   1  16
BRANCH  11  23
ATOM     23  C   UNL     1       2.278   7.138  19.663  0.00  0.00    +0.000 A 
ATOM     24  C   UNL     1       2.074   8.136  18.695  0.00  0.00    +0.000 A 
ATOM     25  C   UNL     1       1.313   9.284  18.956  0.00  0.00    +0.000 A 
ATOM     26  C   UNL     1       0.721   9.480  20.206  0.00  0.00    +0.000 A 
ATOM     27  C   UNL     1       0.866   8.478  21.170  0.00  0.00    +0.000 A 
ATOM     28  C   UNL     1       1.630   7.333  20.898  0.00  0.00    +0.000 A 
BRANCH  26  29
ATOM     29  C   UNL     1      -0.031  10.748  20.524  0.00  0.00    +0.000 C 
ATOM     30  F   UNL     1      -0.474  10.809  21.812  0.00  0.00    +0.000 F 
ATOM     31  F   UNL     1       0.715  11.870  20.334  0.00  0.00    +0.000 F 
ATOM     32  F   UNL     1      -1.141  10.901  19.747  0.00  0.00    +0.000 F 
ENDBRANCH  26  29
ENDBRANCH  11  23
TORSDOF 4
ENDMDL
MODEL 7
REMARK VINA RESULT:      -9.4      1.146      1.540
REMARK  Name = 
REMARK  4 active torsions:
REMARK  status: ('A' for Active; 'I' for Inactive)
REMARK    1  A    between atoms: C_2  and  C_4
REMARK    2  A    between atoms: C_8  and  C_9
REMARK    3  A    between atoms: N_19  and  C_20
REMARK    4  A    between atoms: C_23  and  C_24
REMARK                            x       y       z     vdW  Elec       q    Type
REMARK                         _______ _______ _______ _____ _____    ______ ____
ROOT
ATOM      1  C   UNL     1       3.085   7.178  18.566  0.00  0.00    +0.000 A 
ATOM      2  C   UNL     1       2.914   8.233  17.657  0.00  0.00    +0.000 A 
ATOM      3  C   UNL     1       2.010   9.271  17.906  0.00  0.00    +0.000 A 
ATOM      4  C   UNL     1       1.253   9.299  19.084  0.00  0.00    +0.000 A 
ATOM      5  C   UNL     1       1.413   8.263  20.021  0.00  0.00    +0.000 A 
ATOM      6  C   UNL     1       2.323   7.221  19.750  0.00  0.00    +0.000 A 
ATOM      7  C   UNL     1       0.617   8.235  21.305  0.00  0.00    +0.000 C 
ATOM      8  C   UNL     1       0.949   9.401  22.236  0.00  0.00    +0.000 C 
ATOM      9  C   UNL     1       0.337  10.731  21.792  0.00  0.00    +0.000 C 
ATOM     10  C   UNL     1       0.857  11.221  20.441  0.00  0.00    +0.000 C 
ATOM     11  N   UNL     1       0.383  10.391  19.321  0.00  0.00    +0.000 N 
ENDROOT
BRANCH   1  16
ATOM     12  C   UNL     1       5.445   5.055  16.743  0.00  0.00    +0.000 A 
ATOM     13  C   UNL     1       5.790   4.043  17.627  0.00  0.00    +0.000 A 
ATOM     14  C   UNL     1       5.217   4.061  18.889  0.00  0.00    +0.000 A 
ATOM     15  C   UNL     1       4.325   5.080  19.218  0.00  0.00    +0.000 A 
ATOM     16  C   UNL     1       4.028   6.074  18.280  0.00  0.00    +0.000 A 
ATOM     17  N   UNL     1       4.579   6.067  17.039  0.00  0.00    +0.000 NA
BRANCH  12  19
ATOM     18  N   UNL     1       7.316   5.568  15.287  0.00  0.00    +0.000 N 
ATOM     19  C   UNL     1       6.047   5.063  15.372  0.00  0.00    +0.000 C 
ATOM     20  O   UNL     1       5.454   4.641  14.387  0.00  0.00    +0.000 OA
ATOM     21  H   UNL     1       7.788   5.574  14.394  0.00  0.00    +0.000 HD
ATOM     22  H   UNL     1       7.792   5.874  16.127  0.00  0.00    +0.000 HD
ENDBRANCH  12  19
ENDBRANCH   1  16
BRANCH  11  23
ATOM     23  C   UNL     1      -0.901  10.562  18.765  0.00  0.00    +0.000 A 
ATOM     24  C   UNL     1      -1.364   9.814  17.670  0.00  0.00    +0.000 A 
ATOM     25  C   UNL     1      -2.623  10.034  17.093  0.00  0.00    +0.000 A 
ATOM     26  C   UNL     1      -3.476  11.020  17.595  0.00  0.00    +0.000 A 
ATOM     27  C   UNL     1      -3.060  11.744  18.717  0.00  0.00    +0.000 A 
ATOM     28  C   UNL     1      -1.797  11.515  19.285  0.00  0.00    +0.000 A 
BRANCH  26  29
ATOM     29  C   UNL     1      -4.797  11.321  16.934  0.00  0.00    +0.000 C 
ATOM     30  F   UNL     1      -5.061  12.655  16.830  0.00  0.00    +0.000 F 
ATOM     31  F   UNL     1      -4.882  10.826  15.669  0.00  0.00    +0.000 F 
ATOM     32  F   UNL     1      -5.851  10.790  17.616  0.00  0.00    +0.000 F 
ENDBRANCH  26  29
ENDBRANCH  11  23
TORSDOF 4
ENDMDL
MODEL 8
REMARK VINA RESULT:      -9.3      1.305      1.417
REMARK  Name = 
REMARK  4 active torsions:
REMARK  status: ('A' for Active; 'I' for Inactive)
REMARK    1  A    between atoms: C_2  and  C_4
REMARK    2  A    between atoms: C_8  and  C_9
REMARK    3  A    between atoms: N_19  and  C_20
REMARK    4  A    between atoms: C_23  and  C_24
REMARK                            x       y       z     vdW  Elec       q    Type
REMARK                         _______ _______ _______ _____ _____    ______ ____
ROOT
ATOM      1  C   UNL     1       2.334   6.821  19.675  0.00  0.00    +0.000 A 
ATOM      2  C   UNL     1       2.415   7.792  18.665  0.00  0.00    +0.000 A 
ATOM      3  C   UNL     1       1.658   8.967  18.721  0.00  0.00    +0.000 A 
ATOM      4  C   UNL     1       0.801   9.220  19.798  0.00  0.00    +0.000 A 
ATOM      5  C   UNL     1       0.709   8.273  20.833  0.00  0.00    +0.000 A 
ATOM      6  C   UNL     1       1.473   7.090  20.757  0.00  0.00    +0.000 A 
ATOM      7  C   UNL     1      -0.206   8.487  22.016  0.00  0.00    +0.000 C 
ATOM      8  C   UNL     1       0.205   9.683  22.876  0.00  0.00    +0.000 C 
ATOM      9  C   UNL     1      -0.152  11.034  22.254  0.00  0.00    +0.000 C 
ATOM     10  C   UNL     1       0.568  11.306  20.933  0.00  0.00    +0.000 C 
ATOM     11  N   UNL     1       0.087  10.443  19.842  0.00  0.00    +0.000 N 
ENDROOT
BRANCH   1  16
ATOM     12  C   UNL     1       4.940   4.458  18.662  0.00  0.00    +0.000 A 
ATOM     13  C   UNL     1       4.659   3.283  19.343  0.00  0.00    +0.000 A 
ATOM     14  C   UNL     1       3.554   3.268  20.180  0.00  0.00    +0.000 A 
ATOM     15  C   UNL     1       2.776   4.418  20.303  0.00  0.00    +0.000 A 
ATOM     16  C   UNL     1       3.122   5.571  19.592  0.00  0.00    +0.000 A 
ATOM     17  N   UNL     1       4.199   5.599  18.765  0.00  0.00    +0.000 NA
BRANCH  12  19
ATOM     18  N   UNL     1       7.347   4.433  18.362  0.00  0.00    +0.000 N 
ATOM     19  C   UNL     1       6.126   4.506  17.748  0.00  0.00    +0.000 C 
ATOM     20  O   UNL     1       6.021   4.597  16.532  0.00  0.00    +0.000 OA
ATOM     21  H   UNL     1       8.185   4.430  17.799  0.00  0.00    +0.000 HD
ATOM     22  H   UNL     1       7.398   4.320  19.368  0.00  0.00    +0.000 HD
ENDBRANCH  12  19
ENDBRANCH   1  16
BRANCH  11  23
ATOM     23  C   UNL     1      -1.095  10.736  19.132  0.00  0.00    +0.000 A 
ATOM     24  C   UNL     1      -1.999  11.734  19.532  0.00  0.00    +0.000 A 
ATOM     25  C   UNL     1      -3.197  11.974  18.846  0.00  0.00    +0.000 A 
ATOM     26  C   UNL     1      -3.541  11.219  17.722  0.00  0.00    +0.000 A 
ATOM     27  C   UNL     1      -2.635  10.255  17.273  0.00  0.00    +0.000 A 
ATOM     28  C   UNL     1      -1.438  10.022  17.967  0.00  0.00    +0.000 A 
BRANCH  26  29
ATOM     29  C   UNL     1      -4.864  11.414  17.025  0.00  0.00    +0.000 C 
ATOM     30  F   UNL     1      -4.877  10.947  15.744  0.00  0.00    +0.000 F 
ATOM     31  F   UNL     1      -5.895  10.791  17.659  0.00  0.00    +0.000 F 
ATOM     32  F   UNL     1      -5.216  12.729  16.940  0.00  0.00    +0.000 F 
ENDBRANCH  26  29
ENDBRANCH  11  23
TORSDOF 4
ENDMDL
MODEL 9
REMARK VINA RESULT:      -8.9      1.256      1.381
REMARK  Name = 
REMARK  4 active torsions:
REMARK  status: ('A' for Active; 'I' for Inactive)
REMARK    1  A    between atoms: C_2  and  C_4
REMARK    2  A    between atoms: C_8  and  C_9
REMARK    3  A    between atoms: N_19  and  C_20
REMARK    4  A    between atoms: C_23  and  C_24
REMARK                            x       y       z     vdW  Elec       q    Type
REMARK                         _______ _______ _______ _____ _____    ______ ____
ROOT
ATOM      1  C   UNL     1       2.168   7.894  19.113  0.00  0.00    +0.000 A 
ATOM      2  C   UNL     1       2.040   9.033  18.304  0.00  0.00    +0.000 A 
ATOM      3  C   UNL     1       1.153  10.064  18.631  0.00  0.00    +0.000 A 
ATOM      4  C   UNL     1       0.371  10.000  19.790  0.00  0.00    +0.000 A 
ATOM      5  C   UNL     1       0.489   8.878  20.630  0.00  0.00    +0.000 A 
ATOM      6  C   UNL     1       1.381   7.844  20.281  0.00  0.00    +0.000 A 
ATOM      7  C   UNL     1      -0.336   8.749  21.890  0.00  0.00    +0.000 C 
ATOM      8  C   UNL     1       0.001   9.816  22.932  0.00  0.00    +0.000 C 
ATOM      9  C   UNL     1      -0.572  11.195  22.603  0.00  0.00    +0.000 C 
ATOM     10  C   UNL     1      -0.012  11.796  21.314  0.00  0.00    +0.000 C 
ATOM     11  N   UNL     1      -0.480  11.086  20.112  0.00  0.00    +0.000 N 
ENDROOT
BRANCH   1  16
ATOM     12  C   UNL     1       4.731   6.026  17.286  0.00  0.00    +0.000 A 
ATOM     13  C   UNL     1       4.846   4.812  17.947  0.00  0.00    +0.000 A 
ATOM     14  C   UNL     1       4.038   4.598  19.053  0.00  0.00    +0.000 A 
ATOM     15  C   UNL     1       3.151   5.596  19.452  0.00  0.00    +0.000 A 
ATOM     16  C   UNL     1       3.093   6.800  18.743  0.00  0.00    +0.000 A 
ATOM     17  N   UNL     1       3.875   7.022  17.656  0.00  0.00    +0.000 NA
BRANCH  12  19
ATOM     18  N   UNL     1       6.894   5.887  16.196  0.00  0.00    +0.000 N 
ATOM     19  C   UNL     1       5.590   6.287  16.087  0.00  0.00    +0.000 C 
ATOM     20  O   UNL     1       5.162   6.817  15.069  0.00  0.00    +0.000 OA
ATOM     21  H   UNL     1       7.517   6.009  15.410  0.00  0.00    +0.000 HD
ATOM     22  H   UNL     1       7.206   5.417  17.037  0.00  0.00    +0.000 HD
ENDBRANCH  12  19
ENDBRANCH   1  16
BRANCH  11  23
ATOM     23  C   UNL     1      -1.748  11.337  19.549  0.00  0.00    +0.000 A 
ATOM     24  C   UNL     1      -2.650  12.269  20.088  0.00  0.00    +0.000 A 
ATOM     25  C   UNL     1      -3.929  12.467  19.548  0.00  0.00    +0.000 A 
ATOM     26  C   UNL     1      -4.358  11.734  18.439  0.00  0.00    +0.000 A 
ATOM     27  C   UNL     1      -3.460  10.837  17.854  0.00  0.00    +0.000 A 
ATOM     28  C   UNL     1      -2.183  10.646  18.402  0.00  0.00    +0.000 A 
BRANCH  26  29
ATOM     29  C   UNL     1      -5.759  11.879  17.901  0.00  0.00    +0.000 C 
ATOM     30  F   UNL     1      -5.802  12.278  16.597  0.00  0.00    +0.000 F 
ATOM     31  F   UNL     1      -6.473  10.722  17.958  0.00  0.00    +0.000 F 
ATOM     32  F   UNL     1      -6.487  12.802  18.592  0.00  0.00    +0.000 F 
ENDBRANCH  26  29
ENDBRANCH  11  23
TORSDOF 4
ENDMDL
