MODEL 1
REMARK VINA RESULT:      -8.1      0.000      0.000
REMARK  Name = 
REMARK  7 active torsions:
REMARK  status: ('A' for Active; 'I' for Inactive)
REMARK    1  A    between atoms: C_1  and  O_2
REMARK    2  A    between atoms: O_2  and  C_3
REMARK    3  A    between atoms: C_6  and  C_7
REMARK    4  A    between atoms: C_8  and  C_9
REMARK    5  A    between atoms: C_23  and  C_24
REMARK    6  A    between atoms: C_27  and  O_28
REMARK    7  A    between atoms: O_28  and  C_29
REMARK                            x       y       z     vdW  Elec       q    Type
REMARK                         _______ _______ _______ _____ _____    ______ ____
ROOT
ATOM      1  C   UNL     1       0.306  13.068  21.362  0.00  0.00    +0.000 A 
ATOM      2  N   UNL     1      -0.410  14.031  21.868  0.00  0.00    +0.000 NA
ATOM      3  C   UNL     1      -1.570  13.684  22.578  0.00  0.00    +0.000 A 
ATOM      4  C   UNL     1      -2.494  14.668  22.932  0.00  0.00    +0.000 A 
ATOM      5  C   UNL     1      -3.641  14.340  23.669  0.00  0.00    +0.000 A 
ATOM      6  C   UNL     1      -3.865  13.024  24.077  0.00  0.00    +0.000 A 
ATOM      7  C   UNL     1      -2.951  12.036  23.736  0.00  0.00    +0.000 A 
ATOM      8  C   UNL     1      -1.822  12.376  22.978  0.00  0.00    +0.000 A 
ATOM      9  C   UNL     1      -0.890  11.335  22.532  0.00  0.00    +0.000 A 
ATOM     10  O   UNL     1      -0.963  10.244  23.090  0.00  0.00    +0.000 OA
ATOM     11  N   UNL     1      -0.024  11.722  21.519  0.00  0.00    +0.000 N 
ATOM     12  C   UNL     1       0.481  10.765  20.629  0.00  0.00    +0.000 A 
ATOM     13  N   UNL     1       0.896  10.996  19.395  0.00  0.00    +0.000 NA
ATOM     14  N   UNL     1       1.450   9.880  18.793  0.00  0.00    +0.000 NA
ATOM     15  C   UNL     1       1.479   8.844  19.606  0.00  0.00    +0.000 A 
ATOM     16  S   UNL     1       0.644   9.124  21.078  0.00  0.00    +0.000 S 
ENDROOT
BRANCH  15  17
ATOM     17  C   UNL     1       2.135   7.558  19.352  0.00  0.00    +0.000 A 
ATOM     18  C   UNL     1       2.863   7.338  18.169  0.00  0.00    +0.000 A 
ATOM     19  C   UNL     1       3.472   6.109  17.919  0.00  0.00    +0.000 A 
ATOM     20  C   UNL     1       3.374   5.078  18.846  0.00  0.00    +0.000 A 
ATOM     21  C   UNL     1       2.634   5.273  20.017  0.00  0.00    +0.000 A 
ATOM     22  C   UNL     1       2.016   6.505  20.266  0.00  0.00    +0.000 A 
BRANCH  20  23
ATOM     23  O   UNL     1       3.996   3.916  18.485  0.00  0.00    +0.000 OA
ATOM     24  C   UNL     1       4.157   3.715  17.088  0.00  0.00    +0.000 C 
ENDBRANCH  20  23
ENDBRANCH  15  17
BRANCH   1  26
ATOM     25  C   UNL     1       2.367  14.461  20.903  0.00  0.00    +0.000 C 
ATOM     26  C   UNL     1       1.621  13.362  20.707  0.00  0.00    +0.000 C 
BRANCH  25  30
ATOM     27  C   UNL     1       5.980  14.992  18.631  0.00  0.00    +0.000 A 
ATOM     28  C   UNL     1       5.983  15.171  20.010  0.00  0.00    +0.000 A 
ATOM     29  C   UNL     1       4.807  15.008  20.744  0.00  0.00    +0.000 A 
ATOM     30  C   UNL     1       3.592  14.701  20.112  0.00  0.00    +0.000 A 
ATOM     31  C   UNL     1       3.592  14.552  18.720  0.00  0.00    +0.000 A 
ATOM     32  C   UNL     1       4.780  14.700  17.981  0.00  0.00    +0.000 A 
BRANCH  27  34
ATOM     33  C   UNL     1       7.995  13.982  17.937  0.00  0.00    +0.000 C 
ATOM     34  O   UNL     1       7.195  15.154  18.025  0.00  0.00    +0.000 OA
ENDBRANCH  27  34
ENDBRANCH  25  30
ENDBRANCH   1  26
TORSDOF 5
ENDMDL
MODEL 2
REMARK VINA RESULT:      -8.1      0.586      1.039
REMARK  Name = 
REMARK  7 active torsions:
REMARK  status: ('A' for Active; 'I' for Inactive)
REMARK    1  A    between atoms: C_1  and  O_2
REMARK    2  A    between atoms: O_2  and  C_3
REMARK    3  A    between atoms: C_6  and  C_7
REMARK    4  A    between atoms: C_8  and  C_9
REMARK    5  A    between atoms: C_23  and  C_24
REMARK    6  A    between atoms: C_27  and  O_28
REMARK    7  A    between atoms: O_28  and  C_29
REMARK                            x       y       z     vdW  Elec       q    Type
REMARK                         _______ _______ _______ _____ _____    ______ ____
ROOT
ATOM      1  C   UNL     1       0.319  12.991  21.308  0.00  0.00    +0.000 A 
ATOM      2  N   UNL     1      -0.408  13.935  21.834  0.00  0.00    +0.000 NA
ATOM      3  C   UNL     1      -1.548  13.559  22.561  0.00  0.00    +0.000 A 
ATOM      4  C   UNL     1      -2.486  14.521  22.938  0.00  0.00    +0.000 A 
ATOM      5  C   UNL     1      -3.613  14.164  23.692  0.00  0.00    +0.000 A 
ATOM      6  C   UNL     1      -3.804  12.841  24.093  0.00  0.00    +0.000 A 
ATOM      7  C   UNL     1      -2.876  11.875  23.729  0.00  0.00    +0.000 A 
ATOM      8  C   UNL     1      -1.767  12.244  22.955  0.00  0.00    +0.000 A 
ATOM      9  C   UNL     1      -0.822  11.225  22.485  0.00  0.00    +0.000 A 
ATOM     10  O   UNL     1      -0.863  10.129  23.035  0.00  0.00    +0.000 OA
ATOM     11  N   UNL     1       0.019  11.637  21.460  0.00  0.00    +0.000 N 
ATOM     12  C   UNL     1       0.528  10.697  20.555  0.00  0.00    +0.000 A 
ATOM     13  N   UNL     1       0.917  10.946  19.315  0.00  0.00    +0.000 NA
ATOM     14  N   UNL     1       1.483   9.846  18.695  0.00  0.00    +0.000 NA
ATOM     15  C   UNL     1       1.547   8.805  19.500  0.00  0.00    +0.000 A 
ATOM     16  S   UNL     1       0.732   9.056  20.988  0.00  0.00    +0.000 S 
ENDROOT
BRANCH  15  17
ATOM     17  C   UNL     1       2.224   7.535  19.225  0.00  0.00    +0.000 A 
ATOM     18  C   UNL     1       2.163   6.468  20.140  0.00  0.00    +0.000 A 
ATOM     19  C   UNL     1       2.822   5.266  19.887  0.00  0.00    +0.000 A 
ATOM     20  C   UNL     1       3.549   5.100  18.714  0.00  0.00    +0.000 A 
ATOM     21  C   UNL     1       3.640   6.159  17.805  0.00  0.00    +0.000 A 
ATOM     22  C   UNL     1       2.983   7.370  18.061  0.00  0.00    +0.000 A 
BRANCH  20  23
ATOM     23  O   UNL     1       4.166   3.888  18.584  0.00  0.00    +0.000 OA
ATOM     24  C   UNL     1       3.858   2.931  19.588  0.00  0.00    +0.000 C 
ENDBRANCH  20  23
ENDBRANCH  15  17
BRANCH   1  26
ATOM     25  C   UNL     1       2.353  14.420  20.840  0.00  0.00    +0.000 C 
ATOM     26  C   UNL     1       1.617  13.317  20.633  0.00  0.00    +0.000 C 
BRANCH  25  30
ATOM     27  C   UNL     1       5.903  15.045  18.494  0.00  0.00    +0.000 A 
ATOM     28  C   UNL     1       5.960  15.094  19.883  0.00  0.00    +0.000 A 
ATOM     29  C   UNL     1       4.804  14.900  20.642  0.00  0.00    +0.000 A 
ATOM     30  C   UNL     1       3.558  14.694  20.029  0.00  0.00    +0.000 A 
ATOM     31  C   UNL     1       3.506  14.677  18.630  0.00  0.00    +0.000 A 
ATOM     32  C   UNL     1       4.673  14.855  17.865  0.00  0.00    +0.000 A 
BRANCH  27  34
ATOM     33  C   UNL     1       7.855  16.353  18.287  0.00  0.00    +0.000 C 
ATOM     34  O   UNL     1       7.102  15.224  17.862  0.00  0.00    +0.000 OA
ENDBRANCH  27  34
ENDBRANCH  25  30
ENDBRANCH   1  26
TORSDOF 5
ENDMDL
MODEL 3
REMARK VINA RESULT:      -7.4      1.057      1.402
REMARK  Name = 
REMARK  7 active torsions:
REMARK  status: ('A' for Active; 'I' for Inactive)
REMARK    1  A    between atoms: C_1  and  O_2
REMARK    2  A    between atoms: O_2  and  C_3
REMARK    3  A    between atoms: C_6  and  C_7
REMARK    4  A    between atoms: C_8  and  C_9
REMARK    5  A    between atoms: C_23  and  C_24
REMARK    6  A    between atoms: C_27  and  O_28
REMARK    7  A    between atoms: O_28  and  C_29
REMARK                            x       y       z     vdW  Elec       q    Type
REMARK                         _______ _______ _______ _____ _____    ______ ____
ROOT
ATOM      1  C   UNL     1      -0.048  13.621  21.861  0.00  0.00    +0.000 A 
ATOM      2  N   UNL     1      -0.803  14.483  22.479  0.00  0.00    +0.000 NA
ATOM      3  C   UNL     1      -1.989  14.015  23.067  0.00  0.00    +0.000 A 
ATOM      4  C   UNL     1      -2.945  14.921  23.528  0.00  0.00    +0.000 A 
ATOM      5  C   UNL     1      -4.119  14.468  24.147  0.00  0.00    +0.000 A 
ATOM      6  C   UNL     1      -4.339  13.102  24.329  0.00  0.00    +0.000 A 
ATOM      7  C   UNL     1      -3.393  12.190  23.880  0.00  0.00    +0.000 A 
ATOM      8  C   UNL     1      -2.236  12.658  23.242  0.00  0.00    +0.000 A 
ATOM      9  C   UNL     1      -1.267  11.711  22.681  0.00  0.00    +0.000 A 
ATOM     10  O   UNL     1      -1.346  10.544  23.055  0.00  0.00    +0.000 OA
ATOM     11  N   UNL     1      -0.361  12.263  21.786  0.00  0.00    +0.000 N 
ATOM     12  C   UNL     1       0.201  11.466  20.781  0.00  0.00    +0.000 A 
ATOM     13  N   UNL     1       0.670  11.895  19.621  0.00  0.00    +0.000 NA
ATOM     14  N   UNL     1       1.270  10.895  18.877  0.00  0.00    +0.000 NA
ATOM     15  C   UNL     1       1.279   9.743  19.515  0.00  0.00    +0.000 A 
ATOM     16  S   UNL     1       0.372   9.775  20.971  0.00  0.00    +0.000 S 
ENDROOT
BRANCH  15  17
ATOM     17  C   UNL     1       1.969   8.521  19.092  0.00  0.00    +0.000 A 
ATOM     18  C   UNL     1       2.029   7.395  19.934  0.00  0.00    +0.000 A 
ATOM     19  C   UNL     1       2.700   6.239  19.539  0.00  0.00    +0.000 A 
ATOM     20  C   UNL     1       3.319   6.178  18.295  0.00  0.00    +0.000 A 
ATOM     21  C   UNL     1       3.288   7.297  17.457  0.00  0.00    +0.000 A 
ATOM     22  C   UNL     1       2.619   8.462  17.855  0.00  0.00    +0.000 A 
BRANCH  20  23
ATOM     23  O   UNL     1       3.960   5.002  18.026  0.00  0.00    +0.000 OA
ATOM     24  C   UNL     1       4.620   4.937  16.769  0.00  0.00    +0.000 C 
ENDBRANCH  20  23
ENDBRANCH  15  17
BRANCH   1  26
ATOM     25  C   UNL     1       1.578  15.202  20.741  0.00  0.00    +0.000 C 
ATOM     26  C   UNL     1       1.291  14.028  21.326  0.00  0.00    +0.000 C 
BRANCH  25  30
ATOM     27  C   UNL     1       5.418  15.783  18.894  0.00  0.00    +0.000 A 
ATOM     28  C   UNL     1       5.279  14.913  19.971  0.00  0.00    +0.000 A 
ATOM     29  C   UNL     1       4.033  14.734  20.575  0.00  0.00    +0.000 A 
ATOM     30  C   UNL     1       2.906  15.450  20.142  0.00  0.00    +0.000 A 
ATOM     31  C   UNL     1       3.062  16.345  19.077  0.00  0.00    +0.000 A 
ATOM     32  C   UNL     1       4.313  16.514  18.457  0.00  0.00    +0.000 A 
BRANCH  27  34
ATOM     33  C   UNL     1       7.367  17.079  18.601  0.00  0.00    +0.000 C 
ATOM     34  O   UNL     1       6.679  15.856  18.371  0.00  0.00    +0.000 OA
ENDBRANCH  27  34
ENDBRANCH  25  30
ENDBRANCH   1  26
TORSDOF 5
ENDMDL
MODEL 4
REMARK VINA RESULT:      -7.2      1.068      1.438
REMARK  Name = 
REMARK  7 active torsions:
REMARK  status: ('A' for Active; 'I' for Inactive)
REMARK    1  A    between atoms: C_1  and  O_2
REMARK    2  A    between atoms: O_2  and  C_3
REMARK    3  A    between atoms: C_6  and  C_7
REMARK    4  A    between atoms: C_8  and  C_9
REMARK    5  A    between atoms: C_23  and  C_24
REMARK    6  A    between atoms: C_27  and  O_28
REMARK    7  A    between atoms: O_28  and  C_29
REMARK                            x       y       z     vdW  Elec       q    Type
REMARK                         _______ _______ _______ _____ _____    ______ ____
ROOT
ATOM      1  C   UNL     1       0.683  14.043  21.204  0.00  0.00    +0.000 A 
ATOM      2  N   UNL     1       0.116  15.112  21.685  0.00  0.00    +0.000 NA
ATOM      3  C   UNL     1      -1.035  14.947  22.472  0.00  0.00    +0.000 A 
ATOM      4  C   UNL     1      -1.814  16.054  22.810  0.00  0.00    +0.000 A 
ATOM      5  C   UNL     1      -2.949  15.909  23.622  0.00  0.00    +0.000 A 
ATOM      6  C   UNL     1      -3.305  14.655  24.119  0.00  0.00    +0.000 A 
ATOM      7  C   UNL     1      -2.535  13.546  23.795  0.00  0.00    +0.000 A 
ATOM      8  C   UNL     1      -1.418  13.704  22.963  0.00  0.00    +0.000 A 
ATOM      9  C   UNL     1      -0.643  12.535  22.535  0.00  0.00    +0.000 A 
ATOM     10  O   UNL     1      -0.813  11.493  23.162  0.00  0.00    +0.000 OA
ATOM     11  N   UNL     1       0.205  12.757  21.459  0.00  0.00    +0.000 N 
ATOM     12  C   UNL     1       0.542  11.699  20.606  0.00  0.00    +0.000 A 
ATOM     13  N   UNL     1       0.912  11.810  19.341  0.00  0.00    +0.000 NA
ATOM     14  N   UNL     1       1.295  10.604  18.781  0.00  0.00    +0.000 NA
ATOM     15  C   UNL     1       1.245   9.618  19.653  0.00  0.00    +0.000 A 
ATOM     16  S   UNL     1       0.534  10.077  21.145  0.00  0.00    +0.000 S 
ENDROOT
BRANCH  15  17
ATOM     17  C   UNL     1       1.729   8.250  19.446  0.00  0.00    +0.000 A 
ATOM     18  C   UNL     1       1.611   7.279  20.458  0.00  0.00    +0.000 A 
ATOM     19  C   UNL     1       2.087   5.982  20.267  0.00  0.00    +0.000 A 
ATOM     20  C   UNL     1       2.684   5.626  19.064  0.00  0.00    +0.000 A 
ATOM     21  C   UNL     1       2.831   6.585  18.057  0.00  0.00    +0.000 A 
ATOM     22  C   UNL     1       2.358   7.890  18.250  0.00  0.00    +0.000 A 
BRANCH  20  23
ATOM     23  O   UNL     1       3.127   4.335  19.000  0.00  0.00    +0.000 OA
ATOM     24  C   UNL     1       2.128   3.354  18.755  0.00  0.00    +0.000 C 
ENDBRANCH  20  23
ENDBRANCH  15  17
BRANCH   1  26
ATOM     25  C   UNL     1       3.063  14.831  20.868  0.00  0.00    +0.000 C 
ATOM     26  C   UNL     1       1.985  14.138  20.469  0.00  0.00    +0.000 C 
BRANCH  25  30
ATOM     27  C   UNL     1       6.571  15.014  18.387  0.00  0.00    +0.000 A 
ATOM     28  C   UNL     1       6.661  15.265  19.752  0.00  0.00    +0.000 A 
ATOM     29  C   UNL     1       5.519  15.215  20.553  0.00  0.00    +0.000 A 
ATOM     30  C   UNL     1       4.255  14.952  20.002  0.00  0.00    +0.000 A 
ATOM     31  C   UNL     1       4.170  14.730  18.623  0.00  0.00    +0.000 A 
ATOM     32  C   UNL     1       5.322  14.764  17.817  0.00  0.00    +0.000 A 
BRANCH  27  34
ATOM     33  C   UNL     1       8.646  16.102  18.116  0.00  0.00    +0.000 C 
ATOM     34  O   UNL     1       7.759  15.067  17.711  0.00  0.00    +0.000 OA
ENDBRANCH  27  34
ENDBRANCH  25  30
ENDBRANCH   1  26
TORSDOF 5
ENDMDL
MODEL 5
REMARK VINA RESULT:      -7.2      1.307      1.630
REMARK  Name = 
REMARK  7 active torsions:
REMARK  status: ('A' for Active; 'I' for Inactive)
REMARK    1  A    between atoms: C_1  and  O_2
REMARK    2  A    between atoms: O_2  and  C_3
REMARK    3  A    between atoms: C_6  and  C_7
REMARK    4  A    between atoms: C_8  and  C_9
REMARK    5  A    between atoms: C_23  and  C_24
REMARK    6  A    between atoms: C_27  and  O_28
REMARK    7  A    between atoms: O_28  and  C_29
REMARK                            x       y       z     vdW  Elec       q    Type
REMARK                         _______ _______ _______ _____ _____    ______ ____
ROOT
ATOM      1  C   UNL     1      -0.793  13.800  21.560  0.00  0.00    +0.000 A 
ATOM      2  N   UNL     1      -1.617  14.611  22.160  0.00  0.00    +0.000 NA
ATOM      3  C   UNL     1      -2.662  14.049  22.910  0.00  0.00    +0.000 A 
ATOM      4  C   UNL     1      -3.704  14.855  23.371  0.00  0.00    +0.000 A 
ATOM      5  C   UNL     1      -4.737  14.313  24.149  0.00  0.00    +0.000 A 
ATOM      6  C   UNL     1      -4.728  12.960  24.490  0.00  0.00    +0.000 A 
ATOM      7  C   UNL     1      -3.695  12.148  24.043  0.00  0.00    +0.000 A 
ATOM      8  C   UNL     1      -2.682  12.700  23.247  0.00  0.00    +0.000 A 
ATOM      9  C   UNL     1      -1.630  11.844  22.690  0.00  0.00    +0.000 A 
ATOM     10  O   UNL     1      -1.496  10.729  23.187  0.00  0.00    +0.000 OA
ATOM     11  N   UNL     1      -0.899  12.412  21.656  0.00  0.00    +0.000 N 
ATOM     12  C   UNL     1      -0.308  11.593  20.686  0.00  0.00    +0.000 A 
ATOM     13  N   UNL     1      -0.012  11.947  19.446  0.00  0.00    +0.000 NA
ATOM     14  N   UNL     1       0.670  10.965  18.751  0.00  0.00    +0.000 NA
ATOM     15  C   UNL     1       0.910   9.907  19.499  0.00  0.00    +0.000 A 
ATOM     16  S   UNL     1       0.136   9.978  21.028  0.00  0.00    +0.000 S 
ENDROOT
BRANCH  15  17
ATOM     17  C   UNL     1       1.741   8.756  19.136  0.00  0.00    +0.000 A 
ATOM     18  C   UNL     1       2.402   8.703  17.895  0.00  0.00    +0.000 A 
ATOM     19  C   UNL     1       3.179   7.601  17.542  0.00  0.00    +0.000 A 
ATOM     20  C   UNL     1       3.317   6.532  18.419  0.00  0.00    +0.000 A 
ATOM     21  C   UNL     1       2.646   6.558  19.647  0.00  0.00    +0.000 A 
ATOM     22  C   UNL     1       1.861   7.663  20.000  0.00  0.00    +0.000 A 
BRANCH  20  23
ATOM     23  O   UNL     1       4.086   5.501  17.957  0.00  0.00    +0.000 OA
ATOM     24  C   UNL     1       3.634   4.198  18.297  0.00  0.00    +0.000 C 
ENDBRANCH  20  23
ENDBRANCH  15  17
BRANCH   1  26
ATOM     25  C   UNL     1       1.560  14.720  21.439  0.00  0.00    +0.000 C 
ATOM     26  C   UNL     1       0.417  14.331  20.853  0.00  0.00    +0.000 C 
BRANCH  25  30
ATOM     27  C   UNL     1       4.770  16.616  19.295  0.00  0.00    +0.000 A 
ATOM     28  C   UNL     1       3.533  17.243  19.411  0.00  0.00    +0.000 A 
ATOM     29  C   UNL     1       2.490  16.621  20.099  0.00  0.00    +0.000 A 
ATOM     30  C   UNL     1       2.646  15.341  20.652  0.00  0.00    +0.000 A 
ATOM     31  C   UNL     1       3.885  14.705  20.505  0.00  0.00    +0.000 A 
ATOM     32  C   UNL     1       4.941  15.338  19.826  0.00  0.00    +0.000 A 
BRANCH  27  34
ATOM     33  C   UNL     1       7.061  16.907  18.818  0.00  0.00    +0.000 C 
ATOM     34  O   UNL     1       5.719  17.333  18.621  0.00  0.00    +0.000 OA
ENDBRANCH  27  34
ENDBRANCH  25  30
ENDBRANCH   1  26
TORSDOF 5
ENDMDL
MODEL 6
REMARK VINA RESULT:      -7.1      1.155      1.452
REMARK  Name = 
REMARK  7 active torsions:
REMARK  status: ('A' for Active; 'I' for Inactive)
REMARK    1  A    between atoms: C_1  and  O_2
REMARK    2  A    between atoms: O_2  and  C_3
REMARK    3  A    between atoms: C_6  and  C_7
REMARK    4  A    between atoms: C_8  and  C_9
REMARK    5  A    between atoms: C_23  and  C_24
REMARK    6  A    between atoms: C_27  and  O_28
REMARK    7  A    between atoms: O_28  and  C_29
REMARK                            x       y       z     vdW  Elec       q    Type
REMARK                         _______ _______ _______ _____ _____    ______ ____
ROOT
ATOM      1  C   UNL     1       0.567  13.442  20.147  0.00  0.00    +0.000 A 
ATOM      2  N   UNL     1      -0.183  14.455  20.476  0.00  0.00    +0.000 NA
ATOM      3  C   UNL     1      -1.464  14.186  20.982  0.00  0.00    +0.000 A 
ATOM      4  C   UNL     1      -2.391  15.220  21.123  0.00  0.00    +0.000 A 
ATOM      5  C   UNL     1      -3.664  14.972  21.658  0.00  0.00    +0.000 A 
ATOM      6  C   UNL     1      -4.016  13.687  22.074  0.00  0.00    +0.000 A 
ATOM      7  C   UNL     1      -3.101  12.651  21.944  0.00  0.00    +0.000 A 
ATOM      8  C   UNL     1      -1.842  12.911  21.386  0.00  0.00    +0.000 A 
ATOM      9  C   UNL     1      -0.894  11.815  21.157  0.00  0.00    +0.000 A 
ATOM     10  O   UNL     1      -1.113  10.757  21.739  0.00  0.00    +0.000 OA
ATOM     11  N   UNL     1       0.154  12.119  20.299  0.00  0.00    +0.000 N 
ATOM     12  C   UNL     1       0.764  11.101  19.555  0.00  0.00    +0.000 A 
ATOM     13  N   UNL     1       1.401  11.254  18.406  0.00  0.00    +0.000 NA
ATOM     14  N   UNL     1       2.001  10.091  17.960  0.00  0.00    +0.000 NA
ATOM     15  C   UNL     1       1.839   9.096  18.809  0.00  0.00    +0.000 A 
ATOM     16  S   UNL     1       0.771   9.479  20.095  0.00  0.00    +0.000 S 
ENDROOT
BRANCH  15  17
ATOM     17  C   UNL     1       2.471   7.775  18.731  0.00  0.00    +0.000 A 
ATOM     18  C   UNL     1       2.295   6.827  19.754  0.00  0.00    +0.000 A 
ATOM     19  C   UNL     1       2.910   5.577  19.688  0.00  0.00    +0.000 A 
ATOM     20  C   UNL     1       3.707   5.246  18.599  0.00  0.00    +0.000 A 
ATOM     21  C   UNL     1       3.912   6.187  17.584  0.00  0.00    +0.000 A 
ATOM     22  C   UNL     1       3.299   7.445  17.652  0.00  0.00    +0.000 A 
BRANCH  20  23
ATOM     23  O   UNL     1       4.271   4.003  18.653  0.00  0.00    +0.000 OA
ATOM     24  C   UNL     1       3.472   2.944  18.143  0.00  0.00    +0.000 C 
ENDBRANCH  20  23
ENDBRANCH  15  17
BRANCH   1  26
ATOM     25  C   UNL     1       2.826  14.578  20.225  0.00  0.00    +0.000 C 
ATOM     26  C   UNL     1       1.989  13.655  19.725  0.00  0.00    +0.000 C 
BRANCH  25  30
ATOM     27  C   UNL     1       6.785  14.988  18.595  0.00  0.00    +0.000 A 
ATOM     28  C   UNL     1       6.550  15.237  19.944  0.00  0.00    +0.000 A 
ATOM     29  C   UNL     1       5.262  15.112  20.468  0.00  0.00    +0.000 A 
ATOM     30  C   UNL     1       4.173  14.776  19.649  0.00  0.00    +0.000 A 
ATOM     31  C   UNL     1       4.414  14.557  18.287  0.00  0.00    +0.000 A 
ATOM     32  C   UNL     1       5.714  14.665  17.762  0.00  0.00    +0.000 A 
BRANCH  27  34
ATOM     33  C   UNL     1       8.775  13.899  17.949  0.00  0.00    +0.000 C 
ATOM     34  O   UNL     1       8.089  15.118  18.205  0.00  0.00    +0.000 OA
ENDBRANCH  27  34
ENDBRANCH  25  30
ENDBRANCH   1  26
TORSDOF 5
ENDMDL
MODEL 7
REMARK VINA RESULT:      -7.0      1.482      1.864
REMARK  Name = 
REMARK  7 active torsions:
REMARK  status: ('A' for Active; 'I' for Inactive)
REMARK    1  A    between atoms: C_1  and  O_2
REMARK    2  A    between atoms: O_2  and  C_3
REMARK    3  A    between atoms: C_6  and  C_7
REMARK    4  A    between atoms: C_8  and  C_9
REMARK    5  A    between atoms: C_23  and  C_24
REMARK    6  A    between atoms: C_27  and  O_28
REMARK    7  A    between atoms: O_28  and  C_29
REMARK                            x       y       z     vdW  Elec       q    Type
REMARK                         _______ _______ _______ _____ _____    ______ ____
ROOT
ATOM      1  C   UNL     1       0.863  13.862  19.949  0.00  0.00    +0.000 A 
ATOM      2  N   UNL     1       0.213  14.971  20.154  0.00  0.00    +0.000 NA
ATOM      3  C   UNL     1      -1.145  14.882  20.500  0.00  0.00    +0.000 A 
ATOM      4  C   UNL     1      -1.944  16.026  20.496  0.00  0.00    +0.000 A 
ATOM      5  C   UNL     1      -3.294  15.957  20.871  0.00  0.00    +0.000 A 
ATOM      6  C   UNL     1      -3.854  14.744  21.273  0.00  0.00    +0.000 A 
ATOM      7  C   UNL     1      -3.068  13.599  21.286  0.00  0.00    +0.000 A 
ATOM      8  C   UNL     1      -1.727  13.680  20.886  0.00  0.00    +0.000 A 
ATOM      9  C   UNL     1      -0.904  12.469  20.808  0.00  0.00    +0.000 A 
ATOM     10  O   UNL     1      -1.325  11.470  21.385  0.00  0.00    +0.000 OA
ATOM     11  N   UNL     1       0.271  12.606  20.082  0.00  0.00    +0.000 N 
ATOM     12  C   UNL     1       0.834  11.492  19.448  0.00  0.00    +0.000 A 
ATOM     13  N   UNL     1       1.621  11.518  18.386  0.00  0.00    +0.000 NA
ATOM     14  N   UNL     1       2.120  10.273  18.050  0.00  0.00    +0.000 NA
ATOM     15  C   UNL     1       1.731   9.341  18.896  0.00  0.00    +0.000 A 
ATOM     16  S   UNL     1       0.571   9.905  20.027  0.00  0.00    +0.000 S 
ENDROOT
BRANCH  15  17
ATOM     17  C   UNL     1       2.196   7.952  18.933  0.00  0.00    +0.000 A 
ATOM     18  C   UNL     1       2.908   7.397  17.854  0.00  0.00    +0.000 A 
ATOM     19  C   UNL     1       3.335   6.070  17.882  0.00  0.00    +0.000 A 
ATOM     20  C   UNL     1       3.067   5.272  18.988  0.00  0.00    +0.000 A 
ATOM     21  C   UNL     1       2.340   5.801  20.059  0.00  0.00    +0.000 A 
ATOM     22  C   UNL     1       1.905   7.132  20.029  0.00  0.00    +0.000 A 
BRANCH  20  23
ATOM     23  O   UNL     1       3.519   3.986  18.894  0.00  0.00    +0.000 OA
ATOM     24  C   UNL     1       4.424   3.729  17.829  0.00  0.00    +0.000 C 
ENDBRANCH  20  23
ENDBRANCH  15  17
BRANCH   1  26
ATOM     25  C   UNL     1       3.127  14.970  19.737  0.00  0.00    +0.000 C 
ATOM     26  C   UNL     1       2.342  13.882  19.705  0.00  0.00    +0.000 C 
BRANCH  25  30
ATOM     27  C   UNL     1       7.272  14.903  18.591  0.00  0.00    +0.000 A 
ATOM     28  C   UNL     1       6.280  14.599  17.663  0.00  0.00    +0.000 A 
ATOM     29  C   UNL     1       4.936  14.612  18.040  0.00  0.00    +0.000 A 
ATOM     30  C   UNL     1       4.555  14.889  19.363  0.00  0.00    +0.000 A 
ATOM     31  C   UNL     1       5.562  15.164  20.296  0.00  0.00    +0.000 A 
ATOM     32  C   UNL     1       6.915  15.168  19.912  0.00  0.00    +0.000 A 
BRANCH  27  34
ATOM     33  C   UNL     1       9.176  13.606  18.081  0.00  0.00    +0.000 C 
ATOM     34  O   UNL     1       8.547  14.882  18.098  0.00  0.00    +0.000 OA
ENDBRANCH  27  34
ENDBRANCH  25  30
ENDBRANCH   1  26
TORSDOF 5
ENDMDL
MODEL 8
REMARK VINA RESULT:      -6.9      3.180      4.171
REMARK  Name = 
REMARK  7 active torsions:
REMARK  status: ('A' for Active; 'I' for Inactive)
REMARK    1  A    between atoms: C_1  and  O_2
REMARK    2  A    between atoms: O_2  and  C_3
REMARK    3  A    between atoms: C_6  and  C_7
REMARK    4  A    between atoms: C_8  and  C_9
REMARK    5  A    between atoms: C_23  and  C_24
REMARK    6  A    between atoms: C_27  and  O_28
REMARK    7  A    between atoms: O_28  and  C_29
REMARK                            x       y       z     vdW  Elec       q    Type
REMARK                         _______ _______ _______ _____ _____    ______ ____
ROOT
ATOM      1  C   UNL     1       2.693  15.064  18.326  0.00  0.00    +0.000 A 
ATOM      2  N   UNL     1       2.453  16.331  18.144  0.00  0.00    +0.000 NA
ATOM      3  C   UNL     1       1.144  16.789  18.359  0.00  0.00    +0.000 A 
ATOM      4  C   UNL     1       0.777  18.072  17.951  0.00  0.00    +0.000 A 
ATOM      5  C   UNL     1      -0.519  18.555  18.189  0.00  0.00    +0.000 A 
ATOM      6  C   UNL     1      -1.456  17.763  18.854  0.00  0.00    +0.000 A 
ATOM      7  C   UNL     1      -1.102  16.486  19.270  0.00  0.00    +0.000 A 
ATOM      8  C   UNL     1       0.189  16.010  19.003  0.00  0.00    +0.000 A 
ATOM      9  C   UNL     1       0.557  14.634  19.354  0.00  0.00    +0.000 A 
ATOM     10  O   UNL     1      -0.177  14.043  20.141  0.00  0.00    +0.000 OA
ATOM     11  N   UNL     1       1.712  14.164  18.744  0.00  0.00    +0.000 N 
ATOM     12  C   UNL     1       1.869  12.793  18.510  0.00  0.00    +0.000 A 
ATOM     13  N   UNL     1       2.623  12.247  17.570  0.00  0.00    +0.000 NA
ATOM     14  N   UNL     1       2.674  10.867  17.650  0.00  0.00    +0.000 NA
ATOM     15  C   UNL     1       1.992  10.407  18.679  0.00  0.00    +0.000 A 
ATOM     16  S   UNL     1       1.085  11.623  19.480  0.00  0.00    +0.000 S 
ENDROOT
BRANCH  15  17
ATOM     17  C   UNL     1       1.962   9.020  19.151  0.00  0.00    +0.000 A 
ATOM     18  C   UNL     1       2.499   7.978  18.374  0.00  0.00    +0.000 A 
ATOM     19  C   UNL     1       2.455   6.657  18.816  0.00  0.00    +0.000 A 
ATOM     20  C   UNL     1       1.880   6.348  20.043  0.00  0.00    +0.000 A 
ATOM     21  C   UNL     1       1.319   7.369  20.817  0.00  0.00    +0.000 A 
ATOM     22  C   UNL     1       1.358   8.697  20.371  0.00  0.00    +0.000 A 
BRANCH  20  23
ATOM     23  O   UNL     1       1.879   5.019  20.362  0.00  0.00    +0.000 OA
ATOM     24  C   UNL     1       1.811   4.124  19.260  0.00  0.00    +0.000 C 
ENDBRANCH  20  23
ENDBRANCH  15  17
BRANCH   1  26
ATOM     25  C   UNL     1       5.212  15.277  18.229  0.00  0.00    +0.000 C 
ATOM     26  C   UNL     1       4.093  14.535  18.241  0.00  0.00    +0.000 C 
BRANCH  25  30
ATOM     27  C   UNL     1       9.057  13.400  17.792  0.00  0.00    +0.000 A 
ATOM     28  C   UNL     1       8.954  14.673  18.342  0.00  0.00    +0.000 A 
ATOM     29  C   UNL     1       7.705  15.284  18.474  0.00  0.00    +0.000 A 
ATOM     30  C   UNL     1       6.536  14.653  18.022  0.00  0.00    +0.000 A 
ATOM     31  C   UNL     1       6.653  13.385  17.441  0.00  0.00    +0.000 A 
ATOM     32  C   UNL     1       7.908  12.762  17.324  0.00  0.00    +0.000 A 
BRANCH  27  34
ATOM     33  C   UNL     1      10.476  11.561  18.202  0.00  0.00    +0.000 C 
ATOM     34  O   UNL     1      10.327  12.897  17.738  0.00  0.00    +0.000 OA
ENDBRANCH  27  34
ENDBRANCH  25  30
ENDBRANCH   1  26
TORSDOF 5
ENDMDL
MODEL 9
REMARK VINA RESULT:      -6.9      1.611      1.794
REMARK  Name = 
REMARK  7 active torsions:
REMARK  status: ('A' for Active; 'I' for Inactive)
REMARK    1  A    between atoms: C_1  and  O_2
REMARK    2  A    between atoms: O_2  and  C_3
REMARK    3  A    between atoms: C_6  and  C_7
REMARK    4  A    between atoms: C_8  and  C_9
REMARK    5  A    between atoms: C_23  and  C_24
REMARK    6  A    between atoms: C_27  and  O_28
REMARK    7  A    between atoms: O_28  and  C_29
REMARK                            x       y       z     vdW  Elec       q    Type
REMARK                         _______ _______ _______ _____ _____    ______ ____
ROOT
ATOM      1  C   UNL     1       0.975  13.651  19.898  0.00  0.00    +0.000 A 
ATOM      2  N   UNL     1       0.276  14.706  20.204  0.00  0.00    +0.000 NA
ATOM      3  C   UNL     1      -1.079  14.526  20.523  0.00  0.00    +0.000 A 
ATOM      4  C   UNL     1      -1.926  15.631  20.623  0.00  0.00    +0.000 A 
ATOM      5  C   UNL     1      -3.275  15.469  20.973  0.00  0.00    +0.000 A 
ATOM      6  C   UNL     1      -3.785  14.199  21.245  0.00  0.00    +0.000 A 
ATOM      7  C   UNL     1      -2.952  13.092  21.154  0.00  0.00    +0.000 A 
ATOM      8  C   UNL     1      -1.613  13.269  20.780  0.00  0.00    +0.000 A 
ATOM      9  C   UNL     1      -0.739  12.106  20.592  0.00  0.00    +0.000 A 
ATOM     10  O   UNL     1      -1.121  11.038  21.062  0.00  0.00    +0.000 OA
ATOM     11  N   UNL     1       0.436  12.364  19.898  0.00  0.00    +0.000 N 
ATOM     12  C   UNL     1       1.051  11.343  19.164  0.00  0.00    +0.000 A 
ATOM     13  N   UNL     1       1.845  11.508  18.118  0.00  0.00    +0.000 NA
ATOM     14  N   UNL     1       2.399  10.324  17.666  0.00  0.00    +0.000 NA
ATOM     15  C   UNL     1       2.043   9.297  18.411  0.00  0.00    +0.000 A 
ATOM     16  S   UNL     1       0.851   9.696  19.578  0.00  0.00    +0.000 S 
ENDROOT
BRANCH  15  17
ATOM     17  C   UNL     1       2.566   7.932  18.316  0.00  0.00    +0.000 A 
ATOM     18  C   UNL     1       3.659   7.632  17.482  0.00  0.00    +0.000 A 
ATOM     19  C   UNL     1       4.146   6.330  17.377  0.00  0.00    +0.000 A 
ATOM     20  C   UNL     1       3.558   5.302  18.106  0.00  0.00    +0.000 A 
ATOM     21  C   UNL     1       2.455   5.579  18.920  0.00  0.00    +0.000 A 
ATOM     22  C   UNL     1       1.962   6.886  19.022  0.00  0.00    +0.000 A 
BRANCH  20  23
ATOM     23  O   UNL     1       4.108   4.067  17.909  0.00  0.00    +0.000 OA
ATOM     24  C   UNL     1       4.857   3.547  18.999  0.00  0.00    +0.000 C 
ENDBRANCH  20  23
ENDBRANCH  15  17
BRANCH   1  26
ATOM     25  C   UNL     1       3.156  14.897  19.602  0.00  0.00    +0.000 C 
ATOM     26  C   UNL     1       2.453  13.756  19.676  0.00  0.00    +0.000 C 
BRANCH  25  30
ATOM     27  C   UNL     1       7.347  14.693  18.659  0.00  0.00    +0.000 A 
ATOM     28  C   UNL     1       6.930  14.994  19.952  0.00  0.00    +0.000 A 
ATOM     29  C   UNL     1       5.569  15.069  20.253  0.00  0.00    +0.000 A 
ATOM     30  C   UNL     1       4.594  14.886  19.260  0.00  0.00    +0.000 A 
ATOM     31  C   UNL     1       5.023  14.613  17.956  0.00  0.00    +0.000 A 
ATOM     32  C   UNL     1       6.394  14.520  17.655  0.00  0.00    +0.000 A 
BRANCH  27  34
ATOM     33  C   UNL     1       9.311  15.780  17.934  0.00  0.00    +0.000 C 
ATOM     34  O   UNL     1       8.702  14.622  18.492  0.00  0.00    +0.000 OA
ENDBRANCH  27  34
ENDBRANCH  25  30
ENDBRANCH   1  26
TORSDOF 5
ENDMDL
