MODEL 1
REMARK VINA RESULT:      -9.0      0.000      0.000
REMARK  Name = 
REMARK  12 active torsions:
REMARK  status: ('A' for Active; 'I' for Inactive)
REMARK    1  A    between atoms: C_1  and  C_2
REMARK    2  A    between atoms: C_2  and  C_3
REMARK    3  A    between atoms: C_3  and  C_4
REMARK    4  A    between atoms: N_6  and  C_7
REMARK    5  A    between atoms: C_10  and  N_11
REMARK    6  A    between atoms: C_12  and  C_14
REMARK    7  A    between atoms: C_14  and  C_15
REMARK    8  A    between atoms: C_15  and  C_16
REMARK    9  A    between atoms: N_17  and  N_18
REMARK   10  A    between atoms: N_18  and  C_19
REMARK   11  A    between atoms: N_27  and  N_28
REMARK   12  A    between atoms: N_28  and  C_29
REMARK                            x       y       z     vdW  Elec       q    Type
REMARK                         _______ _______ _______ _____ _____    ______ ____
ROOT
ATOM      1  C   UNL     1       1.094  10.012  19.318  0.00  0.00    +0.000 C 
ATOM      2  C   UNL     1       1.644   9.186  18.431  0.00  0.00    +0.000 C 
ATOM      3  C   UNL     1       2.236   7.922  18.747  0.00  0.00    +0.000 C 
ATOM      4  C   UNL     1       2.043   7.366  19.940  0.00  0.00    +0.000 C 
ATOM      5  C   UNL     1       1.231   8.080  20.993  0.00  0.00    +0.000 C 
ATOM      6  C   UNL     1       1.156   9.626  20.784  0.00  0.00    +0.000 C 
ENDROOT
BRANCH   1   9
ATOM      7  C   UNL     1      -0.677  11.495  18.347  0.00  0.00    +0.000 C 
ATOM      8  O   UNL     1      -0.950  12.644  18.002  0.00  0.00    +0.000 OA
ATOM      9  N   UNL     1       0.508  11.226  18.996  0.00  0.00    +0.000 N 
ATOM     10  H   UNL     1       0.989  12.068  19.287  0.00  0.00    +0.000 HD
BRANCH   7  11
ATOM     11  C   UNL     1      -1.668  10.364  18.146  0.00  0.00    +0.000 C 
BRANCH  11  13
ATOM     12  C   UNL     1      -2.651   9.594  15.808  0.00  0.00    +0.000 C 
ATOM     13  C   UNL     1      -2.683  10.504  17.021  0.00  0.00    +0.000 C 
ATOM     14  N   UNL     1      -3.719  11.287  17.077  0.00  0.00    +0.000 NA
BRANCH  14  15
ATOM     15  N   UNL     1      -3.901  12.073  18.170  0.00  0.00    +0.000 N 
ATOM     16  H   UNL     1      -3.837  13.081  18.034  0.00  0.00    +0.000 HD
BRANCH  15  17
ATOM     17  C   UNL     1      -5.035  11.727  18.948  0.00  0.00    +0.000 A 
ATOM     18  C   UNL     1      -5.905  10.698  18.550  0.00  0.00    +0.000 A 
ATOM     19  C   UNL     1      -7.046  10.394  19.296  0.00  0.00    +0.000 A 
ATOM     20  C   UNL     1      -7.323  11.103  20.461  0.00  0.00    +0.000 A 
ATOM     21  C   UNL     1      -6.442  12.093  20.895  0.00  0.00    +0.000 A 
ATOM     22  C   UNL     1      -5.295  12.389  20.152  0.00  0.00    +0.000 A 
ENDBRANCH  15  17
ENDBRANCH  14  15
ENDBRANCH  11  13
ENDBRANCH   7  11
ENDBRANCH   1   9
BRANCH   4  23
ATOM     23  N   UNL     1       2.613   6.150  20.257  0.00  0.00    +0.000 N 
ATOM     24  C   UNL     1       1.837   5.008  20.437  0.00  0.00    +0.000 C 
ATOM     25  O   UNL     1       0.608   4.982  20.396  0.00  0.00    +0.000 OA
ATOM     26  H   UNL     1       3.592   6.034  20.040  0.00  0.00    +0.000 HD
BRANCH  24  27
ATOM     27  C   UNL     1       2.638   3.751  20.651  0.00  0.00    +0.000 C 
BRANCH  27  28
ATOM     28  C   UNL     1       2.755   2.793  19.487  0.00  0.00    +0.000 C 
ATOM     29  C   UNL     1       1.550   2.061  18.931  0.00  0.00    +0.000 C 
ATOM     30  N   UNL     1       3.855   2.580  18.827  0.00  0.00    +0.000 NA
BRANCH  30  31
ATOM     31  N   UNL     1       4.998   3.222  19.169  0.00  0.00    +0.000 N 
ATOM     32  H   UNL     1       5.807   2.711  19.512  0.00  0.00    +0.000 HD
BRANCH  31  33
ATOM     33  C   UNL     1       5.327   4.380  18.422  0.00  0.00    +0.000 A 
ATOM     34  C   UNL     1       6.356   5.250  18.815  0.00  0.00    +0.000 A 
ATOM     35  C   UNL     1       6.723   6.344  18.028  0.00  0.00    +0.000 A 
ATOM     36  C   UNL     1       6.073   6.579  16.822  0.00  0.00    +0.000 A 
ATOM     37  C   UNL     1       5.064   5.714  16.400  0.00  0.00    +0.000 A 
ATOM     38  C   UNL     1       4.703   4.616  17.190  0.00  0.00    +0.000 A 
ENDBRANCH  31  33
ENDBRANCH  30  31
ENDBRANCH  27  28
ENDBRANCH  24  27
ENDBRANCH   4  23
TORSDOF 10
ENDMDL
MODEL 2
REMARK VINA RESULT:      -8.7      1.172      1.634
REMARK  Name = 
REMARK  12 active torsions:
REMARK  status: ('A' for Active; 'I' for Inactive)
REMARK    1  A    between atoms: C_1  and  C_2
REMARK    2  A    between atoms: C_2  and  C_3
REMARK    3  A    between atoms: C_3  and  C_4
REMARK    4  A    between atoms: N_6  and  C_7
REMARK    5  A    between atoms: C_10  and  N_11
REMARK    6  A    between atoms: C_12  and  C_14
REMARK    7  A    between atoms: C_14  and  C_15
REMARK    8  A    between atoms: C_15  and  C_16
REMARK    9  A    between atoms: N_17  and  N_18
REMARK   10  A    between atoms: N_18  and  C_19
REMARK   11  A    between atoms: N_27  and  N_28
REMARK   12  A    between atoms: N_28  and  C_29
REMARK                            x       y       z     vdW  Elec       q    Type
REMARK                         _______ _______ _______ _____ _____    ______ ____
ROOT
ATOM      1  C   UNL     1       1.393   9.634  19.217  0.00  0.00    +0.000 C 
ATOM      2  C   UNL     1       1.852   9.046  18.115  0.00  0.00    +0.000 C 
ATOM      3  C   UNL     1       2.397   7.724  18.060  0.00  0.00    +0.000 C 
ATOM      4  C   UNL     1       2.242   6.887  19.083  0.00  0.00    +0.000 C 
ATOM      5  C   UNL     1       1.526   7.333  20.333  0.00  0.00    +0.000 C 
ATOM      6  C   UNL     1       1.516   8.883  20.529  0.00  0.00    +0.000 C 
ENDROOT
BRANCH   1   9
ATOM      7  C   UNL     1      -0.391  11.357  18.860  0.00  0.00    +0.000 C 
ATOM      8  O   UNL     1      -0.632  12.563  18.814  0.00  0.00    +0.000 OA
ATOM      9  N   UNL     1       0.850  10.910  19.253  0.00  0.00    +0.000 N 
ATOM     10  H   UNL     1       1.422  11.649  19.643  0.00  0.00    +0.000 HD
BRANCH   7  11
ATOM     11  C   UNL     1      -1.473  10.334  18.570  0.00  0.00    +0.000 C 
BRANCH  11  13
ATOM     12  C   UNL     1      -2.444   9.840  16.154  0.00  0.00    +0.000 C 
ATOM     13  C   UNL     1      -2.451  10.638  17.443  0.00  0.00    +0.000 C 
ATOM     14  N   UNL     1      -3.439  11.476  17.552  0.00  0.00    +0.000 NA
BRANCH  14  15
ATOM     15  N   UNL     1      -3.599  12.171  18.708  0.00  0.00    +0.000 N 
ATOM     16  H   UNL     1      -3.227  13.118  18.738  0.00  0.00    +0.000 HD
BRANCH  15  17
ATOM     17  C   UNL     1      -4.914  12.115  19.237  0.00  0.00    +0.000 A 
ATOM     18  C   UNL     1      -5.192  12.534  20.548  0.00  0.00    +0.000 A 
ATOM     19  C   UNL     1      -6.480  12.432  21.078  0.00  0.00    +0.000 A 
ATOM     20  C   UNL     1      -7.513  11.926  20.296  0.00  0.00    +0.000 A 
ATOM     21  C   UNL     1      -7.264  11.552  18.976  0.00  0.00    +0.000 A 
ATOM     22  C   UNL     1      -5.975  11.665  18.444  0.00  0.00    +0.000 A 
ENDBRANCH  15  17
ENDBRANCH  14  15
ENDBRANCH  11  13
ENDBRANCH   7  11
ENDBRANCH   1   9
BRANCH   4  23
ATOM     23  N   UNL     1       2.769   5.612  19.042  0.00  0.00    +0.000 N 
ATOM     24  C   UNL     1       2.208   4.620  18.241  0.00  0.00    +0.000 C 
ATOM     25  O   UNL     1       1.190   4.756  17.566  0.00  0.00    +0.000 OA
ATOM     26  H   UNL     1       3.728   5.503  19.337  0.00  0.00    +0.000 HD
BRANCH  24  27
ATOM     27  C   UNL     1       2.988   3.332  18.227  0.00  0.00    +0.000 C 
BRANCH  27  28
ATOM     28  C   UNL     1       4.063   3.157  19.277  0.00  0.00    +0.000 C 
ATOM     29  C   UNL     1       3.772   2.513  20.617  0.00  0.00    +0.000 C 
ATOM     30  N   UNL     1       5.313   3.462  19.096  0.00  0.00    +0.000 NA
BRANCH  30  31
ATOM     31  N   UNL     1       5.732   3.982  17.918  0.00  0.00    +0.000 N 
ATOM     32  H   UNL     1       5.214   3.824  17.058  0.00  0.00    +0.000 HD
BRANCH  31  33
ATOM     33  C   UNL     1       6.383   5.239  17.970  0.00  0.00    +0.000 A 
ATOM     34  C   UNL     1       7.490   5.469  18.801  0.00  0.00    +0.000 A 
ATOM     35  C   UNL     1       8.171   6.689  18.784  0.00  0.00    +0.000 A 
ATOM     36  C   UNL     1       7.762   7.699  17.920  0.00  0.00    +0.000 A 
ATOM     37  C   UNL     1       6.680   7.484  17.069  0.00  0.00    +0.000 A 
ATOM     38  C   UNL     1       6.003   6.259  17.086  0.00  0.00    +0.000 A 
ENDBRANCH  31  33
ENDBRANCH  30  31
ENDBRANCH  27  28
ENDBRANCH  24  27
ENDBRANCH   4  23
TORSDOF 10
ENDMDL
MODEL 3
REMARK VINA RESULT:      -8.7      1.136      1.836
REMARK  Name = 
REMARK  12 active torsions:
REMARK  status: ('A' for Active; 'I' for Inactive)
REMARK    1  A    between atoms: C_1  and  C_2
REMARK    2  A    between atoms: C_2  and  C_3
REMARK    3  A    between atoms: C_3  and  C_4
REMARK    4  A    between atoms: N_6  and  C_7
REMARK    5  A    between atoms: C_10  and  N_11
REMARK    6  A    between atoms: C_12  and  C_14
REMARK    7  A    between atoms: C_14  and  C_15
REMARK    8  A    between atoms: C_15  and  C_16
REMARK    9  A    between atoms: N_17  and  N_18
REMARK   10  A    between atoms: N_18  and  C_19
REMARK   11  A    between atoms: N_27  and  N_28
REMARK   12  A    between atoms: N_28  and  C_29
REMARK                            x       y       z     vdW  Elec       q    Type
REMARK                         _______ _______ _______ _____ _____    ______ ____
ROOT
ATOM      1  C   UNL     1       1.325   9.865  18.721  0.00  0.00    +0.000 C 
ATOM      2  C   UNL     1       1.833   8.925  17.928  0.00  0.00    +0.000 C 
ATOM      3  C   UNL     1       2.404   7.694  18.382  0.00  0.00    +0.000 C 
ATOM      4  C   UNL     1       2.228   7.291  19.637  0.00  0.00    +0.000 C 
ATOM      5  C   UNL     1       1.461   8.146  20.614  0.00  0.00    +0.000 C 
ATOM      6  C   UNL     1       1.415   9.657  20.221  0.00  0.00    +0.000 C 
ENDROOT
BRANCH   1   9
ATOM      7  C   UNL     1      -0.487  11.583  18.509  0.00  0.00    +0.000 C 
ATOM      8  O   UNL     1      -0.873  12.568  17.879  0.00  0.00    +0.000 OA
ATOM      9  N   UNL     1       0.758  11.047  18.267  0.00  0.00    +0.000 N 
ATOM     10  H   UNL     1       1.329  11.643  17.682  0.00  0.00    +0.000 HD
BRANCH   7  11
ATOM     11  C   UNL     1      -1.331  10.989  19.621  0.00  0.00    +0.000 C 
BRANCH  11  13
ATOM     12  C   UNL     1      -1.006  12.084  22.013  0.00  0.00    +0.000 C 
ATOM     13  C   UNL     1      -1.798  11.922  20.730  0.00  0.00    +0.000 C 
ATOM     14  N   UNL     1      -2.797  12.743  20.608  0.00  0.00    +0.000 NA
BRANCH  14  15
ATOM     15  N   UNL     1      -3.515  12.754  19.454  0.00  0.00    +0.000 N 
ATOM     16  H   UNL     1      -3.063  12.376  18.622  0.00  0.00    +0.000 HD
BRANCH  15  17
ATOM     17  C   UNL     1      -4.838  12.265  19.593  0.00  0.00    +0.000 A 
ATOM     18  C   UNL     1      -5.514  11.673  18.513  0.00  0.00    +0.000 A 
ATOM     19  C   UNL     1      -6.834  11.236  18.644  0.00  0.00    +0.000 A 
ATOM     20  C   UNL     1      -7.491  11.369  19.864  0.00  0.00    +0.000 A 
ATOM     21  C   UNL     1      -6.816  11.908  20.959  0.00  0.00    +0.000 A 
ATOM     22  C   UNL     1      -5.491  12.336  20.828  0.00  0.00    +0.000 A 
ENDBRANCH  15  17
ENDBRANCH  14  15
ENDBRANCH  11  13
ENDBRANCH   7  11
ENDBRANCH   1   9
BRANCH   4  23
ATOM     23  N   UNL     1       2.779   6.108  20.086  0.00  0.00    +0.000 N 
ATOM     24  C   UNL     1       1.981   5.023  20.439  0.00  0.00    +0.000 C 
ATOM     25  O   UNL     1       0.752   5.030  20.447  0.00  0.00    +0.000 OA
ATOM     26  H   UNL     1       3.745   5.934  19.850  0.00  0.00    +0.000 HD
BRANCH  24  27
ATOM     27  C   UNL     1       2.757   3.779  20.783  0.00  0.00    +0.000 C 
BRANCH  27  28
ATOM     28  C   UNL     1       2.896   2.724  19.707  0.00  0.00    +0.000 C 
ATOM     29  C   UNL     1       1.714   1.897  19.244  0.00  0.00    +0.000 C 
ATOM     30  N   UNL     1       3.992   2.497  19.048  0.00  0.00    +0.000 NA
BRANCH  30  31
ATOM     31  N   UNL     1       5.113   3.213  19.307  0.00  0.00    +0.000 N 
ATOM     32  H   UNL     1       5.941   2.773  19.699  0.00  0.00    +0.000 HD
BRANCH  31  33
ATOM     33  C   UNL     1       5.398   4.292  18.435  0.00  0.00    +0.000 A 
ATOM     34  C   UNL     1       4.740   4.447  17.205  0.00  0.00    +0.000 A 
ATOM     35  C   UNL     1       4.972   5.558  16.390  0.00  0.00    +0.000 A 
ATOM     36  C   UNL     1       5.862   6.545  16.802  0.00  0.00    +0.000 A 
ATOM     37  C   UNL     1       6.508   6.423  18.031  0.00  0.00    +0.000 A 
ATOM     38  C   UNL     1       6.269   5.310  18.846  0.00  0.00    +0.000 A 
ENDBRANCH  31  33
ENDBRANCH  30  31
ENDBRANCH  27  28
ENDBRANCH  24  27
ENDBRANCH   4  23
TORSDOF 10
ENDMDL
MODEL 4
REMARK VINA RESULT:      -8.6      1.206      1.953
REMARK  Name = 
REMARK  12 active torsions:
REMARK  status: ('A' for Active; 'I' for Inactive)
REMARK    1  A    between atoms: C_1  and  C_2
REMARK    2  A    between atoms: C_2  and  C_3
REMARK    3  A    between atoms: C_3  and  C_4
REMARK    4  A    between atoms: N_6  and  C_7
REMARK    5  A    between atoms: C_10  and  N_11
REMARK    6  A    between atoms: C_12  and  C_14
REMARK    7  A    between atoms: C_14  and  C_15
REMARK    8  A    between atoms: C_15  and  C_16
REMARK    9  A    between atoms: N_17  and  N_18
REMARK   10  A    between atoms: N_18  and  C_19
REMARK   11  A    between atoms: N_27  and  N_28
REMARK   12  A    between atoms: N_28  and  C_29
REMARK                            x       y       z     vdW  Elec       q    Type
REMARK                         _______ _______ _______ _____ _____    ______ ____
ROOT
ATOM      1  C   UNL     1       0.716   9.808  19.214  0.00  0.00    +0.000 C 
ATOM      2  C   UNL     1       0.677   9.298  20.442  0.00  0.00    +0.000 C 
ATOM      3  C   UNL     1       1.232   8.034  20.820  0.00  0.00    +0.000 C 
ATOM      4  C   UNL     1       2.060   7.389  20.004  0.00  0.00    +0.000 C 
ATOM      5  C   UNL     1       2.396   7.960  18.649  0.00  0.00    +0.000 C 
ATOM      6  C   UNL     1       1.328   8.965  18.111  0.00  0.00    +0.000 C 
ENDROOT
BRANCH   1   9
ATOM      7  C   UNL     1      -0.980  11.356  18.210  0.00  0.00    +0.000 C 
ATOM      8  O   UNL     1      -1.196  12.509  17.839  0.00  0.00    +0.000 OA
ATOM      9  N   UNL     1       0.190  11.043  18.864  0.00  0.00    +0.000 N 
ATOM     10  H   UNL     1       0.714  11.866  19.136  0.00  0.00    +0.000 HD
BRANCH   7  11
ATOM     11  C   UNL     1      -2.027  10.272  18.035  0.00  0.00    +0.000 C 
BRANCH  11  13
ATOM     12  C   UNL     1      -2.661  10.224  15.462  0.00  0.00    +0.000 C 
ATOM     13  C   UNL     1      -3.042  10.442  16.914  0.00  0.00    +0.000 C 
ATOM     14  N   UNL     1      -4.312  10.632  17.113  0.00  0.00    +0.000 NA
BRANCH  14  15
ATOM     15  N   UNL     1      -4.778  10.738  18.385  0.00  0.00    +0.000 N 
ATOM     16  H   UNL     1      -4.103  10.623  19.139  0.00  0.00    +0.000 HD
BRANCH  15  17
ATOM     17  C   UNL     1      -5.610  11.867  18.601  0.00  0.00    +0.000 A 
ATOM     18  C   UNL     1      -5.242  12.882  19.500  0.00  0.00    +0.000 A 
ATOM     19  C   UNL     1      -6.087  13.966  19.743  0.00  0.00    +0.000 A 
ATOM     20  C   UNL     1      -7.305  14.060  19.077  0.00  0.00    +0.000 A 
ATOM     21  C   UNL     1      -7.661  13.086  18.144  0.00  0.00    +0.000 A 
ATOM     22  C   UNL     1      -6.808  12.006  17.895  0.00  0.00    +0.000 A 
ENDBRANCH  15  17
ENDBRANCH  14  15
ENDBRANCH  11  13
ENDBRANCH   7  11
ENDBRANCH   1   9
BRANCH   4  23
ATOM     23  N   UNL     1       2.596   6.167  20.357  0.00  0.00    +0.000 N 
ATOM     24  C   UNL     1       2.285   5.007  19.653  0.00  0.00    +0.000 C 
ATOM     25  O   UNL     1       1.485   4.945  18.721  0.00  0.00    +0.000 OA
ATOM     26  H   UNL     1       3.441   6.179  20.909  0.00  0.00    +0.000 HD
BRANCH  24  27
ATOM     27  C   UNL     1       3.058   3.794  20.100  0.00  0.00    +0.000 C 
BRANCH  27  28
ATOM     28  C   UNL     1       3.874   3.064  19.057  0.00  0.00    +0.000 C 
ATOM     29  C   UNL     1       3.254   2.032  18.136  0.00  0.00    +0.000 C 
ATOM     30  N   UNL     1       5.127   3.309  18.810  0.00  0.00    +0.000 NA
BRANCH  30  31
ATOM     31  N   UNL     1       5.793   4.259  19.509  0.00  0.00    +0.000 N 
ATOM     32  H   UNL     1       6.339   4.022  20.333  0.00  0.00    +0.000 HD
BRANCH  31  33
ATOM     33  C   UNL     1       6.319   5.346  18.769  0.00  0.00    +0.000 A 
ATOM     34  C   UNL     1       5.568   6.006  17.783  0.00  0.00    +0.000 A 
ATOM     35  C   UNL     1       6.070   7.127  17.116  0.00  0.00    +0.000 A 
ATOM     36  C   UNL     1       7.332   7.616  17.435  0.00  0.00    +0.000 A 
ATOM     37  C   UNL     1       8.085   6.990  18.427  0.00  0.00    +0.000 A 
ATOM     38  C   UNL     1       7.577   5.870  19.096  0.00  0.00    +0.000 A 
ENDBRANCH  31  33
ENDBRANCH  30  31
ENDBRANCH  27  28
ENDBRANCH  24  27
ENDBRANCH   4  23
TORSDOF 10
ENDMDL
MODEL 5
REMARK VINA RESULT:      -8.4      0.597      1.305
REMARK  Name = 
REMARK  12 active torsions:
REMARK  status: ('A' for Active; 'I' for Inactive)
REMARK    1  A    between atoms: C_1  and  C_2
REMARK    2  A    between atoms: C_2  and  C_3
REMARK    3  A    between atoms: C_3  and  C_4
REMARK    4  A    between atoms: N_6  and  C_7
REMARK    5  A    between atoms: C_10  and  N_11
REMARK    6  A    between atoms: C_12  and  C_14
REMARK    7  A    between atoms: C_14  and  C_15
REMARK    8  A    between atoms: C_15  and  C_16
REMARK    9  A    between atoms: N_17  and  N_18
REMARK   10  A    between atoms: N_18  and  C_19
REMARK   11  A    between atoms: N_27  and  N_28
REMARK   12  A    between atoms: N_28  and  C_29
REMARK                            x       y       z     vdW  Elec       q    Type
REMARK                         _______ _______ _______ _____ _____    ______ ____
ROOT
ATOM      1  C   UNL     1       0.876  10.152  19.624  0.00  0.00    +0.000 C 
ATOM      2  C   UNL     1       1.507   9.287  18.835  0.00  0.00    +0.000 C 
ATOM      3  C   UNL     1       2.030   8.024  19.259  0.00  0.00    +0.000 C 
ATOM      4  C   UNL     1       1.687   7.514  20.439  0.00  0.00    +0.000 C 
ATOM      5  C   UNL     1       0.775   8.278  21.366  0.00  0.00    +0.000 C 
ATOM      6  C   UNL     1       0.759   9.817  21.099  0.00  0.00    +0.000 C 
ENDROOT
BRANCH   1   9
ATOM      7  C   UNL     1      -0.747  11.633  18.418  0.00  0.00    +0.000 C 
ATOM      8  O   UNL     1      -0.954  12.773  18.003  0.00  0.00    +0.000 OA
ATOM      9  N   UNL     1       0.357  11.365  19.196  0.00  0.00    +0.000 N 
ATOM     10  H   UNL     1       0.827  12.207  19.503  0.00  0.00    +0.000 HD
BRANCH   7  11
ATOM     11  C   UNL     1      -1.741  10.517  18.159  0.00  0.00    +0.000 C 
BRANCH  11  13
ATOM     12  C   UNL     1      -2.802   9.945  15.799  0.00  0.00    +0.000 C 
ATOM     13  C   UNL     1      -2.798  10.744  17.087  0.00  0.00    +0.000 C 
ATOM     14  N   UNL     1      -3.837  11.507  17.249  0.00  0.00    +0.000 NA
BRANCH  14  15
ATOM     15  N   UNL     1      -3.986  12.192  18.413  0.00  0.00    +0.000 N 
ATOM     16  H   UNL     1      -3.812  13.196  18.388  0.00  0.00    +0.000 HD
BRANCH  15  17
ATOM     17  C   UNL     1      -5.183  11.890  19.111  0.00  0.00    +0.000 A 
ATOM     18  C   UNL     1      -5.594  12.651  20.217  0.00  0.00    +0.000 A 
ATOM     19  C   UNL     1      -6.749  12.320  20.928  0.00  0.00    +0.000 A 
ATOM     20  C   UNL     1      -7.520  11.231  20.531  0.00  0.00    +0.000 A 
ATOM     21  C   UNL     1      -7.152  10.497  19.404  0.00  0.00    +0.000 A 
ATOM     22  C   UNL     1      -6.000  10.837  18.688  0.00  0.00    +0.000 A 
ENDBRANCH  15  17
ENDBRANCH  14  15
ENDBRANCH  11  13
ENDBRANCH   7  11
ENDBRANCH   1   9
BRANCH   4  23
ATOM     23  N   UNL     1       2.191   6.299  20.859  0.00  0.00    +0.000 N 
ATOM     24  C   UNL     1       2.027   5.143  20.100  0.00  0.00    +0.000 C 
ATOM     25  O   UNL     1       1.389   5.077  19.052  0.00  0.00    +0.000 OA
ATOM     26  H   UNL     1       2.936   6.323  21.539  0.00  0.00    +0.000 HD
BRANCH  24  27
ATOM     27  C   UNL     1       2.749   3.942  20.652  0.00  0.00    +0.000 C 
BRANCH  27  28
ATOM     28  C   UNL     1       2.984   2.779  19.713  0.00  0.00    +0.000 C 
ATOM     29  C   UNL     1       1.874   1.817  19.342  0.00  0.00    +0.000 C 
ATOM     30  N   UNL     1       4.107   2.557  19.097  0.00  0.00    +0.000 NA
BRANCH  30  31
ATOM     31  N   UNL     1       5.167   3.380  19.278  0.00  0.00    +0.000 N 
ATOM     32  H   UNL     1       5.902   3.155  19.943  0.00  0.00    +0.000 HD
BRANCH  31  33
ATOM     33  C   UNL     1       5.623   4.094  18.143  0.00  0.00    +0.000 A 
ATOM     34  C   UNL     1       4.866   4.177  16.964  0.00  0.00    +0.000 A 
ATOM     35  C   UNL     1       5.291   4.950  15.880  0.00  0.00    +0.000 A 
ATOM     36  C   UNL     1       6.480   5.666  15.964  0.00  0.00    +0.000 A 
ATOM     37  C   UNL     1       7.235   5.617  17.133  0.00  0.00    +0.000 A 
ATOM     38  C   UNL     1       6.804   4.845  18.219  0.00  0.00    +0.000 A 
ENDBRANCH  31  33
ENDBRANCH  30  31
ENDBRANCH  27  28
ENDBRANCH  24  27
ENDBRANCH   4  23
TORSDOF 10
ENDMDL
MODEL 6
REMARK VINA RESULT:      -8.1      3.868      6.632
REMARK  Name = 
REMARK  12 active torsions:
REMARK  status: ('A' for Active; 'I' for Inactive)
REMARK    1  A    between atoms: C_1  and  C_2
REMARK    2  A    between atoms: C_2  and  C_3
REMARK    3  A    between atoms: C_3  and  C_4
REMARK    4  A    between atoms: N_6  and  C_7
REMARK    5  A    between atoms: C_10  and  N_11
REMARK    6  A    between atoms: C_12  and  C_14
REMARK    7  A    between atoms: C_14  and  C_15
REMARK    8  A    between atoms: C_15  and  C_16
REMARK    9  A    between atoms: N_17  and  N_18
REMARK   10  A    between atoms: N_18  and  C_19
REMARK   11  A    between atoms: N_27  and  N_28
REMARK   12  A    between atoms: N_28  and  C_29
REMARK                            x       y       z     vdW  Elec       q    Type
REMARK                         _______ _______ _______ _____ _____    ______ ____
ROOT
ATOM      1  C   UNL     1       0.675   9.959  18.874  0.00  0.00    +0.000 C 
ATOM      2  C   UNL     1       0.827   9.497  20.113  0.00  0.00    +0.000 C 
ATOM      3  C   UNL     1       1.489   8.276  20.455  0.00  0.00    +0.000 C 
ATOM      4  C   UNL     1       2.232   7.636  19.556  0.00  0.00    +0.000 C 
ATOM      5  C   UNL     1       2.354   8.167  18.149  0.00  0.00    +0.000 C 
ATOM      6  C   UNL     1       1.174   9.100  17.728  0.00  0.00    +0.000 C 
ENDROOT
BRANCH   1   9
ATOM      7  C   UNL     1       0.532  12.442  18.573  0.00  0.00    +0.000 C 
ATOM      8  O   UNL     1      -0.230  13.396  18.419  0.00  0.00    +0.000 OA
ATOM      9  N   UNL     1       0.047  11.154  18.558  0.00  0.00    +0.000 N 
ATOM     10  H   UNL     1      -0.914  11.107  18.242  0.00  0.00    +0.000 HD
BRANCH   7  11
ATOM     11  C   UNL     1       2.029  12.653  18.697  0.00  0.00    +0.000 C 
BRANCH  11  13
ATOM     12  C   UNL     1       1.895  13.765  21.099  0.00  0.00    +0.000 C 
ATOM     13  C   UNL     1       2.519  13.668  19.720  0.00  0.00    +0.000 C 
ATOM     14  N   UNL     1       3.577  14.404  19.557  0.00  0.00    +0.000 NA
BRANCH  14  15
ATOM     15  N   UNL     1       4.275  14.319  18.393  0.00  0.00    +0.000 N 
ATOM     16  H   UNL     1       3.751  14.436  17.527  0.00  0.00    +0.000 HD
BRANCH  15  17
ATOM     17  C   UNL     1       5.472  15.080  18.382  0.00  0.00    +0.000 A 
ATOM     18  C   UNL     1       5.524  16.365  18.945  0.00  0.00    +0.000 A 
ATOM     19  C   UNL     1       6.693  17.127  18.889  0.00  0.00    +0.000 A 
ATOM     20  C   UNL     1       7.833  16.606  18.283  0.00  0.00    +0.000 A 
ATOM     21  C   UNL     1       7.810  15.312  17.764  0.00  0.00    +0.000 A 
ATOM     22  C   UNL     1       6.641  14.547  17.831  0.00  0.00    +0.000 A 
ENDBRANCH  15  17
ENDBRANCH  14  15
ENDBRANCH  11  13
ENDBRANCH   7  11
ENDBRANCH   1   9
BRANCH   4  23
ATOM     23  N   UNL     1       2.870   6.454  19.875  0.00  0.00    +0.000 N 
ATOM     24  C   UNL     1       2.155   5.329  20.278  0.00  0.00    +0.000 C 
ATOM     25  O   UNL     1       0.938   5.294  20.444  0.00  0.00    +0.000 OA
ATOM     26  H   UNL     1       3.801   6.324  19.508  0.00  0.00    +0.000 HD
BRANCH  24  27
ATOM     27  C   UNL     1       3.004   4.099  20.461  0.00  0.00    +0.000 C 
BRANCH  27  28
ATOM     28  C   UNL     1       3.312   3.274  19.230  0.00  0.00    +0.000 C 
ATOM     29  C   UNL     1       2.219   2.581  18.442  0.00  0.00    +0.000 C 
ATOM     30  N   UNL     1       4.496   3.158  18.709  0.00  0.00    +0.000 NA
BRANCH  30  31
ATOM     31  N   UNL     1       5.559   3.785  19.269  0.00  0.00    +0.000 N 
ATOM     32  H   UNL     1       6.262   3.268  19.791  0.00  0.00    +0.000 HD
BRANCH  31  33
ATOM     33  C   UNL     1       6.074   4.910  18.579  0.00  0.00    +0.000 A 
ATOM     34  C   UNL     1       5.355   5.546  17.554  0.00  0.00    +0.000 A 
ATOM     35  C   UNL     1       5.839   6.702  16.937  0.00  0.00    +0.000 A 
ATOM     36  C   UNL     1       7.050   7.251  17.345  0.00  0.00    +0.000 A 
ATOM     37  C   UNL     1       7.768   6.649  18.377  0.00  0.00    +0.000 A 
ATOM     38  C   UNL     1       7.278   5.494  18.996  0.00  0.00    +0.000 A 
ENDBRANCH  31  33
ENDBRANCH  30  31
ENDBRANCH  27  28
ENDBRANCH  24  27
ENDBRANCH   4  23
TORSDOF 10
ENDMDL
MODEL 7
REMARK VINA RESULT:      -8.1      1.395      1.931
REMARK  Name = 
REMARK  12 active torsions:
REMARK  status: ('A' for Active; 'I' for Inactive)
REMARK    1  A    between atoms: C_1  and  C_2
REMARK    2  A    between atoms: C_2  and  C_3
REMARK    3  A    between atoms: C_3  and  C_4
REMARK    4  A    between atoms: N_6  and  C_7
REMARK    5  A    between atoms: C_10  and  N_11
REMARK    6  A    between atoms: C_12  and  C_14
REMARK    7  A    between atoms: C_14  and  C_15
REMARK    8  A    between atoms: C_15  and  C_16
REMARK    9  A    between atoms: N_17  and  N_18
REMARK   10  A    between atoms: N_18  and  C_19
REMARK   11  A    between atoms: N_27  and  N_28
REMARK   12  A    between atoms: N_28  and  C_29
REMARK                            x       y       z     vdW  Elec       q    Type
REMARK                         _______ _______ _______ _____ _____    ______ ____
ROOT
ATOM      1  C   UNL     1       1.289  10.207  18.756  0.00  0.00    +0.000 C 
ATOM      2  C   UNL     1       1.716   9.304  17.877  0.00  0.00    +0.000 C 
ATOM      3  C   UNL     1       2.320   8.052  18.218  0.00  0.00    +0.000 C 
ATOM      4  C   UNL     1       2.262   7.593  19.465  0.00  0.00    +0.000 C 
ATOM      5  C   UNL     1       1.594   8.403  20.548  0.00  0.00    +0.000 C 
ATOM      6  C   UNL     1       1.520   9.931  20.230  0.00  0.00    +0.000 C 
ENDROOT
BRANCH   1   9
ATOM      7  C   UNL     1      -0.590  11.862  18.653  0.00  0.00    +0.000 C 
ATOM      8  O   UNL     1      -0.994  12.895  18.120  0.00  0.00    +0.000 OA
ATOM      9  N   UNL     1       0.688  11.409  18.412  0.00  0.00    +0.000 N 
ATOM     10  H   UNL     1       1.255  12.091  17.926  0.00  0.00    +0.000 HD
BRANCH   7  11
ATOM     11  C   UNL     1      -1.452  11.110  19.649  0.00  0.00    +0.000 C 
BRANCH  11  13
ATOM     12  C   UNL     1      -1.032  11.690  22.201  0.00  0.00    +0.000 C 
ATOM     13  C   UNL     1      -1.847  11.832  20.930  0.00  0.00    +0.000 C 
ATOM     14  N   UNL     1      -2.794  12.719  20.995  0.00  0.00    +0.000 NA
BRANCH  14  15
ATOM     15  N   UNL     1      -3.522  12.999  19.882  0.00  0.00    +0.000 N 
ATOM     16  H   UNL     1      -3.063  12.872  18.981  0.00  0.00    +0.000 HD
BRANCH  15  17
ATOM     17  C   UNL     1      -4.822  12.433  19.885  0.00  0.00    +0.000 A 
ATOM     18  C   UNL     1      -5.320  11.742  18.769  0.00  0.00    +0.000 A 
ATOM     19  C   UNL     1      -6.618  11.227  18.762  0.00  0.00    +0.000 A 
ATOM     20  C   UNL     1      -7.432  11.382  19.880  0.00  0.00    +0.000 A 
ATOM     21  C   UNL     1      -6.935  12.022  21.015  0.00  0.00    +0.000 A 
ATOM     22  C   UNL     1      -5.630  12.528  21.023  0.00  0.00    +0.000 A 
ENDBRANCH  15  17
ENDBRANCH  14  15
ENDBRANCH  11  13
ENDBRANCH   7  11
ENDBRANCH   1   9
BRANCH   4  23
ATOM     23  N   UNL     1       2.847   6.390  19.805  0.00  0.00    +0.000 N 
ATOM     24  C   UNL     1       2.088   5.320  20.272  0.00  0.00    +0.000 C 
ATOM     25  O   UNL     1       0.877   5.357  20.481  0.00  0.00    +0.000 OA
ATOM     26  H   UNL     1       3.757   6.196  19.414  0.00  0.00    +0.000 HD
BRANCH  24  27
ATOM     27  C   UNL     1       2.876   4.052  20.472  0.00  0.00    +0.000 C 
BRANCH  27  28
ATOM     28  C   UNL     1       2.723   2.965  19.431  0.00  0.00    +0.000 C 
ATOM     29  C   UNL     1       1.447   2.158  19.302  0.00  0.00    +0.000 C 
ATOM     30  N   UNL     1       3.617   2.690  18.529  0.00  0.00    +0.000 NA
BRANCH  30  31
ATOM     31  N   UNL     1       4.781   3.382  18.479  0.00  0.00    +0.000 N 
ATOM     32  H   UNL     1       5.620   3.036  18.936  0.00  0.00    +0.000 HD
BRANCH  31  33
ATOM     33  C   UNL     1       5.036   4.119  17.296  0.00  0.00    +0.000 A 
ATOM     34  C   UNL     1       4.760   5.492  17.202  0.00  0.00    +0.000 A 
ATOM     35  C   UNL     1       5.090   6.222  16.058  0.00  0.00    +0.000 A 
ATOM     36  C   UNL     1       5.717   5.591  14.989  0.00  0.00    +0.000 A 
ATOM     37  C   UNL     1       6.022   4.233  15.071  0.00  0.00    +0.000 A 
ATOM     38  C   UNL     1       5.694   3.506  16.221  0.00  0.00    +0.000 A 
ENDBRANCH  31  33
ENDBRANCH  30  31
ENDBRANCH  27  28
ENDBRANCH  24  27
ENDBRANCH   4  23
TORSDOF 10
ENDMDL
MODEL 8
REMARK VINA RESULT:      -8.1      1.403      2.048
REMARK  Name = 
REMARK  12 active torsions:
REMARK  status: ('A' for Active; 'I' for Inactive)
REMARK    1  A    between atoms: C_1  and  C_2
REMARK    2  A    between atoms: C_2  and  C_3
REMARK    3  A    between atoms: C_3  and  C_4
REMARK    4  A    between atoms: N_6  and  C_7
REMARK    5  A    between atoms: C_10  and  N_11
REMARK    6  A    between atoms: C_12  and  C_14
REMARK    7  A    between atoms: C_14  and  C_15
REMARK    8  A    between atoms: C_15  and  C_16
REMARK    9  A    between atoms: N_17  and  N_18
REMARK   10  A    between atoms: N_18  and  C_19
REMARK   11  A    between atoms: N_27  and  N_28
REMARK   12  A    between atoms: N_28  and  C_29
REMARK                            x       y       z     vdW  Elec       q    Type
REMARK                         _______ _______ _______ _____ _____    ______ ____
ROOT
ATOM      1  C   UNL     1       1.070   9.877  18.895  0.00  0.00    +0.000 C 
ATOM      2  C   UNL     1       1.141   9.302  20.093  0.00  0.00    +0.000 C 
ATOM      3  C   UNL     1       1.655   7.990  20.340  0.00  0.00    +0.000 C 
ATOM      4  C   UNL     1       2.342   7.345  19.401  0.00  0.00    +0.000 C 
ATOM      5  C   UNL     1       2.554   7.972  18.045  0.00  0.00    +0.000 C 
ATOM      6  C   UNL     1       1.497   9.063  17.688  0.00  0.00    +0.000 C 
ENDROOT
BRANCH   1   9
ATOM      7  C   UNL     1      -0.679  11.582  18.334  0.00  0.00    +0.000 C 
ATOM      8  O   UNL     1      -0.877  12.753  18.011  0.00  0.00    +0.000 OA
ATOM      9  N   UNL     1       0.587  11.158  18.671  0.00  0.00    +0.000 N 
ATOM     10  H   UNL     1       1.235  11.927  18.785  0.00  0.00    +0.000 HD
BRANCH   7  11
ATOM     11  C   UNL     1      -1.829  10.600  18.451  0.00  0.00    +0.000 C 
BRANCH  11  13
ATOM     12  C   UNL     1      -4.081  10.552  17.054  0.00  0.00    +0.000 C 
ATOM     13  C   UNL     1      -3.234  11.119  18.176  0.00  0.00    +0.000 C 
ATOM     14  N   UNL     1      -3.858  11.954  18.952  0.00  0.00    +0.000 NA
BRANCH  14  15
ATOM     15  N   UNL     1      -3.225  12.447  20.048  0.00  0.00    +0.000 N 
ATOM     16  H   UNL     1      -2.468  13.111  19.890  0.00  0.00    +0.000 HD
BRANCH  15  17
ATOM     17  C   UNL     1      -4.102  12.895  21.068  0.00  0.00    +0.000 A 
ATOM     18  C   UNL     1      -3.834  12.644  22.424  0.00  0.00    +0.000 A 
ATOM     19  C   UNL     1      -4.726  13.047  23.420  0.00  0.00    +0.000 A 
ATOM     20  C   UNL     1      -5.891  13.724  23.074  0.00  0.00    +0.000 A 
ATOM     21  C   UNL     1      -6.147  14.025  21.737  0.00  0.00    +0.000 A 
ATOM     22  C   UNL     1      -5.247  13.629  20.742  0.00  0.00    +0.000 A 
ENDBRANCH  15  17
ENDBRANCH  14  15
ENDBRANCH  11  13
ENDBRANCH   7  11
ENDBRANCH   1   9
BRANCH   4  23
ATOM     23  N   UNL     1       2.836   6.077  19.628  0.00  0.00    +0.000 N 
ATOM     24  C   UNL     1       2.059   5.092  20.233  0.00  0.00    +0.000 C 
ATOM     25  O   UNL     1       0.921   5.264  20.666  0.00  0.00    +0.000 OA
ATOM     26  H   UNL     1       3.627   5.788  19.073  0.00  0.00    +0.000 HD
BRANCH  24  27
ATOM     27  C   UNL     1       2.718   3.739  20.285  0.00  0.00    +0.000 C 
BRANCH  27  28
ATOM     28  C   UNL     1       3.324   3.210  19.004  0.00  0.00    +0.000 C 
ATOM     29  C   UNL     1       2.492   2.479  17.970  0.00  0.00    +0.000 C 
ATOM     30  N   UNL     1       4.560   3.402  18.650  0.00  0.00    +0.000 NA
BRANCH  30  31
ATOM     31  N   UNL     1       5.404   4.103  19.446  0.00  0.00    +0.000 N 
ATOM     32  H   UNL     1       5.919   3.650  20.195  0.00  0.00    +0.000 HD
BRANCH  31  33
ATOM     33  C   UNL     1       6.096   5.184  18.847  0.00  0.00    +0.000 A 
ATOM     34  C   UNL     1       7.306   5.670  19.366  0.00  0.00    +0.000 A 
ATOM     35  C   UNL     1       8.019   6.684  18.720  0.00  0.00    +0.000 A 
ATOM     36  C   UNL     1       7.536   7.221  17.532  0.00  0.00    +0.000 A 
ATOM     37  C   UNL     1       6.349   6.737  16.986  0.00  0.00    +0.000 A 
ATOM     38  C   UNL     1       5.640   5.718  17.634  0.00  0.00    +0.000 A 
ENDBRANCH  31  33
ENDBRANCH  30  31
ENDBRANCH  27  28
ENDBRANCH  24  27
ENDBRANCH   4  23
TORSDOF 10
ENDMDL
MODEL 9
REMARK VINA RESULT:      -8.0      1.659      3.315
REMARK  Name = 
REMARK  12 active torsions:
REMARK  status: ('A' for Active; 'I' for Inactive)
REMARK    1  A    between atoms: C_1  and  C_2
REMARK    2  A    between atoms: C_2  and  C_3
REMARK    3  A    between atoms: C_3  and  C_4
REMARK    4  A    between atoms: N_6  and  C_7
REMARK    5  A    between atoms: C_10  and  N_11
REMARK    6  A    between atoms: C_12  and  C_14
REMARK    7  A    between atoms: C_14  and  C_15
REMARK    8  A    between atoms: C_15  and  C_16
REMARK    9  A    between atoms: N_17  and  N_18
REMARK   10  A    between atoms: N_18  and  C_19
REMARK   11  A    between atoms: N_27  and  N_28
REMARK   12  A    between atoms: N_28  and  C_29
REMARK                            x       y       z     vdW  Elec       q    Type
REMARK                         _______ _______ _______ _____ _____    ______ ____
ROOT
ATOM      1  C   UNL     1       1.075   9.627  19.191  0.00  0.00    +0.000 C 
ATOM      2  C   UNL     1       1.391   8.765  20.153  0.00  0.00    +0.000 C 
ATOM      3  C   UNL     1       2.068   7.521  19.947  0.00  0.00    +0.000 C 
ATOM      4  C   UNL     1       2.661   7.260  18.786  0.00  0.00    +0.000 C 
ATOM      5  C   UNL     1       2.595   8.255  17.653  0.00  0.00    +0.000 C 
ATOM      6  C   UNL     1       1.388   9.241  17.757  0.00  0.00    +0.000 C 
ENDROOT
BRANCH   1   9
ATOM      7  C   UNL     1      -0.833  11.246  19.058  0.00  0.00    +0.000 C 
ATOM      8  O   UNL     1      -1.166  12.424  19.188  0.00  0.00    +0.000 OA
ATOM      9  N   UNL     1       0.435  10.839  19.406  0.00  0.00    +0.000 N 
ATOM     10  H   UNL     1       0.944  11.550  19.916  0.00  0.00    +0.000 HD
BRANCH   7  11
ATOM     11  C   UNL     1      -1.830  10.201  18.593  0.00  0.00    +0.000 C 
BRANCH  11  13
ATOM     12  C   UNL     1      -2.357   9.962  16.007  0.00  0.00    +0.000 C 
ATOM     13  C   UNL     1      -2.682  10.529  17.375  0.00  0.00    +0.000 C 
ATOM     14  N   UNL     1      -3.809  11.173  17.436  0.00  0.00    +0.000 NA
BRANCH  14  15
ATOM     15  N   UNL     1      -4.248  11.637  18.635  0.00  0.00    +0.000 N 
ATOM     16  H   UNL     1      -3.577  12.141  19.213  0.00  0.00    +0.000 HD
BRANCH  15  17
ATOM     17  C   UNL     1      -5.490  12.318  18.571  0.00  0.00    +0.000 A 
ATOM     18  C   UNL     1      -6.074  12.655  17.339  0.00  0.00    +0.000 A 
ATOM     19  C   UNL     1      -7.274  13.367  17.283  0.00  0.00    +0.000 A 
ATOM     20  C   UNL     1      -7.916  13.736  18.461  0.00  0.00    +0.000 A 
ATOM     21  C   UNL     1      -7.375  13.366  19.691  0.00  0.00    +0.000 A 
ATOM     22  C   UNL     1      -6.178  12.644  19.744  0.00  0.00    +0.000 A 
ENDBRANCH  15  17
ENDBRANCH  14  15
ENDBRANCH  11  13
ENDBRANCH   7  11
ENDBRANCH   1   9
BRANCH   4  23
ATOM     23  N   UNL     1       3.312   6.061  18.575  0.00  0.00    +0.000 N 
ATOM     24  C   UNL     1       4.651   6.018  18.195  0.00  0.00    +0.000 C 
ATOM     25  O   UNL     1       5.344   7.005  17.956  0.00  0.00    +0.000 OA
ATOM     26  H   UNL     1       2.910   5.241  19.004  0.00  0.00    +0.000 HD
BRANCH  24  27
ATOM     27  C   UNL     1       5.225   4.627  18.134  0.00  0.00    +0.000 C 
BRANCH  27  28
ATOM     28  C   UNL     1       4.797   3.746  16.981  0.00  0.00    +0.000 C 
ATOM     29  C   UNL     1       4.976   4.177  15.539  0.00  0.00    +0.000 C 
ATOM     30  N   UNL     1       4.326   2.543  17.120  0.00  0.00    +0.000 NA
BRANCH  30  31
ATOM     31  N   UNL     1       4.178   1.999  18.352  0.00  0.00    +0.000 N 
ATOM     32  H   UNL     1       4.984   1.725  18.908  0.00  0.00    +0.000 HD
BRANCH  31  33
ATOM     33  C   UNL     1       3.080   2.453  19.123  0.00  0.00    +0.000 A 
ATOM     34  C   UNL     1       1.777   2.502  18.604  0.00  0.00    +0.000 A 
ATOM     35  C   UNL     1       0.691   2.877  19.399  0.00  0.00    +0.000 A 
ATOM     36  C   UNL     1       0.890   3.196  20.738  0.00  0.00    +0.000 A 
ATOM     37  C   UNL     1       2.172   3.132  21.280  0.00  0.00    +0.000 A 
ATOM     38  C   UNL     1       3.257   2.752  20.481  0.00  0.00    +0.000 A 
ENDBRANCH  31  33
ENDBRANCH  30  31
ENDBRANCH  27  28
ENDBRANCH  24  27
ENDBRANCH   4  23
TORSDOF 10
ENDMDL
