MODEL 1
REMARK VINA RESULT:      -6.9      0.000      0.000
REMARK  Name = 
REMARK  4 active torsions:
REMARK  status: ('A' for Active; 'I' for Inactive)
REMARK    1  A    between atoms: C_2  and  C_3
REMARK    2  A    between atoms: C_3  and  N_4
REMARK    3  A    between atoms: N_4  and  C_5
REMARK    4  A    between atoms: N_8  and  C_9
REMARK                            x       y       z     vdW  Elec       q    Type
REMARK                         _______ _______ _______ _____ _____    ______ ____
ROOT
ATOM      1  C   UNL     1       6.408   6.733  17.589  0.00  0.00    +0.000 A 
ATOM      2  C   UNL     1       5.017   6.831  17.094  0.00  0.00    +0.000 A 
ATOM      3  N   UNL     1       4.011   6.110  17.461  0.00  0.00    +0.000 NA
ATOM      4  N   UNL     1       4.226   5.162  18.444  0.00  0.00    +0.000 N 
ATOM      5  C   UNL     1       5.491   4.907  18.995  0.00  0.00    +0.000 A 
ATOM      6  O   UNL     1       5.753   4.032  19.825  0.00  0.00    +0.000 OA
ATOM      7  C   UNL     1       6.599   5.762  18.488  0.00  0.00    +0.000 A 
ATOM      8 CL   UNL     1       8.182   5.481  19.147  0.00  0.00    +0.000 Cl
ENDROOT
BRANCH   4   9
ATOM      9  C   UNL     1       3.054   4.413  18.810  0.00  0.00    +0.000 A 
ATOM     10  C   UNL     1       2.605   3.321  18.051  0.00  0.00    +0.000 A 
ATOM     11  C   UNL     1       1.423   2.644  18.370  0.00  0.00    +0.000 A 
ATOM     12  C   UNL     1       0.664   3.046  19.463  0.00  0.00    +0.000 A 
ATOM     13  C   UNL     1       1.108   4.102  20.256  0.00  0.00    +0.000 A 
ATOM     14  C   UNL     1       2.300   4.767  19.943  0.00  0.00    +0.000 A 
ENDBRANCH   4   9
BRANCH   1  15
ATOM     15  N   UNL     1       7.357   7.598  17.035  0.00  0.00    +0.000 N 
ATOM     16  H   UNL     1       8.286   7.178  17.146  0.00  0.00    +0.000 HD
BRANCH  15  17
ATOM     17  C   UNL     1       7.465   8.955  17.572  0.00  0.00    +0.000 C 
BRANCH  17  19
ATOM     18  C   UNL     1       9.194  10.069  19.018  0.00  0.00    +0.000 C 
ATOM     19  C   UNL     1       8.639   8.967  18.493  0.00  0.00    +0.000 C 
ENDBRANCH  17  19
ENDBRANCH  15  17
ENDBRANCH   1  15
TORSDOF 4
ENDMDL
MODEL 2
REMARK VINA RESULT:      -6.9      2.669      3.719
REMARK  Name = 
REMARK  4 active torsions:
REMARK  status: ('A' for Active; 'I' for Inactive)
REMARK    1  A    between atoms: C_2  and  C_3
REMARK    2  A    between atoms: C_3  and  N_4
REMARK    3  A    between atoms: N_4  and  C_5
REMARK    4  A    between atoms: N_8  and  C_9
REMARK                            x       y       z     vdW  Elec       q    Type
REMARK                         _______ _______ _______ _____ _____    ______ ____
ROOT
ATOM      1  C   UNL     1       6.330   4.483  16.467  0.00  0.00    +0.000 A 
ATOM      2  C   UNL     1       5.162   3.585  16.343  0.00  0.00    +0.000 A 
ATOM      3  N   UNL     1       4.261   3.357  17.239  0.00  0.00    +0.000 NA
ATOM      4  N   UNL     1       4.361   4.040  18.437  0.00  0.00    +0.000 N 
ATOM      5  C   UNL     1       5.426   4.900  18.739  0.00  0.00    +0.000 A 
ATOM      6  O   UNL     1       5.601   5.484  19.813  0.00  0.00    +0.000 OA
ATOM      7  C   UNL     1       6.437   5.077  17.660  0.00  0.00    +0.000 A 
ATOM      8 CL   UNL     1       7.773   6.137  17.993  0.00  0.00    +0.000 Cl
ENDROOT
BRANCH   4   9
ATOM      9  C   UNL     1       3.310   3.745  19.375  0.00  0.00    +0.000 A 
ATOM     10  C   UNL     1       3.496   2.848  20.438  0.00  0.00    +0.000 A 
ATOM     11  C   UNL     1       2.450   2.509  21.302  0.00  0.00    +0.000 A 
ATOM     12  C   UNL     1       1.189   3.066  21.120  0.00  0.00    +0.000 A 
ATOM     13  C   UNL     1       0.988   3.989  20.097  0.00  0.00    +0.000 A 
ATOM     14  C   UNL     1       2.042   4.339  19.244  0.00  0.00    +0.000 A 
ENDBRANCH   4   9
BRANCH   1  15
ATOM     15  N   UNL     1       7.205   4.566  15.379  0.00  0.00    +0.000 N 
ATOM     16  H   UNL     1       7.981   5.186  15.630  0.00  0.00    +0.000 HD
BRANCH  15  17
ATOM     17  C   UNL     1       6.690   5.066  14.104  0.00  0.00    +0.000 C 
BRANCH  17  19
ATOM     18  C   UNL     1       5.804   3.363  12.479  0.00  0.00    +0.000 C 
ATOM     19  C   UNL     1       6.825   3.957  13.114  0.00  0.00    +0.000 C 
ENDBRANCH  17  19
ENDBRANCH  15  17
ENDBRANCH   1  15
TORSDOF 4
ENDMDL
MODEL 3
REMARK VINA RESULT:      -6.9      0.565      1.265
REMARK  Name = 
REMARK  4 active torsions:
REMARK  status: ('A' for Active; 'I' for Inactive)
REMARK    1  A    between atoms: C_2  and  C_3
REMARK    2  A    between atoms: C_3  and  N_4
REMARK    3  A    between atoms: N_4  and  C_5
REMARK    4  A    between atoms: N_8  and  C_9
REMARK                            x       y       z     vdW  Elec       q    Type
REMARK                         _______ _______ _______ _____ _____    ______ ____
ROOT
ATOM      1  C   UNL     1       6.240   6.538  17.524  0.00  0.00    +0.000 A 
ATOM      2  C   UNL     1       4.816   6.866  17.297  0.00  0.00    +0.000 A 
ATOM      3  N   UNL     1       3.791   6.186  17.690  0.00  0.00    +0.000 NA
ATOM      4  N   UNL     1       4.027   5.042  18.430  0.00  0.00    +0.000 N 
ATOM      5  C   UNL     1       5.315   4.562  18.704  0.00  0.00    +0.000 A 
ATOM      6  O   UNL     1       5.584   3.516  19.302  0.00  0.00    +0.000 OA
ATOM      7  C   UNL     1       6.437   5.392  18.184  0.00  0.00    +0.000 A 
ATOM      8 CL   UNL     1       8.050   4.833  18.502  0.00  0.00    +0.000 Cl
ENDROOT
BRANCH   4   9
ATOM      9  C   UNL     1       2.835   4.351  18.845  0.00  0.00    +0.000 A 
ATOM     10  C   UNL     1       2.237   4.589  20.093  0.00  0.00    +0.000 A 
ATOM     11  C   UNL     1       1.122   3.861  20.521  0.00  0.00    +0.000 A 
ATOM     12  C   UNL     1       0.579   2.875  19.704  0.00  0.00    +0.000 A 
ATOM     13  C   UNL     1       1.130   2.646  18.446  0.00  0.00    +0.000 A 
ATOM     14  C   UNL     1       2.236   3.389  18.013  0.00  0.00    +0.000 A 
ENDBRANCH   4   9
BRANCH   1  15
ATOM     15  N   UNL     1       7.200   7.402  16.987  0.00  0.00    +0.000 N 
ATOM     16  H   UNL     1       7.704   6.909  16.243  0.00  0.00    +0.000 HD
BRANCH  15  17
ATOM     17  C   UNL     1       8.228   7.945  17.875  0.00  0.00    +0.000 C 
BRANCH  17  19
ATOM     18  C   UNL     1       8.971  10.311  18.293  0.00  0.00    +0.000 C 
ATOM     19  C   UNL     1       8.042   9.425  17.903  0.00  0.00    +0.000 C 
ENDBRANCH  17  19
ENDBRANCH  15  17
ENDBRANCH   1  15
TORSDOF 4
ENDMDL
MODEL 4
REMARK VINA RESULT:      -6.8      2.614      3.694
REMARK  Name = 
REMARK  4 active torsions:
REMARK  status: ('A' for Active; 'I' for Inactive)
REMARK    1  A    between atoms: C_2  and  C_3
REMARK    2  A    between atoms: C_3  and  N_4
REMARK    3  A    between atoms: N_4  and  C_5
REMARK    4  A    between atoms: N_8  and  C_9
REMARK                            x       y       z     vdW  Elec       q    Type
REMARK                         _______ _______ _______ _____ _____    ______ ____
ROOT
ATOM      1  C   UNL     1       5.736   5.241  16.168  0.00  0.00    +0.000 A 
ATOM      2  C   UNL     1       4.545   4.371  16.054  0.00  0.00    +0.000 A 
ATOM      3  N   UNL     1       3.790   3.961  17.017  0.00  0.00    +0.000 NA
ATOM      4  N   UNL     1       4.088   4.395  18.295  0.00  0.00    +0.000 N 
ATOM      5  C   UNL     1       5.204   5.191  18.590  0.00  0.00    +0.000 A 
ATOM      6  O   UNL     1       5.555   5.553  19.717  0.00  0.00    +0.000 OA
ATOM      7  C   UNL     1       6.038   5.589  17.423  0.00  0.00    +0.000 A 
ATOM      8 CL   UNL     1       7.430   6.578  17.744  0.00  0.00    +0.000 Cl
ENDROOT
BRANCH   4   9
ATOM      9  C   UNL     1       3.191   3.909  19.309  0.00  0.00    +0.000 A 
ATOM     10  C   UNL     1       1.899   4.436  19.470  0.00  0.00    +0.000 A 
ATOM     11  C   UNL     1       1.059   4.011  20.504  0.00  0.00    +0.000 A 
ATOM     12  C   UNL     1       1.495   3.044  21.403  0.00  0.00    +0.000 A 
ATOM     13  C   UNL     1       2.757   2.477  21.243  0.00  0.00    +0.000 A 
ATOM     14  C   UNL     1       3.590   2.893  20.195  0.00  0.00    +0.000 A 
ENDBRANCH   4   9
BRANCH   1  15
ATOM     15  N   UNL     1       6.432   5.547  14.994  0.00  0.00    +0.000 N 
ATOM     16  H   UNL     1       5.760   5.873  14.291  0.00  0.00    +0.000 HD
BRANCH  15  17
ATOM     17  C   UNL     1       7.208   4.489  14.345  0.00  0.00    +0.000 C 
BRANCH  17  19
ATOM     18  C   UNL     1       5.875   3.387  12.519  0.00  0.00    +0.000 C 
ATOM     19  C   UNL     1       6.690   4.361  12.951  0.00  0.00    +0.000 C 
ENDBRANCH  17  19
ENDBRANCH  15  17
ENDBRANCH   1  15
TORSDOF 4
ENDMDL
MODEL 5
REMARK VINA RESULT:      -6.7      3.607      4.993
REMARK  Name = 
REMARK  4 active torsions:
REMARK  status: ('A' for Active; 'I' for Inactive)
REMARK    1  A    between atoms: C_2  and  C_3
REMARK    2  A    between atoms: C_3  and  N_4
REMARK    3  A    between atoms: N_4  and  C_5
REMARK    4  A    between atoms: N_8  and  C_9
REMARK                            x       y       z     vdW  Elec       q    Type
REMARK                         _______ _______ _______ _____ _____    ______ ____
ROOT
ATOM      1  C   UNL     1       4.861   4.430  16.725  0.00  0.00    +0.000 A 
ATOM      2  C   UNL     1       5.061   5.893  16.642  0.00  0.00    +0.000 A 
ATOM      3  N   UNL     1       4.324   6.808  17.177  0.00  0.00    +0.000 NA
ATOM      4  N   UNL     1       3.246   6.398  17.940  0.00  0.00    +0.000 N 
ATOM      5  C   UNL     1       2.887   5.051  18.092  0.00  0.00    +0.000 A 
ATOM      6  O   UNL     1       1.901   4.632  18.706  0.00  0.00    +0.000 OA
ATOM      7  C   UNL     1       3.773   4.066  17.413  0.00  0.00    +0.000 A 
ATOM      8 CL   UNL     1       3.364   2.386  17.577  0.00  0.00    +0.000 Cl
ENDROOT
BRANCH   4   9
ATOM      9  C   UNL     1       2.486   7.475  18.516  0.00  0.00    +0.000 A 
ATOM     10  C   UNL     1       2.154   7.500  19.880  0.00  0.00    +0.000 A 
ATOM     11  C   UNL     1       1.352   8.512  20.420  0.00  0.00    +0.000 A 
ATOM     12  C   UNL     1       0.865   9.525  19.601  0.00  0.00    +0.000 A 
ATOM     13  C   UNL     1       1.212   9.544  18.253  0.00  0.00    +0.000 A 
ATOM     14  C   UNL     1       2.029   8.539  17.719  0.00  0.00    +0.000 A 
ENDBRANCH   4   9
BRANCH   1  15
ATOM     15  N   UNL     1       5.767   3.610  16.045  0.00  0.00    +0.000 N 
ATOM     16  H   UNL     1       6.465   3.269  16.714  0.00  0.00    +0.000 HD
BRANCH  15  17
ATOM     17  C   UNL     1       6.527   4.180  14.932  0.00  0.00    +0.000 C 
BRANCH  17  19
ATOM     18  C   UNL     1       6.391   3.622  12.483  0.00  0.00    +0.000 C 
ATOM     19  C   UNL     1       5.809   3.807  13.678  0.00  0.00    +0.000 C 
ENDBRANCH  17  19
ENDBRANCH  15  17
ENDBRANCH   1  15
TORSDOF 4
ENDMDL
MODEL 6
REMARK VINA RESULT:      -6.6      3.558      4.860
REMARK  Name = 
REMARK  4 active torsions:
REMARK  status: ('A' for Active; 'I' for Inactive)
REMARK    1  A    between atoms: C_2  and  C_3
REMARK    2  A    between atoms: C_3  and  N_4
REMARK    3  A    between atoms: N_4  and  C_5
REMARK    4  A    between atoms: N_8  and  C_9
REMARK                            x       y       z     vdW  Elec       q    Type
REMARK                         _______ _______ _______ _____ _____    ______ ____
ROOT
ATOM      1  C   UNL     1       5.056   4.508  16.960  0.00  0.00    +0.000 A 
ATOM      2  C   UNL     1       5.259   5.973  16.972  0.00  0.00    +0.000 A 
ATOM      3  N   UNL     1       4.446   6.863  17.434  0.00  0.00    +0.000 NA
ATOM      4  N   UNL     1       3.270   6.421  18.011  0.00  0.00    +0.000 N 
ATOM      5  C   UNL     1       2.900   5.069  18.048  0.00  0.00    +0.000 A 
ATOM      6  O   UNL     1       1.837   4.624  18.491  0.00  0.00    +0.000 OA
ATOM      7  C   UNL     1       3.882   4.115  17.463  0.00  0.00    +0.000 A 
ATOM      8 CL   UNL     1       3.462   2.430  17.491  0.00  0.00    +0.000 Cl
ENDROOT
BRANCH   4   9
ATOM      9  C   UNL     1       2.428   7.472  18.517  0.00  0.00    +0.000 A 
ATOM     10  C   UNL     1       1.960   8.508  17.692  0.00  0.00    +0.000 A 
ATOM     11  C   UNL     1       1.204   9.567  18.205  0.00  0.00    +0.000 A 
ATOM     12  C   UNL     1       0.895   9.609  19.560  0.00  0.00    +0.000 A 
ATOM     13  C   UNL     1       1.314   8.574  20.393  0.00  0.00    +0.000 A 
ATOM     14  C   UNL     1       2.057   7.507  19.873  0.00  0.00    +0.000 A 
ENDBRANCH   4   9
BRANCH   1  15
ATOM     15  N   UNL     1       6.058   3.718  16.385  0.00  0.00    +0.000 N 
ATOM     16  H   UNL     1       6.789   3.557  17.084  0.00  0.00    +0.000 HD
BRANCH  15  17
ATOM     17  C   UNL     1       6.746   4.219  15.194  0.00  0.00    +0.000 C 
BRANCH  17  19
ATOM     18  C   UNL     1       6.394   3.754  12.748  0.00  0.00    +0.000 C 
ATOM     19  C   UNL     1       5.948   3.780  14.012  0.00  0.00    +0.000 C 
ENDBRANCH  17  19
ENDBRANCH  15  17
ENDBRANCH   1  15
TORSDOF 4
ENDMDL
MODEL 7
REMARK VINA RESULT:      -6.3      3.629      6.540
REMARK  Name = 
REMARK  4 active torsions:
REMARK  status: ('A' for Active; 'I' for Inactive)
REMARK    1  A    between atoms: C_2  and  C_3
REMARK    2  A    between atoms: C_3  and  N_4
REMARK    3  A    between atoms: N_4  and  C_5
REMARK    4  A    between atoms: N_8  and  C_9
REMARK                            x       y       z     vdW  Elec       q    Type
REMARK                         _______ _______ _______ _____ _____    ______ ____
ROOT
ATOM      1  C   UNL     1       4.258   5.152  18.255  0.00  0.00    +0.000 A 
ATOM      2  C   UNL     1       4.864   3.910  17.728  0.00  0.00    +0.000 A 
ATOM      3  N   UNL     1       5.410   3.746  16.569  0.00  0.00    +0.000 NA
ATOM      4  N   UNL     1       5.474   4.842  15.729  0.00  0.00    +0.000 N 
ATOM      5  C   UNL     1       4.913   6.086  16.053  0.00  0.00    +0.000 A 
ATOM      6  O   UNL     1       4.883   7.077  15.318  0.00  0.00    +0.000 OA
ATOM      7  C   UNL     1       4.275   6.175  17.395  0.00  0.00    +0.000 A 
ATOM      8 CL   UNL     1       3.570   7.700  17.837  0.00  0.00    +0.000 Cl
ENDROOT
BRANCH   4   9
ATOM      9  C   UNL     1       6.111   4.582  14.465  0.00  0.00    +0.000 A 
ATOM     10  C   UNL     1       7.316   5.204  14.101  0.00  0.00    +0.000 A 
ATOM     11  C   UNL     1       7.891   5.004  12.842  0.00  0.00    +0.000 A 
ATOM     12  C   UNL     1       7.271   4.172  11.917  0.00  0.00    +0.000 A 
ATOM     13  C   UNL     1       6.095   3.512  12.267  0.00  0.00    +0.000 A 
ATOM     14  C   UNL     1       5.530   3.702  13.535  0.00  0.00    +0.000 A 
ENDBRANCH   4   9
BRANCH   1  15
ATOM     15  N   UNL     1       3.695   5.107  19.535  0.00  0.00    +0.000 N 
ATOM     16  H   UNL     1       4.392   5.438  20.210  0.00  0.00    +0.000 HD
BRANCH  15  17
ATOM     17  C   UNL     1       3.221   3.821  20.047  0.00  0.00    +0.000 C 
BRANCH  17  19
ATOM     18  C   UNL     1       0.763   3.298  19.937  0.00  0.00    +0.000 C 
ATOM     19  C   UNL     1       1.791   4.005  20.431  0.00  0.00    +0.000 C 
ENDBRANCH  17  19
ENDBRANCH  15  17
ENDBRANCH   1  15
TORSDOF 4
ENDMDL
MODEL 8
REMARK VINA RESULT:      -6.3      3.040      4.133
REMARK  Name = 
REMARK  4 active torsions:
REMARK  status: ('A' for Active; 'I' for Inactive)
REMARK    1  A    between atoms: C_2  and  C_3
REMARK    2  A    between atoms: C_3  and  N_4
REMARK    3  A    between atoms: N_4  and  C_5
REMARK    4  A    between atoms: N_8  and  C_9
REMARK                            x       y       z     vdW  Elec       q    Type
REMARK                         _______ _______ _______ _____ _____    ______ ____
ROOT
ATOM      1  C   UNL     1       5.200   5.040  15.971  0.00  0.00    +0.000 A 
ATOM      2  C   UNL     1       4.899   3.637  16.328  0.00  0.00    +0.000 A 
ATOM      3  N   UNL     1       4.191   3.226  17.327  0.00  0.00    +0.000 NA
ATOM      4  N   UNL     1       3.618   4.183  18.144  0.00  0.00    +0.000 N 
ATOM      5  C   UNL     1       3.832   5.558  17.974  0.00  0.00    +0.000 A 
ATOM      6  O   UNL     1       3.400   6.452  18.708  0.00  0.00    +0.000 OA
ATOM      7  C   UNL     1       4.688   5.940  16.817  0.00  0.00    +0.000 A 
ATOM      8 CL   UNL     1       4.976   7.635  16.570  0.00  0.00    +0.000 Cl
ENDROOT
BRANCH   4   9
ATOM      9  C   UNL     1       2.831   3.646  19.222  0.00  0.00    +0.000 A 
ATOM     10  C   UNL     1       1.429   3.702  19.215  0.00  0.00    +0.000 A 
ATOM     11  C   UNL     1       0.672   3.246  20.300  0.00  0.00    +0.000 A 
ATOM     12  C   UNL     1       1.308   2.718  21.418  0.00  0.00    +0.000 A 
ATOM     13  C   UNL     1       2.696   2.615  21.434  0.00  0.00    +0.000 A 
ATOM     14  C   UNL     1       3.450   3.058  20.339  0.00  0.00    +0.000 A 
ENDBRANCH   4   9
BRANCH   1  15
ATOM     15  N   UNL     1       6.013   5.267  14.856  0.00  0.00    +0.000 N 
ATOM     16  H   UNL     1       5.427   5.608  14.088  0.00  0.00    +0.000 HD
BRANCH  15  17
ATOM     17  C   UNL     1       6.777   4.145  14.308  0.00  0.00    +0.000 C 
BRANCH  17  19
ATOM     18  C   UNL     1       5.559   3.226  12.308  0.00  0.00    +0.000 C 
ATOM     19  C   UNL     1       6.452   4.066  12.854  0.00  0.00    +0.000 C 
ENDBRANCH  17  19
ENDBRANCH  15  17
ENDBRANCH   1  15
TORSDOF 4
ENDMDL
MODEL 9
REMARK VINA RESULT:      -6.3      3.059      6.277
REMARK  Name = 
REMARK  4 active torsions:
REMARK  status: ('A' for Active; 'I' for Inactive)
REMARK    1  A    between atoms: C_2  and  C_3
REMARK    2  A    between atoms: C_3  and  N_4
REMARK    3  A    between atoms: N_4  and  C_5
REMARK    4  A    between atoms: N_8  and  C_9
REMARK                            x       y       z     vdW  Elec       q    Type
REMARK                         _______ _______ _______ _____ _____    ______ ____
ROOT
ATOM      1  C   UNL     1       3.282   4.925  19.999  0.00  0.00    +0.000 A 
ATOM      2  C   UNL     1       4.113   3.827  19.459  0.00  0.00    +0.000 A 
ATOM      3  N   UNL     1       4.771   3.827  18.349  0.00  0.00    +0.000 NA
ATOM      4  N   UNL     1       4.737   4.977  17.583  0.00  0.00    +0.000 N 
ATOM      5  C   UNL     1       3.967   6.099  17.924  0.00  0.00    +0.000 A 
ATOM      6  O   UNL     1       3.847   7.125  17.248  0.00  0.00    +0.000 OA
ATOM      7  C   UNL     1       3.213   5.998  19.205  0.00  0.00    +0.000 A 
ATOM      8 CL   UNL     1       2.248   7.367  19.666  0.00  0.00    +0.000 Cl
ENDROOT
BRANCH   4   9
ATOM      9  C   UNL     1       5.509   4.904  16.371  0.00  0.00    +0.000 A 
ATOM     10  C   UNL     1       5.014   4.282  15.214  0.00  0.00    +0.000 A 
ATOM     11  C   UNL     1       5.798   4.149  14.063  0.00  0.00    +0.000 A 
ATOM     12  C   UNL     1       7.098   4.640  14.045  0.00  0.00    +0.000 A 
ATOM     13  C   UNL     1       7.600   5.296  15.167  0.00  0.00    +0.000 A 
ATOM     14  C   UNL     1       6.806   5.443  16.313  0.00  0.00    +0.000 A 
ENDBRANCH   4   9
BRANCH   1  15
ATOM     15  N   UNL     1       2.628   4.707  21.216  0.00  0.00    +0.000 N 
ATOM     16  H   UNL     1       3.327   4.693  21.965  0.00  0.00    +0.000 HD
BRANCH  15  17
ATOM     17  C   UNL     1       1.843   3.483  21.379  0.00  0.00    +0.000 C 
BRANCH  17  19
ATOM     18  C   UNL     1       0.664   2.611  19.336  0.00  0.00    +0.000 C 
ATOM     19  C   UNL     1       0.781   3.503  20.331  0.00  0.00    +0.000 C 
ENDBRANCH  17  19
ENDBRANCH  15  17
ENDBRANCH   1  15
TORSDOF 4
ENDMDL
