MODEL 1
REMARK VINA RESULT:      -5.6      0.000      0.000
REMARK  Name = 
REMARK  11 active torsions:
REMARK  status: ('A' for Active; 'I' for Inactive)
REMARK    1  A    between atoms: C_1  and  C_2
REMARK    2  A    between atoms: C_2  and  C_3
REMARK    3  A    between atoms: C_2  and  N_4
REMARK    4  A    between atoms: N_4  and  C_29
REMARK    5  A    between atoms: C_5  and  C_7
REMARK    6  A    between atoms: C_16  and  C_17
REMARK    7  A    between atoms: C_17  and  O_19
REMARK    8  A    between atoms: C_22  and  C_23
REMARK    9  A    between atoms: C_27  and  C_28
REMARK   10  A    between atoms: C_29  and  C_30
REMARK   11  A    between atoms: C_29  and  C_31
REMARK                            x       y       z     vdW  Elec       q    Type
REMARK                         _______ _______ _______ _____ _____    ______ ____
ROOT
ATOM      1  C   UNL     1       3.153  16.162  21.618  0.00  0.00    +0.000 C 
ATOM      2  C   UNL     1       3.628  15.794  23.046  0.00  0.00    +0.000 C 
ATOM      3  C   UNL     1       5.021  15.187  22.930  0.00  0.00    +0.000 C 
ATOM      4  C   UNL     1       5.560  15.749  21.626  0.00  0.00    +0.000 C 
ATOM      5  C   UNL     1       6.674  14.994  20.922  0.00  0.00    +0.000 C 
ATOM      6  C   UNL     1       7.824  14.572  21.824  0.00  0.00    +0.000 C 
ATOM      7  C   UNL     1       8.351  13.315  21.156  0.00  0.00    +0.000 C 
ATOM      8  C   UNL     1       8.825  13.668  19.753  0.00  0.00    +0.000 C 
ATOM      9  C   UNL     1       9.264  12.454  18.959  0.00  0.00    +0.000 C 
ATOM     10  C   UNL     1      10.453  12.991  18.200  0.00  0.00    +0.000 C 
ATOM     11  C   UNL     1      10.399  14.229  17.637  0.00  0.00    +0.000 C 
ATOM     12  C   UNL     1       9.278  15.265  17.947  0.00  0.00    +0.000 C 
ATOM     13  C   UNL     1       8.077  14.670  18.779  0.00  0.00    +0.000 C 
ATOM     14  C   UNL     1       7.205  14.034  17.654  0.00  0.00    +0.000 C 
ATOM     15  C   UNL     1       7.196  15.706  19.634  0.00  0.00    +0.000 C 
ATOM     16  C   UNL     1       6.045  16.449  18.859  0.00  0.00    +0.000 C 
ATOM     17  C   UNL     1       4.759  16.833  19.637  0.00  0.00    +0.000 C 
ATOM     18  C   UNL     1       4.337  15.772  20.673  0.00  0.00    +0.000 C 
ATOM     19  C   UNL     1       4.041  14.429  19.946  0.00  0.00    +0.000 C 
ENDROOT
BRANCH   1  21
ATOM     20  N   UNL     1       0.828  15.966  20.514  0.00  0.00    +0.000 N 
ATOM     21  C   UNL     1       1.779  15.434  21.395  0.00  0.00    +0.000 C 
ATOM     22  O   UNL     1       1.553  14.399  22.044  0.00  0.00    +0.000 OA
BRANCH  20  24
ATOM     23  C   UNL     1      -0.206  13.857  19.553  0.00  0.00    +0.000 C 
ATOM     24  C   UNL     1      -0.444  15.222  20.214  0.00  0.00    +0.000 C 
ATOM     25  C   UNL     1      -1.464  15.034  21.352  0.00  0.00    +0.000 C 
ENDBRANCH  20  24
BRANCH  20  26
ATOM     26  C   UNL     1       1.126  17.188  19.722  0.00  0.00    +0.000 C 
ATOM     27  C   UNL     1       1.371  16.876  18.240  0.00  0.00    +0.000 C 
ATOM     28  C   UNL     1       0.121  18.330  19.884  0.00  0.00    +0.000 C 
ENDBRANCH  20  26
ENDBRANCH   1  21
BRANCH  10  29
ATOM     29  C   UNL     1      11.698  12.221  18.507  0.00  0.00    +0.000 C 
ATOM     30  O   UNL     1      12.285  12.311  19.573  0.00  0.00    +0.000 OA
BRANCH  29  31
ATOM     31  O   UNL     1      12.241  11.560  17.468  0.00  0.00    +0.000 OA
ATOM     32  H   UNL     1      12.980  10.976  17.690  0.00  0.00    +0.000 HD
ENDBRANCH  29  31
ENDBRANCH  10  29
TORSDOF 5
ENDMDL
MODEL 2
REMARK VINA RESULT:      -5.3      8.714     10.808
REMARK  Name = 
REMARK  11 active torsions:
REMARK  status: ('A' for Active; 'I' for Inactive)
REMARK    1  A    between atoms: C_1  and  C_2
REMARK    2  A    between atoms: C_2  and  C_3
REMARK    3  A    between atoms: C_2  and  N_4
REMARK    4  A    between atoms: N_4  and  C_29
REMARK    5  A    between atoms: C_5  and  C_7
REMARK    6  A    between atoms: C_16  and  C_17
REMARK    7  A    between atoms: C_17  and  O_19
REMARK    8  A    between atoms: C_22  and  C_23
REMARK    9  A    between atoms: C_27  and  C_28
REMARK   10  A    between atoms: C_29  and  C_30
REMARK   11  A    between atoms: C_29  and  C_31
REMARK                            x       y       z     vdW  Elec       q    Type
REMARK                         _______ _______ _______ _____ _____    ______ ____
ROOT
ATOM      1  C   UNL     1      -4.693  14.324  22.836  0.00  0.00    +0.000 C 
ATOM      2  C   UNL     1      -6.205  14.179  22.536  0.00  0.00    +0.000 C 
ATOM      3  C   UNL     1      -6.348  13.430  21.217  0.00  0.00    +0.000 C 
ATOM      4  C   UNL     1      -5.051  12.650  21.095  0.00  0.00    +0.000 C 
ATOM      5  C   UNL     1      -4.603  12.208  19.712  0.00  0.00    +0.000 C 
ATOM      6  C   UNL     1      -5.689  11.550  18.873  0.00  0.00    +0.000 C 
ATOM      7  C   UNL     1      -5.278  11.880  17.449  0.00  0.00    +0.000 C 
ATOM      8  C   UNL     1      -3.907  11.277  17.182  0.00  0.00    +0.000 C 
ATOM      9  C   UNL     1      -3.356  11.649  15.820  0.00  0.00    +0.000 C 
ATOM     10  C   UNL     1      -2.676  10.369  15.399  0.00  0.00    +0.000 C 
ATOM     11  C   UNL     1      -1.937   9.662  16.296  0.00  0.00    +0.000 C 
ATOM     12  C   UNL     1      -1.956   9.938  17.830  0.00  0.00    +0.000 C 
ATOM     13  C   UNL     1      -2.714  11.263  18.227  0.00  0.00    +0.000 C 
ATOM     14  C   UNL     1      -1.598  12.332  18.029  0.00  0.00    +0.000 C 
ATOM     15  C   UNL     1      -3.297  11.351  19.721  0.00  0.00    +0.000 C 
ATOM     16  C   UNL     1      -2.290  11.817  20.837  0.00  0.00    +0.000 C 
ATOM     17  C   UNL     1      -2.843  12.620  22.043  0.00  0.00    +0.000 C 
ATOM     18  C   UNL     1      -3.964  13.605  21.654  0.00  0.00    +0.000 C 
ATOM     19  C   UNL     1      -3.409  14.642  20.636  0.00  0.00    +0.000 C 
ENDROOT
BRANCH   1  21
ATOM     20  N   UNL     1      -3.295  16.289  23.757  0.00  0.00    +0.000 N 
ATOM     21  C   UNL     1      -4.414  15.857  23.032  0.00  0.00    +0.000 C 
ATOM     22  O   UNL     1      -5.229  16.665  22.555  0.00  0.00    +0.000 OA
BRANCH  20  24
ATOM     23  C   UNL     1      -2.888  18.453  22.496  0.00  0.00    +0.000 C 
ATOM     24  C   UNL     1      -2.962  17.752  23.859  0.00  0.00    +0.000 C 
ATOM     25  C   UNL     1      -3.807  18.627  24.804  0.00  0.00    +0.000 C 
ENDBRANCH  20  24
BRANCH  20  26
ATOM     26  C   UNL     1      -2.313  15.310  24.294  0.00  0.00    +0.000 C 
ATOM     27  C   UNL     1      -0.884  15.601  23.821  0.00  0.00    +0.000 C 
ATOM     28  C   UNL     1      -2.360  15.106  25.808  0.00  0.00    +0.000 C 
ENDBRANCH  20  26
ENDBRANCH   1  21
BRANCH  10  29
ATOM     29  C   UNL     1      -3.239   9.840  14.118  0.00  0.00    +0.000 C 
ATOM     30  O   UNL     1      -2.548   9.600  13.142  0.00  0.00    +0.000 OA
BRANCH  29  31
ATOM     31  O   UNL     1      -4.582   9.818  14.040  0.00  0.00    +0.000 OA
ATOM     32  H   UNL     1      -5.015  10.679  14.116  0.00  0.00    +0.000 HD
ENDBRANCH  29  31
ENDBRANCH  10  29
TORSDOF 5
ENDMDL
MODEL 3
REMARK VINA RESULT:      -4.9      6.896      7.965
REMARK  Name = 
REMARK  11 active torsions:
REMARK  status: ('A' for Active; 'I' for Inactive)
REMARK    1  A    between atoms: C_1  and  C_2
REMARK    2  A    between atoms: C_2  and  C_3
REMARK    3  A    between atoms: C_2  and  N_4
REMARK    4  A    between atoms: N_4  and  C_29
REMARK    5  A    between atoms: C_5  and  C_7
REMARK    6  A    between atoms: C_16  and  C_17
REMARK    7  A    between atoms: C_17  and  O_19
REMARK    8  A    between atoms: C_22  and  C_23
REMARK    9  A    between atoms: C_27  and  C_28
REMARK   10  A    between atoms: C_29  and  C_30
REMARK   11  A    between atoms: C_29  and  C_31
REMARK                            x       y       z     vdW  Elec       q    Type
REMARK                         _______ _______ _______ _____ _____    ______ ____
ROOT
ATOM      1  C   UNL     1      -2.973  13.434  21.864  0.00  0.00    +0.000 C 
ATOM      2  C   UNL     1      -2.668  12.884  23.280  0.00  0.00    +0.000 C 
ATOM      3  C   UNL     1      -1.643  11.767  23.134  0.00  0.00    +0.000 C 
ATOM      4  C   UNL     1      -0.941  12.080  21.824  0.00  0.00    +0.000 C 
ATOM      5  C   UNL     1      -0.239  10.948  21.093  0.00  0.00    +0.000 C 
ATOM      6  C   UNL     1       0.654  10.084  21.970  0.00  0.00    +0.000 C 
ATOM      7  C   UNL     1       0.616   8.731  21.282  0.00  0.00    +0.000 C 
ATOM      8  C   UNL     1       1.172   8.881  19.873  0.00  0.00    +0.000 C 
ATOM      9  C   UNL     1       1.069   7.605  19.062  0.00  0.00    +0.000 C 
ATOM     10  C   UNL     1       2.363   7.626  18.285  0.00  0.00    +0.000 C 
ATOM     11  C   UNL     1       2.808   8.787  17.733  0.00  0.00    +0.000 C 
ATOM     12  C   UNL     1       2.208  10.184  18.071  0.00  0.00    +0.000 C 
ATOM     13  C   UNL     1       0.881  10.115  18.921  0.00  0.00    +0.000 C 
ATOM     14  C   UNL     1      -0.190   9.903  17.809  0.00  0.00    +0.000 C 
ATOM     15  C   UNL     1       0.509  11.407  19.800  0.00  0.00    +0.000 C 
ATOM     16  C   UNL     1      -0.254  12.563  19.054  0.00  0.00    +0.000 C 
ATOM     17  C   UNL     1      -1.262  13.425  19.858  0.00  0.00    +0.000 C 
ATOM     18  C   UNL     1      -2.063  12.611  20.894  0.00  0.00    +0.000 C 
ATOM     19  C   UNL     1      -2.889  11.514  20.163  0.00  0.00    +0.000 C 
ENDROOT
BRANCH   1  21
ATOM     20  N   UNL     1      -5.260  14.432  21.205  0.00  0.00    +0.000 N 
ATOM     21  C   UNL     1      -4.527  13.329  21.662  0.00  0.00    +0.000 C 
ATOM     22  O   UNL     1      -5.083  12.255  21.949  0.00  0.00    +0.000 OA
BRANCH  20  24
ATOM     23  C   UNL     1      -7.054  13.191  19.908  0.00  0.00    +0.000 C 
ATOM     24  C   UNL     1      -6.729  14.310  20.907  0.00  0.00    +0.000 C 
ATOM     25  C   UNL     1      -7.706  14.194  22.092  0.00  0.00    +0.000 C 
ENDBRANCH  20  24
BRANCH  20  26
ATOM     26  C   UNL     1      -4.576  15.699  20.836  0.00  0.00    +0.000 C 
ATOM     27  C   UNL     1      -5.293  16.438  19.699  0.00  0.00    +0.000 C 
ATOM     28  C   UNL     1      -4.279  16.642  22.002  0.00  0.00    +0.000 C 
ENDBRANCH  20  26
ENDBRANCH   1  21
BRANCH  10  29
ATOM     29  C   UNL     1       3.194   6.412  18.562  0.00  0.00    +0.000 C 
ATOM     30  O   UNL     1       3.303   5.927  19.676  0.00  0.00    +0.000 OA
BRANCH  29  31
ATOM     31  O   UNL     1       3.964   5.993  17.543  0.00  0.00    +0.000 OA
ATOM     32  H   UNL     1       4.568   6.655  17.180  0.00  0.00    +0.000 HD
ENDBRANCH  29  31
ENDBRANCH  10  29
TORSDOF 5
ENDMDL
MODEL 4
REMARK VINA RESULT:      -4.9      3.379      8.570
REMARK  Name = 
REMARK  11 active torsions:
REMARK  status: ('A' for Active; 'I' for Inactive)
REMARK    1  A    between atoms: C_1  and  C_2
REMARK    2  A    between atoms: C_2  and  C_3
REMARK    3  A    between atoms: C_2  and  N_4
REMARK    4  A    between atoms: N_4  and  C_29
REMARK    5  A    between atoms: C_5  and  C_7
REMARK    6  A    between atoms: C_16  and  C_17
REMARK    7  A    between atoms: C_17  and  O_19
REMARK    8  A    between atoms: C_22  and  C_23
REMARK    9  A    between atoms: C_27  and  C_28
REMARK   10  A    between atoms: C_29  and  C_30
REMARK   11  A    between atoms: C_29  and  C_31
REMARK                            x       y       z     vdW  Elec       q    Type
REMARK                         _______ _______ _______ _____ _____    ______ ____
ROOT
ATOM      1  C   UNL     1       4.834  16.860  20.912  0.00  0.00    +0.000 C 
ATOM      2  C   UNL     1       3.901  18.092  20.812  0.00  0.00    +0.000 C 
ATOM      3  C   UNL     1       2.518  17.596  20.408  0.00  0.00    +0.000 C 
ATOM      4  C   UNL     1       2.500  16.147  20.864  0.00  0.00    +0.000 C 
ATOM      5  C   UNL     1       1.525  15.194  20.194  0.00  0.00    +0.000 C 
ATOM      6  C   UNL     1       0.103  15.721  20.071  0.00  0.00    +0.000 C 
ATOM      7  C   UNL     1      -0.422  15.026  18.828  0.00  0.00    +0.000 C 
ATOM      8  C   UNL     1      -0.388  13.522  19.056  0.00  0.00    +0.000 C 
ATOM      9  C   UNL     1      -0.786  12.732  17.825  0.00  0.00    +0.000 C 
ATOM     10  C   UNL     1      -1.580  11.598  18.426  0.00  0.00    +0.000 C 
ATOM     11  C   UNL     1      -1.139  10.981  19.556  0.00  0.00    +0.000 C 
ATOM     12  C   UNL     1       0.010  11.541  20.447  0.00  0.00    +0.000 C 
ATOM     13  C   UNL     1       0.783  12.753  19.798  0.00  0.00    +0.000 C 
ATOM     14  C   UNL     1       1.817  12.014  18.895  0.00  0.00    +0.000 C 
ATOM     15  C   UNL     1       1.545  13.753  20.797  0.00  0.00    +0.000 C 
ATOM     16  C   UNL     1       2.989  13.321  21.251  0.00  0.00    +0.000 C 
ATOM     17  C   UNL     1       4.035  14.428  21.542  0.00  0.00    +0.000 C 
ATOM     18  C   UNL     1       3.933  15.627  20.578  0.00  0.00    +0.000 C 
ATOM     19  C   UNL     1       4.180  15.142  19.121  0.00  0.00    +0.000 C 
ENDROOT
BRANCH   1  21
ATOM     20  N   UNL     1       7.315  16.593  20.251  0.00  0.00    +0.000 N 
ATOM     21  C   UNL     1       6.057  17.140  19.966  0.00  0.00    +0.000 C 
ATOM     22  O   UNL     1       5.880  17.881  18.984  0.00  0.00    +0.000 OA
BRANCH  20  24
ATOM     23  C   UNL     1       8.230  16.092  17.937  0.00  0.00    +0.000 C 
ATOM     24  C   UNL     1       8.464  16.767  19.296  0.00  0.00    +0.000 C 
ATOM     25  C   UNL     1       8.990  18.191  19.040  0.00  0.00    +0.000 C 
ENDBRANCH  20  24
BRANCH  20  26
ATOM     26  C   UNL     1       7.504  15.683  21.411  0.00  0.00    +0.000 C 
ATOM     27  C   UNL     1       7.698  14.224  20.981  0.00  0.00    +0.000 C 
ATOM     28  C   UNL     1       8.583  16.112  22.405  0.00  0.00    +0.000 C 
ENDBRANCH  20  26
ENDBRANCH   1  21
BRANCH  10  29
ATOM     29  C   UNL     1      -2.979  11.560  17.897  0.00  0.00    +0.000 C 
ATOM     30  O   UNL     1      -3.262  11.079  16.812  0.00  0.00    +0.000 OA
BRANCH  29  31
ATOM     31  O   UNL     1      -3.885  12.255  18.607  0.00  0.00    +0.000 OA
ATOM     32  H   UNL     1      -4.425  12.875  18.095  0.00  0.00    +0.000 HD
ENDBRANCH  29  31
ENDBRANCH  10  29
TORSDOF 5
ENDMDL
MODEL 5
REMARK VINA RESULT:      -4.9      6.548      7.930
REMARK  Name = 
REMARK  11 active torsions:
REMARK  status: ('A' for Active; 'I' for Inactive)
REMARK    1  A    between atoms: C_1  and  C_2
REMARK    2  A    between atoms: C_2  and  C_3
REMARK    3  A    between atoms: C_2  and  N_4
REMARK    4  A    between atoms: N_4  and  C_29
REMARK    5  A    between atoms: C_5  and  C_7
REMARK    6  A    between atoms: C_16  and  C_17
REMARK    7  A    between atoms: C_17  and  O_19
REMARK    8  A    between atoms: C_22  and  C_23
REMARK    9  A    between atoms: C_27  and  C_28
REMARK   10  A    between atoms: C_29  and  C_30
REMARK   11  A    between atoms: C_29  and  C_31
REMARK                            x       y       z     vdW  Elec       q    Type
REMARK                         _______ _______ _______ _____ _____    ______ ____
ROOT
ATOM      1  C   UNL     1      -3.282  14.355  22.392  0.00  0.00    +0.000 C 
ATOM      2  C   UNL     1      -3.058  13.602  23.727  0.00  0.00    +0.000 C 
ATOM      3  C   UNL     1      -2.091  12.456  23.457  0.00  0.00    +0.000 C 
ATOM      4  C   UNL     1      -1.327  12.903  22.222  0.00  0.00    +0.000 C 
ATOM      5  C   UNL     1      -0.663  11.841  21.363  0.00  0.00    +0.000 C 
ATOM      6  C   UNL     1       0.150  10.814  22.137  0.00  0.00    +0.000 C 
ATOM      7  C   UNL     1       0.062   9.571  21.269  0.00  0.00    +0.000 C 
ATOM      8  C   UNL     1       0.675   9.878  19.910  0.00  0.00    +0.000 C 
ATOM      9  C   UNL     1       0.532   8.732  18.929  0.00  0.00    +0.000 C 
ATOM     10  C   UNL     1       1.851   8.781  18.198  0.00  0.00    +0.000 C 
ATOM     11  C   UNL     1       2.378   9.978  17.822  0.00  0.00    +0.000 C 
ATOM     12  C   UNL     1       1.844  11.349  18.333  0.00  0.00    +0.000 C 
ATOM     13  C   UNL     1       0.486  11.245  19.129  0.00  0.00    +0.000 C 
ATOM     14  C   UNL     1      -0.556  11.249  17.969  0.00  0.00    +0.000 C 
ATOM     15  C   UNL     1       0.154  12.425  20.166  0.00  0.00    +0.000 C 
ATOM     16  C   UNL     1      -0.517  13.715  19.564  0.00  0.00    +0.000 C 
ATOM     17  C   UNL     1      -1.505  14.517  20.452  0.00  0.00    +0.000 C 
ATOM     18  C   UNL     1      -2.386  13.619  21.344  0.00  0.00    +0.000 C 
ATOM     19  C   UNL     1      -3.243  12.682  20.446  0.00  0.00    +0.000 C 
ENDROOT
BRANCH   1  21
ATOM     20  N   UNL     1      -5.432  15.451  21.476  0.00  0.00    +0.000 N 
ATOM     21  C   UNL     1      -4.832  14.370  22.135  0.00  0.00    +0.000 C 
ATOM     22  O   UNL     1      -5.505  13.417  22.560  0.00  0.00    +0.000 OA
BRANCH  20  24
ATOM     23  C   UNL     1      -7.296  14.215  20.277  0.00  0.00    +0.000 C 
ATOM     24  C   UNL     1      -6.896  15.426  21.131  0.00  0.00    +0.000 C 
ATOM     25  C   UNL     1      -7.916  15.566  22.275  0.00  0.00    +0.000 C 
ENDBRANCH  20  24
BRANCH  20  26
ATOM     26  C   UNL     1      -4.609  16.570  20.945  0.00  0.00    +0.000 C 
ATOM     27  C   UNL     1      -5.177  17.142  19.640  0.00  0.00    +0.000 C 
ATOM     28  C   UNL     1      -4.303  17.684  21.946  0.00  0.00    +0.000 C 
ENDBRANCH  20  26
ENDBRANCH   1  21
BRANCH  10  29
ATOM     29  C   UNL     1       2.604   7.495  18.329  0.00  0.00    +0.000 C 
ATOM     30  O   UNL     1       2.298   6.629  19.132  0.00  0.00    +0.000 OA
BRANCH  29  31
ATOM     31  O   UNL     1       3.754   7.423  17.634  0.00  0.00    +0.000 OA
ATOM     32  H   UNL     1       3.755   7.890  16.787  0.00  0.00    +0.000 HD
ENDBRANCH  29  31
ENDBRANCH  10  29
TORSDOF 5
ENDMDL
MODEL 6
REMARK VINA RESULT:      -4.9      7.772     11.426
REMARK  Name = 
REMARK  11 active torsions:
REMARK  status: ('A' for Active; 'I' for Inactive)
REMARK    1  A    between atoms: C_1  and  C_2
REMARK    2  A    between atoms: C_2  and  C_3
REMARK    3  A    between atoms: C_2  and  N_4
REMARK    4  A    between atoms: N_4  and  C_29
REMARK    5  A    between atoms: C_5  and  C_7
REMARK    6  A    between atoms: C_16  and  C_17
REMARK    7  A    between atoms: C_17  and  O_19
REMARK    8  A    between atoms: C_22  and  C_23
REMARK    9  A    between atoms: C_27  and  C_28
REMARK   10  A    between atoms: C_29  and  C_30
REMARK   11  A    between atoms: C_29  and  C_31
REMARK                            x       y       z     vdW  Elec       q    Type
REMARK                         _______ _______ _______ _____ _____    ______ ____
ROOT
ATOM      1  C   UNL     1       2.239   7.435  19.840  0.00  0.00    +0.000 C 
ATOM      2  C   UNL     1       2.072   7.746  18.332  0.00  0.00    +0.000 C 
ATOM      3  C   UNL     1       1.122   8.931  18.205  0.00  0.00    +0.000 C 
ATOM      4  C   UNL     1       1.241   9.643  19.542  0.00  0.00    +0.000 C 
ATOM      5  C   UNL     1       0.097  10.538  19.986  0.00  0.00    +0.000 C 
ATOM      6  C   UNL     1      -0.403  11.505  18.922  0.00  0.00    +0.000 C 
ATOM      7  C   UNL     1      -1.864  11.699  19.285  0.00  0.00    +0.000 C 
ATOM      8  C   UNL     1      -1.946  12.296  20.683  0.00  0.00    +0.000 C 
ATOM      9  C   UNL     1      -3.371  12.422  21.185  0.00  0.00    +0.000 C 
ATOM     10  C   UNL     1      -3.324  13.736  21.927  0.00  0.00    +0.000 C 
ATOM     11  C   UNL     1      -2.261  14.032  22.722  0.00  0.00    +0.000 C 
ATOM     12  C   UNL     1      -0.933  13.218  22.718  0.00  0.00    +0.000 C 
ATOM     13  C   UNL     1      -1.015  11.874  21.895  0.00  0.00    +0.000 C 
ATOM     14  C   UNL     1      -1.631  10.902  22.946  0.00  0.00    +0.000 C 
ATOM     15  C   UNL     1       0.367  11.273  21.338  0.00  0.00    +0.000 C 
ATOM     16  C   UNL     1       1.197  10.387  22.339  0.00  0.00    +0.000 C 
ATOM     17  C   UNL     1       2.049   9.225  21.766  0.00  0.00    +0.000 C 
ATOM     18  C   UNL     1       1.372   8.502  20.584  0.00  0.00    +0.000 C 
ATOM     19  C   UNL     1       0.026   7.884  21.060  0.00  0.00    +0.000 C 
ENDROOT
BRANCH   1  21
ATOM     20  N   UNL     1       2.593   4.915  19.405  0.00  0.00    +0.000 N 
ATOM     21  C   UNL     1       1.854   5.924  20.036  0.00  0.00    +0.000 C 
ATOM     22  O   UNL     1       0.862   5.660  20.736  0.00  0.00    +0.000 OA
BRANCH  20  24
ATOM     23  C   UNL     1       2.431   3.081  21.152  0.00  0.00    +0.000 C 
ATOM     24  C   UNL     1       2.298   3.464  19.672  0.00  0.00    +0.000 C 
ATOM     25  C   UNL     1       0.975   2.880  19.141  0.00  0.00    +0.000 C 
ENDBRANCH  20  24
BRANCH  20  26
ATOM     26  C   UNL     1       3.796   5.245  18.596  0.00  0.00    +0.000 C 
ATOM     27  C   UNL     1       5.094   5.116  19.404  0.00  0.00    +0.000 C 
ATOM     28  C   UNL     1       3.904   4.509  17.261  0.00  0.00    +0.000 C 
ENDBRANCH  20  26
ENDBRANCH   1  21
BRANCH  10  29
ATOM     29  C   UNL     1      -4.303  14.721  21.369  0.00  0.00    +0.000 C 
ATOM     30  O   UNL     1      -4.916  15.511  22.068  0.00  0.00    +0.000 OA
BRANCH  29  31
ATOM     31  O   UNL     1      -4.607  14.562  20.069  0.00  0.00    +0.000 OA
ATOM     32  H   UNL     1      -5.097  15.293  19.666  0.00  0.00    +0.000 HD
ENDBRANCH  29  31
ENDBRANCH  10  29
TORSDOF 5
ENDMDL
MODEL 7
REMARK VINA RESULT:      -4.8      6.218     11.667
REMARK  Name = 
REMARK  11 active torsions:
REMARK  status: ('A' for Active; 'I' for Inactive)
REMARK    1  A    between atoms: C_1  and  C_2
REMARK    2  A    between atoms: C_2  and  C_3
REMARK    3  A    between atoms: C_2  and  N_4
REMARK    4  A    between atoms: N_4  and  C_29
REMARK    5  A    between atoms: C_5  and  C_7
REMARK    6  A    between atoms: C_16  and  C_17
REMARK    7  A    between atoms: C_17  and  O_19
REMARK    8  A    between atoms: C_22  and  C_23
REMARK    9  A    between atoms: C_27  and  C_28
REMARK   10  A    between atoms: C_29  and  C_30
REMARK   11  A    between atoms: C_29  and  C_31
REMARK                            x       y       z     vdW  Elec       q    Type
REMARK                         _______ _______ _______ _____ _____    ______ ____
ROOT
ATOM      1  C   UNL     1       0.752  12.228  21.144  0.00  0.00    +0.000 C 
ATOM      2  C   UNL     1       1.521  13.555  20.928  0.00  0.00    +0.000 C 
ATOM      3  C   UNL     1       0.550  14.701  21.183  0.00  0.00    +0.000 C 
ATOM      4  C   UNL     1      -0.506  14.094  22.091  0.00  0.00    +0.000 C 
ATOM      5  C   UNL     1      -1.877  14.746  22.139  0.00  0.00    +0.000 C 
ATOM      6  C   UNL     1      -1.856  16.258  22.302  0.00  0.00    +0.000 C 
ATOM      7  C   UNL     1      -3.132  16.703  21.611  0.00  0.00    +0.000 C 
ATOM      8  C   UNL     1      -4.320  16.069  22.321  0.00  0.00    +0.000 C 
ATOM      9  C   UNL     1      -5.639  16.360  21.633  0.00  0.00    +0.000 C 
ATOM     10  C   UNL     1      -6.567  16.549  22.808  0.00  0.00    +0.000 C 
ATOM     11  C   UNL     1      -6.492  15.711  23.878  0.00  0.00    +0.000 C 
ATOM     12  C   UNL     1      -5.317  14.713  24.105  0.00  0.00    +0.000 C 
ATOM     13  C   UNL     1      -4.348  14.581  22.868  0.00  0.00    +0.000 C 
ATOM     14  C   UNL     1      -5.099  13.529  21.996  0.00  0.00    +0.000 C 
ATOM     15  C   UNL     1      -2.851  14.079  23.162  0.00  0.00    +0.000 C 
ATOM     16  C   UNL     1      -2.642  12.522  23.252  0.00  0.00    +0.000 C 
ATOM     17  C   UNL     1      -1.283  11.931  22.793  0.00  0.00    +0.000 C 
ATOM     18  C   UNL     1      -0.695  12.648  21.561  0.00  0.00    +0.000 C 
ATOM     19  C   UNL     1      -1.677  12.507  20.363  0.00  0.00    +0.000 C 
ENDROOT
BRANCH   1  21
ATOM     20  N   UNL     1       0.948   9.993  19.867  0.00  0.00    +0.000 N 
ATOM     21  C   UNL     1       0.910  11.393  19.822  0.00  0.00    +0.000 C 
ATOM     22  O   UNL     1       1.031  12.010  18.751  0.00  0.00    +0.000 OA
BRANCH  20  24
ATOM     23  C   UNL     1      -0.163   9.500  17.639  0.00  0.00    +0.000 C 
ATOM     24  C   UNL     1       0.991   9.184  18.600  0.00  0.00    +0.000 C 
ATOM     25  C   UNL     1       2.300   9.168  17.789  0.00  0.00    +0.000 C 
ENDBRANCH  20  24
BRANCH  20  26
ATOM     26  C   UNL     1       0.770   9.268  21.152  0.00  0.00    +0.000 C 
ATOM     27  C   UNL     1      -0.683   8.835  21.380  0.00  0.00    +0.000 C 
ATOM     28  C   UNL     1       1.733   8.103  21.381  0.00  0.00    +0.000 C 
ENDBRANCH  20  26
ENDBRANCH   1  21
BRANCH  10  29
ATOM     29  C   UNL     1      -7.202  17.903  22.799  0.00  0.00    +0.000 C 
ATOM     30  O   UNL     1      -7.221  18.631  23.779  0.00  0.00    +0.000 OA
BRANCH  29  31
ATOM     31  O   UNL     1      -7.916  18.201  21.699  0.00  0.00    +0.000 OA
ATOM     32  H   UNL     1      -8.115  19.140  21.576  0.00  0.00    +0.000 HD
ENDBRANCH  29  31
ENDBRANCH  10  29
TORSDOF 5
ENDMDL
MODEL 8
REMARK VINA RESULT:      -4.8      4.054      7.099
REMARK  Name = 
REMARK  11 active torsions:
REMARK  status: ('A' for Active; 'I' for Inactive)
REMARK    1  A    between atoms: C_1  and  C_2
REMARK    2  A    between atoms: C_2  and  C_3
REMARK    3  A    between atoms: C_2  and  N_4
REMARK    4  A    between atoms: N_4  and  C_29
REMARK    5  A    between atoms: C_5  and  C_7
REMARK    6  A    between atoms: C_16  and  C_17
REMARK    7  A    between atoms: C_17  and  O_19
REMARK    8  A    between atoms: C_22  and  C_23
REMARK    9  A    between atoms: C_27  and  C_28
REMARK   10  A    between atoms: C_29  and  C_30
REMARK   11  A    between atoms: C_29  and  C_31
REMARK                            x       y       z     vdW  Elec       q    Type
REMARK                         _______ _______ _______ _____ _____    ______ ____
ROOT
ATOM      1  C   UNL     1      -2.790  11.118  19.107  0.00  0.00    +0.000 C 
ATOM      2  C   UNL     1      -2.244  10.033  18.147  0.00  0.00    +0.000 C 
ATOM      3  C   UNL     1      -0.764  10.316  17.920  0.00  0.00    +0.000 C 
ATOM      4  C   UNL     1      -0.348  11.110  19.147  0.00  0.00    +0.000 C 
ATOM      5  C   UNL     1       0.880  11.998  19.049  0.00  0.00    +0.000 C 
ATOM      6  C   UNL     1       2.096  11.333  18.421  0.00  0.00    +0.000 C 
ATOM      7  C   UNL     1       2.840  12.494  17.785  0.00  0.00    +0.000 C 
ATOM      8  C   UNL     1       3.229  13.483  18.875  0.00  0.00    +0.000 C 
ATOM      9  C   UNL     1       3.878  14.737  18.325  0.00  0.00    +0.000 C 
ATOM     10  C   UNL     1       4.940  15.017  19.360  0.00  0.00    +0.000 C 
ATOM     11  C   UNL     1       4.654  14.885  20.684  0.00  0.00    +0.000 C 
ATOM     12  C   UNL     1       3.364  14.195  21.218  0.00  0.00    +0.000 C 
ATOM     13  C   UNL     1       2.300  13.883  20.096  0.00  0.00    +0.000 C 
ATOM     14  C   UNL     1       1.551  15.246  19.989  0.00  0.00    +0.000 C 
ATOM     15  C   UNL     1       1.250  12.704  20.393  0.00  0.00    +0.000 C 
ATOM     16  C   UNL     1      -0.025  13.097  21.226  0.00  0.00    +0.000 C 
ATOM     17  C   UNL     1      -1.353  12.347  20.945  0.00  0.00    +0.000 C 
ATOM     18  C   UNL     1      -1.563  12.025  19.452  0.00  0.00    +0.000 C 
ATOM     19  C   UNL     1      -1.612  13.350  18.639  0.00  0.00    +0.000 C 
ENDROOT
BRANCH   1  21
ATOM     20  N   UNL     1      -5.010  12.434  19.123  0.00  0.00    +0.000 N 
ATOM     21  C   UNL     1      -4.008  11.795  18.381  0.00  0.00    +0.000 C 
ATOM     22  O   UNL     1      -4.068  11.717  17.143  0.00  0.00    +0.000 OA
BRANCH  20  24
ATOM     23  C   UNL     1      -7.369  12.312  18.195  0.00  0.00    +0.000 C 
ATOM     24  C   UNL     1      -6.123  13.176  18.433  0.00  0.00    +0.000 C 
ATOM     25  C   UNL     1      -6.577  14.523  19.025  0.00  0.00    +0.000 C 
ENDBRANCH  20  24
BRANCH  20  26
ATOM     26  C   UNL     1      -4.908  12.547  20.601  0.00  0.00    +0.000 C 
ATOM     27  C   UNL     1      -4.413  13.928  21.047  0.00  0.00    +0.000 C 
ATOM     28  C   UNL     1      -6.163  12.138  21.373  0.00  0.00    +0.000 C 
ENDBRANCH  20  26
ENDBRANCH   1  21
BRANCH  10  29
ATOM     29  C   UNL     1       6.309  15.031  18.757  0.00  0.00    +0.000 C 
ATOM     30  O   UNL     1       6.605  14.372  17.773  0.00  0.00    +0.000 OA
BRANCH  29  31
ATOM     31  O   UNL     1       7.251  15.673  19.472  0.00  0.00    +0.000 OA
ATOM     32  H   UNL     1       7.233  15.505  20.424  0.00  0.00    +0.000 HD
ENDBRANCH  29  31
ENDBRANCH  10  29
TORSDOF 5
ENDMDL
MODEL 9
REMARK VINA RESULT:      -4.8      6.998      8.165
REMARK  Name = 
REMARK  11 active torsions:
REMARK  status: ('A' for Active; 'I' for Inactive)
REMARK    1  A    between atoms: C_1  and  C_2
REMARK    2  A    between atoms: C_2  and  C_3
REMARK    3  A    between atoms: C_2  and  N_4
REMARK    4  A    between atoms: N_4  and  C_29
REMARK    5  A    between atoms: C_5  and  C_7
REMARK    6  A    between atoms: C_16  and  C_17
REMARK    7  A    between atoms: C_17  and  O_19
REMARK    8  A    between atoms: C_22  and  C_23
REMARK    9  A    between atoms: C_27  and  C_28
REMARK   10  A    between atoms: C_29  and  C_30
REMARK   11  A    between atoms: C_29  and  C_31
REMARK                            x       y       z     vdW  Elec       q    Type
REMARK                         _______ _______ _______ _____ _____    ______ ____
ROOT
ATOM      1  C   UNL     1      -1.229  12.122  21.074  0.00  0.00    +0.000 C 
ATOM      2  C   UNL     1      -1.211  11.519  22.500  0.00  0.00    +0.000 C 
ATOM      3  C   UNL     1      -0.419  10.219  22.445  0.00  0.00    +0.000 C 
ATOM      4  C   UNL     1       0.483  10.388  21.235  0.00  0.00    +0.000 C 
ATOM      5  C   UNL     1       1.027   9.140  20.561  0.00  0.00    +0.000 C 
ATOM      6  C   UNL     1       1.619   8.112  21.513  0.00  0.00    +0.000 C 
ATOM      7  C   UNL     1       1.394   6.796  20.790  0.00  0.00    +0.000 C 
ATOM      8  C   UNL     1       2.134   6.835  19.460  0.00  0.00    +0.000 C 
ATOM      9  C   UNL     1       1.877   5.607  18.609  0.00  0.00    +0.000 C 
ATOM     10  C   UNL     1       3.232   5.370  17.989  0.00  0.00    +0.000 C 
ATOM     11  C   UNL     1       3.962   6.419  17.523  0.00  0.00    +0.000 C 
ATOM     12  C   UNL     1       3.616   7.907  17.826  0.00  0.00    +0.000 C 
ATOM     13  C   UNL     1       2.210   8.105  18.513  0.00  0.00    +0.000 C 
ATOM     14  C   UNL     1       1.259   8.115  17.278  0.00  0.00    +0.000 C 
ATOM     15  C   UNL     1       2.000   9.443  19.377  0.00  0.00    +0.000 C 
ATOM     16  C   UNL     1       1.578  10.730  18.577  0.00  0.00    +0.000 C 
ATOM     17  C   UNL     1       0.673  11.774  19.281  0.00  0.00    +0.000 C 
ATOM     18  C   UNL     1      -0.393  11.136  20.195  0.00  0.00    +0.000 C 
ATOM     19  C   UNL     1      -1.326  10.229  19.344  0.00  0.00    +0.000 C 
ENDROOT
BRANCH   1  21
ATOM     20  N   UNL     1      -3.659  12.777  21.646  0.00  0.00    +0.000 N 
ATOM     21  C   UNL     1      -2.738  12.332  20.689  0.00  0.00    +0.000 C 
ATOM     22  O   UNL     1      -3.089  12.062  19.528  0.00  0.00    +0.000 OA
BRANCH  20  24
ATOM     23  C   UNL     1      -5.215  14.334  20.382  0.00  0.00    +0.000 C 
ATOM     24  C   UNL     1      -5.081  13.083  21.262  0.00  0.00    +0.000 C 
ATOM     25  C   UNL     1      -5.922  11.959  20.629  0.00  0.00    +0.000 C 
ENDBRANCH  20  24
BRANCH  20  26
ATOM     26  C   UNL     1      -3.218  13.127  23.022  0.00  0.00    +0.000 C 
ATOM     27  C   UNL     1      -2.926  14.624  23.177  0.00  0.00    +0.000 C 
ATOM     28  C   UNL     1      -4.128  12.625  24.144  0.00  0.00    +0.000 C 
ENDBRANCH  20  26
ENDBRANCH   1  21
BRANCH  10  29
ATOM     29  C   UNL     1       3.765   4.014  18.329  0.00  0.00    +0.000 C 
ATOM     30  O   UNL     1       3.295   3.322  19.217  0.00  0.00    +0.000 OA
BRANCH  29  31
ATOM     31  O   UNL     1       4.915   3.674  17.720  0.00  0.00    +0.000 OA
ATOM     32  H   UNL     1       5.094   4.133  16.887  0.00  0.00    +0.000 HD
ENDBRANCH  29  31
ENDBRANCH  10  29
TORSDOF 5
ENDMDL
