MODEL 1
REMARK VINA RESULT:      -7.8      0.000      0.000
REMARK  Name = 
REMARK  5 active torsions:
REMARK  status: ('A' for Active; 'I' for Inactive)
REMARK    1  A    between atoms: C_1  and  O_2
REMARK    2  A    between atoms: O_2  and  C_3
REMARK    3  A    between atoms: C_5  and  C_6
REMARK    4  A    between atoms: C_13  and  C_14
REMARK    5  A    between atoms: C_25  and  O_26
REMARK                            x       y       z     vdW  Elec       q    Type
REMARK                         _______ _______ _______ _____ _____    ______ ____
ROOT
ATOM      1  C   UNL     1       4.875   4.112  16.706  0.00  0.00    +0.000 C 
ATOM      2  O   UNL     1       3.707   3.288  16.560  0.00  0.00    +0.000 OA
ATOM      3  C   UNL     1       2.817   3.674  17.607  0.00  0.00    +0.000 C 
ATOM      4  C   UNL     1       2.967   5.180  17.737  0.00  0.00    +0.000 C 
ATOM      5  C   UNL     1       4.376   5.450  17.253  0.00  0.00    +0.000 C 
ATOM      6  C   UNL     1       5.130   5.920  18.480  0.00  0.00    +0.000 C 
ATOM      7  O   UNL     1       4.301   5.651  19.617  0.00  0.00    +0.000 OA
ATOM      8  C   UNL     1       2.926   5.645  19.188  0.00  0.00    +0.000 C 
ENDROOT
BRANCH   8   9
ATOM      9  C   UNL     1       2.252   6.993  19.391  0.00  0.00    +0.000 A 
ATOM     10  C   UNL     1       2.149   7.946  18.348  0.00  0.00    +0.000 A 
ATOM     11  C   UNL     1       1.554   9.196  18.556  0.00  0.00    +0.000 A 
ATOM     12  C   UNL     1       1.088   9.483  19.818  0.00  0.00    +0.000 A 
ATOM     13  C   UNL     1       1.196   8.580  20.848  0.00  0.00    +0.000 A 
ATOM     14  C   UNL     1       1.771   7.337  20.669  0.00  0.00    +0.000 A 
ATOM     15  O   UNL     1       0.691   9.060  22.015  0.00  0.00    +0.000 OA
ATOM     16  C   UNL     1       0.261  10.374  21.602  0.00  0.00    +0.000 C 
ATOM     17  O   UNL     1       0.497  10.644  20.205  0.00  0.00    +0.000 OA
ENDBRANCH   8   9
BRANCH   1  20
ATOM     18  C   UNL     1       5.895   3.618  13.034  0.00  0.00    +0.000 A 
ATOM     19  C   UNL     1       5.213   3.515  14.257  0.00  0.00    +0.000 A 
ATOM     20  C   UNL     1       5.608   4.241  15.391  0.00  0.00    +0.000 A 
ATOM     21  C   UNL     1       6.698   5.112  15.276  0.00  0.00    +0.000 A 
ATOM     22  C   UNL     1       7.389   5.225  14.068  0.00  0.00    +0.000 A 
ATOM     23  C   UNL     1       6.996   4.477  12.954  0.00  0.00    +0.000 A 
BRANCH  18  25
ATOM     24  C   UNL     1       4.183   3.278  11.396  0.00  0.00    +0.000 C 
ATOM     25  O   UNL     1       5.355   2.827  12.056  0.00  0.00    +0.000 OA
ENDBRANCH  18  25
BRANCH  23  26
ATOM     26  O   UNL     1       7.718   4.611  11.800  0.00  0.00    +0.000 OA
ATOM     27  H   UNL     1       7.872   5.553  11.629  0.00  0.00    +0.000 HD
ENDBRANCH  23  26
ENDBRANCH   1  20
TORSDOF 4
ENDMDL
MODEL 2
REMARK VINA RESULT:      -7.8      0.660      1.409
REMARK  Name = 
REMARK  5 active torsions:
REMARK  status: ('A' for Active; 'I' for Inactive)
REMARK    1  A    between atoms: C_1  and  O_2
REMARK    2  A    between atoms: O_2  and  C_3
REMARK    3  A    between atoms: C_5  and  C_6
REMARK    4  A    between atoms: C_13  and  C_14
REMARK    5  A    between atoms: C_25  and  O_26
REMARK                            x       y       z     vdW  Elec       q    Type
REMARK                         _______ _______ _______ _____ _____    ______ ____
ROOT
ATOM      1  C   UNL     1       4.914   4.037  16.719  0.00  0.00    +0.000 C 
ATOM      2  O   UNL     1       3.728   3.248  16.529  0.00  0.00    +0.000 OA
ATOM      3  C   UNL     1       2.846   3.596  17.597  0.00  0.00    +0.000 C 
ATOM      4  C   UNL     1       3.030   5.088  17.810  0.00  0.00    +0.000 C 
ATOM      5  C   UNL     1       4.445   5.353  17.339  0.00  0.00    +0.000 C 
ATOM      6  C   UNL     1       5.208   5.737  18.589  0.00  0.00    +0.000 C 
ATOM      7  O   UNL     1       4.373   5.424  19.711  0.00  0.00    +0.000 OA
ATOM      8  C   UNL     1       2.999   5.472  19.284  0.00  0.00    +0.000 C 
ENDROOT
BRANCH   8   9
ATOM      9  C   UNL     1       2.355   6.823  19.562  0.00  0.00    +0.000 A 
ATOM     10  C   UNL     1       1.731   7.117  20.798  0.00  0.00    +0.000 A 
ATOM     11  C   UNL     1       1.114   8.352  21.031  0.00  0.00    +0.000 A 
ATOM     12  C   UNL     1       1.113   9.271  20.007  0.00  0.00    +0.000 A 
ATOM     13  C   UNL     1       1.695   8.996  18.793  0.00  0.00    +0.000 A 
ATOM     14  C   UNL     1       2.318   7.790  18.539  0.00  0.00    +0.000 A 
ATOM     15  O   UNL     1       1.573  10.026  17.914  0.00  0.00    +0.000 OA
ATOM     16  C   UNL     1       0.836  10.976  18.713  0.00  0.00    +0.000 C 
ATOM     17  O   UNL     1       0.553  10.508  20.047  0.00  0.00    +0.000 OA
ENDBRANCH   8   9
BRANCH   1  20
ATOM     18  C   UNL     1       5.967   3.670  13.041  0.00  0.00    +0.000 A 
ATOM     19  C   UNL     1       5.282   3.514  14.257  0.00  0.00    +0.000 A 
ATOM     20  C   UNL     1       5.650   4.222  15.412  0.00  0.00    +0.000 A 
ATOM     21  C   UNL     1       6.713   5.127  15.327  0.00  0.00    +0.000 A 
ATOM     22  C   UNL     1       7.407   5.292  14.127  0.00  0.00    +0.000 A 
ATOM     23  C   UNL     1       7.042   4.562  12.991  0.00  0.00    +0.000 A 
BRANCH  18  25
ATOM     24  C   UNL     1       4.236   3.285  11.434  0.00  0.00    +0.000 C 
ATOM     25  O   UNL     1       5.457   2.888  12.040  0.00  0.00    +0.000 OA
ENDBRANCH  18  25
BRANCH  23  26
ATOM     26  O   UNL     1       7.766   4.748  11.845  0.00  0.00    +0.000 OA
ATOM     27  H   UNL     1       7.177   5.070  11.145  0.00  0.00    +0.000 HD
ENDBRANCH  23  26
ENDBRANCH   1  20
TORSDOF 4
ENDMDL
MODEL 3
REMARK VINA RESULT:      -7.6      4.103      9.263
REMARK  Name = 
REMARK  5 active torsions:
REMARK  status: ('A' for Active; 'I' for Inactive)
REMARK    1  A    between atoms: C_1  and  O_2
REMARK    2  A    between atoms: O_2  and  C_3
REMARK    3  A    between atoms: C_5  and  C_6
REMARK    4  A    between atoms: C_13  and  C_14
REMARK    5  A    between atoms: C_25  and  O_26
REMARK                            x       y       z     vdW  Elec       q    Type
REMARK                         _______ _______ _______ _____ _____    ______ ____
ROOT
ATOM      1  C   UNL     1      -1.247  11.456  19.255  0.00  0.00    +0.000 C 
ATOM      2  O   UNL     1      -0.268  12.175  18.486  0.00  0.00    +0.000 OA
ATOM      3  C   UNL     1       0.988  11.559  18.771  0.00  0.00    +0.000 C 
ATOM      4  C   UNL     1       0.699  10.072  18.881  0.00  0.00    +0.000 C 
ATOM      5  C   UNL     1      -0.749  10.012  19.320  0.00  0.00    +0.000 C 
ATOM      6  C   UNL     1      -0.710   9.450  20.725  0.00  0.00    +0.000 C 
ATOM      7  O   UNL     1       0.657   9.473  21.155  0.00  0.00    +0.000 OA
ATOM      8  C   UNL     1       1.502   9.405  19.991  0.00  0.00    +0.000 C 
ENDROOT
BRANCH   8   9
ATOM      9  C   UNL     1       1.938   7.982  19.676  0.00  0.00    +0.000 A 
ATOM     10  C   UNL     1       2.435   7.614  18.402  0.00  0.00    +0.000 A 
ATOM     11  C   UNL     1       2.802   6.294  18.114  0.00  0.00    +0.000 A 
ATOM     12  C   UNL     1       2.645   5.354  19.106  0.00  0.00    +0.000 A 
ATOM     13  C   UNL     1       2.146   5.688  20.342  0.00  0.00    +0.000 A 
ATOM     14  C   UNL     1       1.783   6.982  20.655  0.00  0.00    +0.000 A 
ATOM     15  O   UNL     1       2.056   4.615  21.172  0.00  0.00    +0.000 OA
ATOM     16  C   UNL     1       2.546   3.565  20.311  0.00  0.00    +0.000 C 
ATOM     17  O   UNL     1       2.936   4.031  19.002  0.00  0.00    +0.000 OA
ENDBRANCH   8   9
BRANCH   1  20
ATOM     18  C   UNL     1      -4.141  11.284  16.732  0.00  0.00    +0.000 A 
ATOM     19  C   UNL     1      -2.874  11.155  17.323  0.00  0.00    +0.000 A 
ATOM     20  C   UNL     1      -2.618  11.587  18.633  0.00  0.00    +0.000 A 
ATOM     21  C   UNL     1      -3.675  12.134  19.370  0.00  0.00    +0.000 A 
ATOM     22  C   UNL     1      -4.940  12.272  18.797  0.00  0.00    +0.000 A 
ATOM     23  C   UNL     1      -5.172  11.857  17.482  0.00  0.00    +0.000 A 
BRANCH  18  25
ATOM     24  C   UNL     1      -2.992  10.257  14.900  0.00  0.00    +0.000 C 
ATOM     25  O   UNL     1      -4.180  10.807  15.449  0.00  0.00    +0.000 OA
ENDBRANCH  18  25
BRANCH  23  26
ATOM     26  O   UNL     1      -6.425  12.031  16.962  0.00  0.00    +0.000 OA
ATOM     27  H   UNL     1      -6.793  11.166  16.722  0.00  0.00    +0.000 HD
ENDBRANCH  23  26
ENDBRANCH   1  20
TORSDOF 4
ENDMDL
MODEL 4
REMARK VINA RESULT:      -7.5      3.098      5.781
REMARK  Name = 
REMARK  5 active torsions:
REMARK  status: ('A' for Active; 'I' for Inactive)
REMARK    1  A    between atoms: C_1  and  O_2
REMARK    2  A    between atoms: O_2  and  C_3
REMARK    3  A    between atoms: C_5  and  C_6
REMARK    4  A    between atoms: C_13  and  C_14
REMARK    5  A    between atoms: C_25  and  O_26
REMARK                            x       y       z     vdW  Elec       q    Type
REMARK                         _______ _______ _______ _____ _____    ______ ____
ROOT
ATOM      1  C   UNL     1       2.603   7.473  19.535  0.00  0.00    +0.000 C 
ATOM      2  O   UNL     1       2.000   7.288  20.826  0.00  0.00    +0.000 OA
ATOM      3  C   UNL     1       1.133   8.406  21.022  0.00  0.00    +0.000 C 
ATOM      4  C   UNL     1       0.516   8.687  19.663  0.00  0.00    +0.000 C 
ATOM      5  C   UNL     1       1.549   8.177  18.680  0.00  0.00    +0.000 C 
ATOM      6  C   UNL     1       2.069   9.415  17.979  0.00  0.00    +0.000 C 
ATOM      7  O   UNL     1       1.592  10.550  18.712  0.00  0.00    +0.000 OA
ATOM      8  C   UNL     1       0.376  10.180  19.387  0.00  0.00    +0.000 C 
ENDROOT
BRANCH   8   9
ATOM      9  C   UNL     1      -0.865  10.550  18.588  0.00  0.00    +0.000 A 
ATOM     10  C   UNL     1      -1.827  11.466  19.077  0.00  0.00    +0.000 A 
ATOM     11  C   UNL     1      -2.981  11.775  18.346  0.00  0.00    +0.000 A 
ATOM     12  C   UNL     1      -3.164  11.142  17.139  0.00  0.00    +0.000 A 
ATOM     13  C   UNL     1      -2.251  10.235  16.656  0.00  0.00    +0.000 A 
ATOM     14  C   UNL     1      -1.101   9.917  17.352  0.00  0.00    +0.000 A 
ATOM     15  O   UNL     1      -2.623   9.711  15.458  0.00  0.00    +0.000 OA
ATOM     16  C   UNL     1      -3.882  10.387  15.248  0.00  0.00    +0.000 C 
ATOM     17  O   UNL     1      -4.223  11.307  16.305  0.00  0.00    +0.000 OA
ENDBRANCH   8   9
BRANCH   1  20
ATOM     18  C   UNL     1       4.799   4.470  18.571  0.00  0.00    +0.000 A 
ATOM     19  C   UNL     1       4.369   5.692  19.112  0.00  0.00    +0.000 A 
ATOM     20  C   UNL     1       3.052   6.150  18.959  0.00  0.00    +0.000 A 
ATOM     21  C   UNL     1       2.143   5.341  18.267  0.00  0.00    +0.000 A 
ATOM     22  C   UNL     1       2.554   4.124  17.719  0.00  0.00    +0.000 A 
ATOM     23  C   UNL     1       3.877   3.693  17.863  0.00  0.00    +0.000 A 
BRANCH  18  25
ATOM     24  C   UNL     1       7.091   4.711  17.925  0.00  0.00    +0.000 C 
ATOM     25  O   UNL     1       6.118   4.209  18.828  0.00  0.00    +0.000 OA
ENDBRANCH  18  25
BRANCH  23  26
ATOM     26  O   UNL     1       4.232   2.502  17.291  0.00  0.00    +0.000 OA
ATOM     27  H   UNL     1       5.076   2.208  17.667  0.00  0.00    +0.000 HD
ENDBRANCH  23  26
ENDBRANCH   1  20
TORSDOF 4
ENDMDL
MODEL 5
REMARK VINA RESULT:      -7.5      3.763      9.324
REMARK  Name = 
REMARK  5 active torsions:
REMARK  status: ('A' for Active; 'I' for Inactive)
REMARK    1  A    between atoms: C_1  and  O_2
REMARK    2  A    between atoms: O_2  and  C_3
REMARK    3  A    between atoms: C_5  and  C_6
REMARK    4  A    between atoms: C_13  and  C_14
REMARK    5  A    between atoms: C_25  and  O_26
REMARK                            x       y       z     vdW  Elec       q    Type
REMARK                         _______ _______ _______ _____ _____    ______ ____
ROOT
ATOM      1  C   UNL     1      -1.139  11.371  19.257  0.00  0.00    +0.000 C 
ATOM      2  O   UNL     1      -0.150  12.019  18.440  0.00  0.00    +0.000 OA
ATOM      3  C   UNL     1       1.088  11.368  18.728  0.00  0.00    +0.000 C 
ATOM      4  C   UNL     1       0.747   9.899  18.907  0.00  0.00    +0.000 C 
ATOM      5  C   UNL     1      -0.693   9.913  19.374  0.00  0.00    +0.000 C 
ATOM      6  C   UNL     1      -0.647   9.409  20.802  0.00  0.00    +0.000 C 
ATOM      7  O   UNL     1       0.727   9.398  21.205  0.00  0.00    +0.000 OA
ATOM      8  C   UNL     1       1.546   9.249  20.030  0.00  0.00    +0.000 C 
ENDROOT
BRANCH   8   9
ATOM      9  C   UNL     1       1.922   7.799  19.768  0.00  0.00    +0.000 A 
ATOM     10  C   UNL     1       1.640   6.770  20.698  0.00  0.00    +0.000 A 
ATOM     11  C   UNL     1       2.019   5.443  20.460  0.00  0.00    +0.000 A 
ATOM     12  C   UNL     1       2.699   5.170  19.295  0.00  0.00    +0.000 A 
ATOM     13  C   UNL     1       3.000   6.158  18.389  0.00  0.00    +0.000 A 
ATOM     14  C   UNL     1       2.631   7.473  18.595  0.00  0.00    +0.000 A 
ATOM     15  O   UNL     1       3.686   5.686  17.315  0.00  0.00    +0.000 OA
ATOM     16  C   UNL     1       3.792   4.288  17.656  0.00  0.00    +0.000 C 
ATOM     17  O   UNL     1       3.154   3.951  18.906  0.00  0.00    +0.000 OA
ENDBRANCH   8   9
BRANCH   1  20
ATOM     18  C   UNL     1      -4.077  11.232  16.784  0.00  0.00    +0.000 A 
ATOM     19  C   UNL     1      -2.805  11.080  17.356  0.00  0.00    +0.000 A 
ATOM     20  C   UNL     1      -2.516  11.527  18.655  0.00  0.00    +0.000 A 
ATOM     21  C   UNL     1      -3.546  12.114  19.400  0.00  0.00    +0.000 A 
ATOM     22  C   UNL     1      -4.817  12.275  18.845  0.00  0.00    +0.000 A 
ATOM     23  C   UNL     1      -5.081  11.844  17.541  0.00  0.00    +0.000 A 
BRANCH  18  25
ATOM     24  C   UNL     1      -2.950  10.307  14.886  0.00  0.00    +0.000 C 
ATOM     25  O   UNL     1      -4.150  10.735  15.510  0.00  0.00    +0.000 OA
ENDBRANCH  18  25
BRANCH  23  26
ATOM     26  O   UNL     1      -6.338  12.043  17.039  0.00  0.00    +0.000 OA
ATOM     27  H   UNL     1      -6.992  11.779  17.704  0.00  0.00    +0.000 HD
ENDBRANCH  23  26
ENDBRANCH   1  20
TORSDOF 4
ENDMDL
MODEL 6
REMARK VINA RESULT:      -7.4      3.141      5.724
REMARK  Name = 
REMARK  5 active torsions:
REMARK  status: ('A' for Active; 'I' for Inactive)
REMARK    1  A    between atoms: C_1  and  O_2
REMARK    2  A    between atoms: O_2  and  C_3
REMARK    3  A    between atoms: C_5  and  C_6
REMARK    4  A    between atoms: C_13  and  C_14
REMARK    5  A    between atoms: C_25  and  O_26
REMARK                            x       y       z     vdW  Elec       q    Type
REMARK                         _______ _______ _______ _____ _____    ______ ____
ROOT
ATOM      1  C   UNL     1       2.588   7.565  19.366  0.00  0.00    +0.000 C 
ATOM      2  O   UNL     1       2.094   7.458  20.712  0.00  0.00    +0.000 OA
ATOM      3  C   UNL     1       1.183   8.543  20.886  0.00  0.00    +0.000 C 
ATOM      4  C   UNL     1       0.453   8.682  19.562  0.00  0.00    +0.000 C 
ATOM      5  C   UNL     1       1.436   8.144  18.544  0.00  0.00    +0.000 C 
ATOM      6  C   UNL     1       1.834   9.344  17.711  0.00  0.00    +0.000 C 
ATOM      7  O   UNL     1       1.350  10.511  18.387  0.00  0.00    +0.000 OA
ATOM      8  C   UNL     1       0.210  10.138  19.182  0.00  0.00    +0.000 C 
ENDROOT
BRANCH   8   9
ATOM      9  C   UNL     1      -1.105  10.380  18.456  0.00  0.00    +0.000 A 
ATOM     10  C   UNL     1      -1.360   9.852  17.168  0.00  0.00    +0.000 A 
ATOM     11  C   UNL     1      -2.561  10.109  16.496  0.00  0.00    +0.000 A 
ATOM     12  C   UNL     1      -3.486  10.914  17.121  0.00  0.00    +0.000 A 
ATOM     13  C   UNL     1      -3.249  11.451  18.363  0.00  0.00    +0.000 A 
ATOM     14  C   UNL     1      -2.076  11.209  19.051  0.00  0.00    +0.000 A 
ATOM     15  O   UNL     1      -4.277  12.227  18.798  0.00  0.00    +0.000 OA
ATOM     16  C   UNL     1      -5.184  12.123  17.680  0.00  0.00    +0.000 C 
ATOM     17  O   UNL     1      -4.694  11.279  16.618  0.00  0.00    +0.000 OA
ENDBRANCH   8   9
BRANCH   1  20
ATOM     18  C   UNL     1       4.838   4.546  18.596  0.00  0.00    +0.000 A 
ATOM     19  C   UNL     1       4.382   5.786  19.071  0.00  0.00    +0.000 A 
ATOM     20  C   UNL     1       3.065   6.223  18.862  0.00  0.00    +0.000 A 
ATOM     21  C   UNL     1       2.184   5.374  18.182  0.00  0.00    +0.000 A 
ATOM     22  C   UNL     1       2.621   4.139  17.700  0.00  0.00    +0.000 A 
ATOM     23  C   UNL     1       3.944   3.729  17.899  0.00  0.00    +0.000 A 
BRANCH  18  25
ATOM     24  C   UNL     1       7.144   4.761  17.991  0.00  0.00    +0.000 C 
ATOM     25  O   UNL     1       6.152   4.311  18.901  0.00  0.00    +0.000 OA
ENDBRANCH  18  25
BRANCH  23  26
ATOM     26  O   UNL     1       4.326   2.518  17.391  0.00  0.00    +0.000 OA
ATOM     27  H   UNL     1       3.541   2.041  17.079  0.00  0.00    +0.000 HD
ENDBRANCH  23  26
ENDBRANCH   1  20
TORSDOF 4
ENDMDL
MODEL 7
REMARK VINA RESULT:      -7.4      3.514      6.161
REMARK  Name = 
REMARK  5 active torsions:
REMARK  status: ('A' for Active; 'I' for Inactive)
REMARK    1  A    between atoms: C_1  and  O_2
REMARK    2  A    between atoms: O_2  and  C_3
REMARK    3  A    between atoms: C_5  and  C_6
REMARK    4  A    between atoms: C_13  and  C_14
REMARK    5  A    between atoms: C_25  and  O_26
REMARK                            x       y       z     vdW  Elec       q    Type
REMARK                         _______ _______ _______ _____ _____    ______ ____
ROOT
ATOM      1  C   UNL     1       2.422   7.131  19.492  0.00  0.00    +0.000 C 
ATOM      2  O   UNL     1       2.100   7.207  20.891  0.00  0.00    +0.000 OA
ATOM      3  C   UNL     1       1.488   8.482  21.087  0.00  0.00    +0.000 C 
ATOM      4  C   UNL     1       0.637   8.721  19.852  0.00  0.00    +0.000 C 
ATOM      5  C   UNL     1       1.329   7.920  18.770  0.00  0.00    +0.000 C 
ATOM      6  C   UNL     1       1.871   8.952  17.803  0.00  0.00    +0.000 C 
ATOM      7  O   UNL     1       1.756  10.231  18.438  0.00  0.00    +0.000 OA
ATOM      8  C   UNL     1       0.678  10.173  19.390  0.00  0.00    +0.000 C 
ENDROOT
BRANCH   8   9
ATOM      9  C   UNL     1      -0.634  10.678  18.808  0.00  0.00    +0.000 A 
ATOM     10  C   UNL     1      -1.450  11.611  19.493  0.00  0.00    +0.000 A 
ATOM     11  C   UNL     1      -2.670  12.044  18.962  0.00  0.00    +0.000 A 
ATOM     12  C   UNL     1      -3.068  11.517  17.755  0.00  0.00    +0.000 A 
ATOM     13  C   UNL     1      -2.300  10.595  17.085  0.00  0.00    +0.000 A 
ATOM     14  C   UNL     1      -1.089  10.156  17.582  0.00  0.00    +0.000 A 
ATOM     15  O   UNL     1      -2.875  10.188  15.922  0.00  0.00    +0.000 OA
ATOM     16  C   UNL     1      -4.099  10.952  15.945  0.00  0.00    +0.000 C 
ATOM     17  O   UNL     1      -4.221  11.809  17.099  0.00  0.00    +0.000 OA
ENDBRANCH   8   9
BRANCH   1  20
ATOM     18  C   UNL     1       2.018   3.310  19.378  0.00  0.00    +0.000 A 
ATOM     19  C   UNL     1       1.927   4.652  19.781  0.00  0.00    +0.000 A 
ATOM     20  C   UNL     1       2.514   5.691  19.042  0.00  0.00    +0.000 A 
ATOM     21  C   UNL     1       3.182   5.367  17.856  0.00  0.00    +0.000 A 
ATOM     22  C   UNL     1       3.285   4.038  17.442  0.00  0.00    +0.000 A 
ATOM     23  C   UNL     1       2.713   3.013  18.202  0.00  0.00    +0.000 A 
BRANCH  18  25
ATOM     24  C   UNL     1       1.588   2.625  21.631  0.00  0.00    +0.000 C 
ATOM     25  O   UNL     1       1.384   2.453  20.237  0.00  0.00    +0.000 OA
ENDBRANCH  18  25
BRANCH  23  26
ATOM     26  O   UNL     1       2.858   1.726  17.761  0.00  0.00    +0.000 OA
ATOM     27  H   UNL     1       2.111   1.195  18.078  0.00  0.00    +0.000 HD
ENDBRANCH  23  26
ENDBRANCH   1  20
TORSDOF 4
ENDMDL
MODEL 8
REMARK VINA RESULT:      -7.4      4.493      8.004
REMARK  Name = 
REMARK  5 active torsions:
REMARK  status: ('A' for Active; 'I' for Inactive)
REMARK    1  A    between atoms: C_1  and  O_2
REMARK    2  A    between atoms: O_2  and  C_3
REMARK    3  A    between atoms: C_5  and  C_6
REMARK    4  A    between atoms: C_13  and  C_14
REMARK    5  A    between atoms: C_25  and  O_26
REMARK                            x       y       z     vdW  Elec       q    Type
REMARK                         _______ _______ _______ _____ _____    ______ ____
ROOT
ATOM      1  C   UNL     1       0.531  10.169  18.327  0.00  0.00    +0.000 C 
ATOM      2  O   UNL     1       0.913  11.345  19.061  0.00  0.00    +0.000 OA
ATOM      3  C   UNL     1      -0.171  12.264  18.927  0.00  0.00    +0.000 C 
ATOM      4  C   UNL     1      -1.433  11.420  18.977  0.00  0.00    +0.000 C 
ATOM      5  C   UNL     1      -0.988  10.067  18.464  0.00  0.00    +0.000 C 
ATOM      6  C   UNL     1      -1.703   9.895  17.140  0.00  0.00    +0.000 C 
ATOM      7  O   UNL     1      -2.265  11.166  16.792  0.00  0.00    +0.000 OA
ATOM      8  C   UNL     1      -2.498  11.909  18.003  0.00  0.00    +0.000 C 
ENDROOT
BRANCH   8   9
ATOM      9  C   UNL     1      -3.924  11.753  18.511  0.00  0.00    +0.000 A 
ATOM     10  C   UNL     1      -4.930  11.118  17.743  0.00  0.00    +0.000 A 
ATOM     11  C   UNL     1      -6.246  11.010  18.208  0.00  0.00    +0.000 A 
ATOM     12  C   UNL     1      -6.541  11.561  19.434  0.00  0.00    +0.000 A 
ATOM     13  C   UNL     1      -5.583  12.198  20.185  0.00  0.00    +0.000 A 
ATOM     14  C   UNL     1      -4.276  12.313  19.755  0.00  0.00    +0.000 A 
ATOM     15  O   UNL     1      -6.079  12.685  21.354  0.00  0.00    +0.000 OA
ATOM     16  C   UNL     1      -7.463  12.288  21.245  0.00  0.00    +0.000 C 
ATOM     17  O   UNL     1      -7.759  11.562  20.034  0.00  0.00    +0.000 OA
ENDBRANCH   8   9
BRANCH   1  20
ATOM     18  C   UNL     1       2.735   7.025  18.479  0.00  0.00    +0.000 A 
ATOM     19  C   UNL     1       2.064   8.164  18.008  0.00  0.00    +0.000 A 
ATOM     20  C   UNL     1       1.261   8.952  18.847  0.00  0.00    +0.000 A 
ATOM     21  C   UNL     1       1.160   8.597  20.197  0.00  0.00    +0.000 A 
ATOM     22  C   UNL     1       1.819   7.466  20.681  0.00  0.00    +0.000 A 
ATOM     23  C   UNL     1       2.597   6.678  19.827  0.00  0.00    +0.000 A 
BRANCH  18  25
ATOM     24  C   UNL     1       4.626   7.034  17.012  0.00  0.00    +0.000 C 
ATOM     25  O   UNL     1       3.459   6.394  17.504  0.00  0.00    +0.000 OA
ENDBRANCH  18  25
BRANCH  23  26
ATOM     26  O   UNL     1       3.207   5.570  20.348  0.00  0.00    +0.000 OA
ATOM     27  H   UNL     1       4.165   5.716  20.372  0.00  0.00    +0.000 HD
ENDBRANCH  23  26
ENDBRANCH   1  20
TORSDOF 4
ENDMDL
MODEL 9
REMARK VINA RESULT:      -7.4      3.172      5.736
REMARK  Name = 
REMARK  5 active torsions:
REMARK  status: ('A' for Active; 'I' for Inactive)
REMARK    1  A    between atoms: C_1  and  O_2
REMARK    2  A    between atoms: O_2  and  C_3
REMARK    3  A    between atoms: C_5  and  C_6
REMARK    4  A    between atoms: C_13  and  C_14
REMARK    5  A    between atoms: C_25  and  O_26
REMARK                            x       y       z     vdW  Elec       q    Type
REMARK                         _______ _______ _______ _____ _____    ______ ____
ROOT
ATOM      1  C   UNL     1       2.633   7.531  19.407  0.00  0.00    +0.000 C 
ATOM      2  O   UNL     1       2.081   7.347  20.722  0.00  0.00    +0.000 OA
ATOM      3  C   UNL     1       1.230   8.470  20.955  0.00  0.00    +0.000 C 
ATOM      4  C   UNL     1       0.562   8.760  19.623  0.00  0.00    +0.000 C 
ATOM      5  C   UNL     1       1.550   8.245  18.597  0.00  0.00    +0.000 C 
ATOM      6  C   UNL     1       2.050   9.482  17.880  0.00  0.00    +0.000 C 
ATOM      7  O   UNL     1       1.611  10.618  18.634  0.00  0.00    +0.000 OA
ATOM      8  C   UNL     1       0.420  10.254  19.357  0.00  0.00    +0.000 C 
ENDROOT
BRANCH   8   9
ATOM      9  C   UNL     1      -0.849  10.635  18.609  0.00  0.00    +0.000 A 
ATOM     10  C   UNL     1      -1.802  11.529  19.155  0.00  0.00    +0.000 A 
ATOM     11  C   UNL     1      -2.981  11.848  18.471  0.00  0.00    +0.000 A 
ATOM     12  C   UNL     1      -3.198  11.246  17.253  0.00  0.00    +0.000 A 
ATOM     13  C   UNL     1      -2.295  10.361  16.716  0.00  0.00    +0.000 A 
ATOM     14  C   UNL     1      -1.121  10.035  17.365  0.00  0.00    +0.000 A 
ATOM     15  O   UNL     1      -2.702   9.868  15.516  0.00  0.00    +0.000 OA
ATOM     16  C   UNL     1      -3.972  10.538  15.366  0.00  0.00    +0.000 C 
ATOM     17  O   UNL     1      -4.286  11.425  16.459  0.00  0.00    +0.000 OA
ENDBRANCH   8   9
BRANCH   1  20
ATOM     18  C   UNL     1       2.482   3.983  17.939  0.00  0.00    +0.000 A 
ATOM     19  C   UNL     1       2.105   5.221  18.482  0.00  0.00    +0.000 A 
ATOM     20  C   UNL     1       3.048   6.207  18.810  0.00  0.00    +0.000 A 
ATOM     21  C   UNL     1       4.399   5.944  18.555  0.00  0.00    +0.000 A 
ATOM     22  C   UNL     1       4.792   4.717  18.018  0.00  0.00    +0.000 A 
ATOM     23  C   UNL     1       3.840   3.737  17.718  0.00  0.00    +0.000 A 
BRANCH  18  25
ATOM     24  C   UNL     1       0.910   2.378  18.766  0.00  0.00    +0.000 C 
ATOM     25  O   UNL     1       1.414   3.162  17.695  0.00  0.00    +0.000 OA
ENDBRANCH  18  25
BRANCH  23  26
ATOM     26  O   UNL     1       4.280   2.546  17.210  0.00  0.00    +0.000 OA
ATOM     27  H   UNL     1       4.936   2.164  17.815  0.00  0.00    +0.000 HD
ENDBRANCH  23  26
ENDBRANCH   1  20
TORSDOF 4
ENDMDL
