MODEL 1
REMARK VINA RESULT:      -9.2      0.000      0.000
REMARK  Name = 
REMARK  5 active torsions:
REMARK  status: ('A' for Active; 'I' for Inactive)
REMARK    1  A    between atoms: C_2  and  C_18
REMARK    2  A    between atoms: C_7  and  C_8
REMARK    3  A    between atoms: C_8  and  C_9
REMARK    4  A    between atoms: C_9  and  C_10
REMARK    5  A    between atoms: C_10  and  C_11
REMARK                            x       y       z     vdW  Elec       q    Type
REMARK                         _______ _______ _______ _____ _____    ______ ____
ROOT
ATOM      1  O   UNL     1       7.600   9.495  17.551  0.00  0.00    +0.000 OA
ATOM      2  C   UNL     1       8.460   9.182  18.371  0.00  0.00    +0.000 C 
ATOM      3  N   UNL     1       8.653   7.951  18.940  0.00  0.00    +0.000 N 
ATOM      4  C   UNL     1       7.945   6.819  18.631  0.00  0.00    +0.000 A 
ATOM      5  N   UNL     1       8.057   5.704  19.312  0.00  0.00    +0.000 NA
ATOM      6  N   UNL     1       7.237   4.707  18.821  0.00  0.00    +0.000 NA
ATOM      7  C   UNL     1       6.558   5.108  17.766  0.00  0.00    +0.000 A 
ATOM      8  S   UNL     1       6.883   6.718  17.294  0.00  0.00    +0.000 S 
ATOM      9  H   UNL     1       9.277   7.838  19.724  0.00  0.00    +0.000 HD
ENDROOT
BRANCH   2  10
ATOM     10  C   UNL     1       9.380  10.249  18.824  0.00  0.00    +0.000 A 
ATOM     11  C   UNL     1      10.139  11.020  17.912  0.00  0.00    +0.000 A 
ATOM     12  C   UNL     1      10.778  12.189  18.344  0.00  0.00    +0.000 A 
ATOM     13  C   UNL     1      10.592  12.560  19.657  0.00  0.00    +0.000 A 
ATOM     14  C   UNL     1       9.905  11.769  20.553  0.00  0.00    +0.000 A 
ATOM     15  C   UNL     1       9.315  10.591  20.179  0.00  0.00    +0.000 A 
ATOM     16  O   UNL     1       9.769  12.363  21.769  0.00  0.00    +0.000 OA
ATOM     17  C   UNL     1      10.108  13.712  21.395  0.00  0.00    +0.000 C 
ATOM     18  O   UNL     1      10.935  13.757  20.209  0.00  0.00    +0.000 OA
ENDBRANCH   2  10
BRANCH   7  19
ATOM     19  C   UNL     1       5.582   4.272  17.011  0.00  0.00    +0.000 C 
BRANCH  19  20
ATOM     20  C   UNL     1       4.241   4.989  16.882  0.00  0.00    +0.000 C 
BRANCH  20  21
ATOM     21  C   UNL     1       3.778   5.538  18.231  0.00  0.00    +0.000 C 
BRANCH  21  22
ATOM     22  C   UNL     1       2.668   4.685  18.789  0.00  0.00    +0.000 A 
ATOM     23  C   UNL     1       2.235   4.860  20.110  0.00  0.00    +0.000 A 
ATOM     24  C   UNL     1       1.263   4.018  20.648  0.00  0.00    +0.000 A 
ATOM     25  C   UNL     1       0.720   2.995  19.873  0.00  0.00    +0.000 A 
ATOM     26  C   UNL     1       1.139   2.817  18.556  0.00  0.00    +0.000 A 
ATOM     27  C   UNL     1       2.111   3.658  18.015  0.00  0.00    +0.000 A 
ENDBRANCH  21  22
ENDBRANCH  20  21
ENDBRANCH  19  20
ENDBRANCH   7  19
TORSDOF 5
ENDMDL
MODEL 2
REMARK VINA RESULT:      -9.1      0.451      1.088
REMARK  Name = 
REMARK  5 active torsions:
REMARK  status: ('A' for Active; 'I' for Inactive)
REMARK    1  A    between atoms: C_2  and  C_18
REMARK    2  A    between atoms: C_7  and  C_8
REMARK    3  A    between atoms: C_8  and  C_9
REMARK    4  A    between atoms: C_9  and  C_10
REMARK    5  A    between atoms: C_10  and  C_11
REMARK                            x       y       z     vdW  Elec       q    Type
REMARK                         _______ _______ _______ _____ _____    ______ ____
ROOT
ATOM      1  O   UNL     1       7.763   9.618  17.469  0.00  0.00    +0.000 OA
ATOM      2  C   UNL     1       8.545   9.311  18.367  0.00  0.00    +0.000 C 
ATOM      3  N   UNL     1       8.690   8.082  18.955  0.00  0.00    +0.000 N 
ATOM      4  C   UNL     1       8.018   6.947  18.584  0.00  0.00    +0.000 A 
ATOM      5  N   UNL     1       8.071   5.834  19.276  0.00  0.00    +0.000 NA
ATOM      6  N   UNL     1       7.304   4.832  18.714  0.00  0.00    +0.000 NA
ATOM      7  C   UNL     1       6.724   5.227  17.599  0.00  0.00    +0.000 A 
ATOM      8  S   UNL     1       7.085   6.838  17.155  0.00  0.00    +0.000 S 
ATOM      9  H   UNL     1       9.239   7.974  19.793  0.00  0.00    +0.000 HD
ENDROOT
BRANCH   2  10
ATOM     10  C   UNL     1       9.415  10.383  18.900  0.00  0.00    +0.000 A 
ATOM     11  C   UNL     1      10.202  11.199  18.053  0.00  0.00    +0.000 A 
ATOM     12  C   UNL     1      10.789  12.368  18.554  0.00  0.00    +0.000 A 
ATOM     13  C   UNL     1      10.527  12.693  19.867  0.00  0.00    +0.000 A 
ATOM     14  C   UNL     1       9.813  11.858  20.700  0.00  0.00    +0.000 A 
ATOM     15  C   UNL     1       9.272  10.680  20.260  0.00  0.00    +0.000 A 
ATOM     16  O   UNL     1       9.600  12.410  21.926  0.00  0.00    +0.000 OA
ATOM     17  C   UNL     1       9.927  13.777  21.612  0.00  0.00    +0.000 C 
ATOM     18  O   UNL     1      10.813  13.879  20.472  0.00  0.00    +0.000 OA
ENDBRANCH   2  10
BRANCH   7  19
ATOM     19  C   UNL     1       5.826   4.385  16.759  0.00  0.00    +0.000 C 
BRANCH  19  20
ATOM     20  C   UNL     1       4.367   4.782  16.962  0.00  0.00    +0.000 C 
BRANCH  20  21
ATOM     21  C   UNL     1       3.479   3.549  17.134  0.00  0.00    +0.000 C 
BRANCH  21  22
ATOM     22  C   UNL     1       2.699   3.643  18.420  0.00  0.00    +0.000 A 
ATOM     23  C   UNL     1       1.520   2.905  18.589  0.00  0.00    +0.000 A 
ATOM     24  C   UNL     1       0.760   3.052  19.748  0.00  0.00    +0.000 A 
ATOM     25  C   UNL     1       1.169   3.939  20.743  0.00  0.00    +0.000 A 
ATOM     26  C   UNL     1       2.343   4.672  20.587  0.00  0.00    +0.000 A 
ATOM     27  C   UNL     1       3.106   4.526  19.429  0.00  0.00    +0.000 A 
ENDBRANCH  21  22
ENDBRANCH  20  21
ENDBRANCH  19  20
ENDBRANCH   7  19
TORSDOF 5
ENDMDL
MODEL 3
REMARK VINA RESULT:      -9.1      1.038      1.794
REMARK  Name = 
REMARK  5 active torsions:
REMARK  status: ('A' for Active; 'I' for Inactive)
REMARK    1  A    between atoms: C_2  and  C_18
REMARK    2  A    between atoms: C_7  and  C_8
REMARK    3  A    between atoms: C_8  and  C_9
REMARK    4  A    between atoms: C_9  and  C_10
REMARK    5  A    between atoms: C_10  and  C_11
REMARK                            x       y       z     vdW  Elec       q    Type
REMARK                         _______ _______ _______ _____ _____    ______ ____
ROOT
ATOM      1  O   UNL     1       7.556   9.418  17.316  0.00  0.00    +0.000 OA
ATOM      2  C   UNL     1       8.336   9.201  18.241  0.00  0.00    +0.000 C 
ATOM      3  N   UNL     1       8.531   8.016  18.900  0.00  0.00    +0.000 N 
ATOM      4  C   UNL     1       7.923   6.829  18.584  0.00  0.00    +0.000 A 
ATOM      5  N   UNL     1       8.020   5.760  19.338  0.00  0.00    +0.000 NA
ATOM      6  N   UNL     1       7.314   4.691  18.822  0.00  0.00    +0.000 NA
ATOM      7  C   UNL     1       6.735   4.994  17.678  0.00  0.00    +0.000 A 
ATOM      8  S   UNL     1       7.023   6.594  17.149  0.00  0.00    +0.000 S 
ATOM      9  H   UNL     1       9.070   7.982  19.751  0.00  0.00    +0.000 HD
ENDROOT
BRANCH   2  10
ATOM     10  C   UNL     1       9.142  10.345  18.727  0.00  0.00    +0.000 A 
ATOM     11  C   UNL     1       9.688  10.374  20.032  0.00  0.00    +0.000 A 
ATOM     12  C   UNL     1      10.663  11.324  20.361  0.00  0.00    +0.000 A 
ATOM     13  C   UNL     1      11.081  12.172  19.360  0.00  0.00    +0.000 A 
ATOM     14  C   UNL     1      10.497  12.177  18.111  0.00  0.00    +0.000 A 
ATOM     15  C   UNL     1       9.502  11.300  17.771  0.00  0.00    +0.000 A 
ATOM     16  O   UNL     1      11.117  13.031  17.253  0.00  0.00    +0.000 OA
ATOM     17  C   UNL     1      12.333  13.244  17.994  0.00  0.00    +0.000 C 
ATOM     18  O   UNL     1      12.158  13.004  19.410  0.00  0.00    +0.000 OA
ENDBRANCH   2  10
BRANCH   7  19
ATOM     19  C   UNL     1       5.895   4.062  16.874  0.00  0.00    +0.000 C 
BRANCH  19  20
ATOM     20  C   UNL     1       4.455   4.560  16.797  0.00  0.00    +0.000 C 
BRANCH  20  21
ATOM     21  C   UNL     1       3.464   3.423  17.045  0.00  0.00    +0.000 C 
BRANCH  21  22
ATOM     22  C   UNL     1       2.678   3.681  18.304  0.00  0.00    +0.000 A 
ATOM     23  C   UNL     1       2.745   4.927  18.939  0.00  0.00    +0.000 A 
ATOM     24  C   UNL     1       2.078   5.138  20.145  0.00  0.00    +0.000 A 
ATOM     25  C   UNL     1       1.343   4.105  20.726  0.00  0.00    +0.000 A 
ATOM     26  C   UNL     1       1.264   2.864  20.098  0.00  0.00    +0.000 A 
ATOM     27  C   UNL     1       1.931   2.651  18.891  0.00  0.00    +0.000 A 
ENDBRANCH  21  22
ENDBRANCH  20  21
ENDBRANCH  19  20
ENDBRANCH   7  19
TORSDOF 5
ENDMDL
MODEL 4
REMARK VINA RESULT:      -8.7      4.890      7.553
REMARK  Name = 
REMARK  5 active torsions:
REMARK  status: ('A' for Active; 'I' for Inactive)
REMARK    1  A    between atoms: C_2  and  C_18
REMARK    2  A    between atoms: C_7  and  C_8
REMARK    3  A    between atoms: C_8  and  C_9
REMARK    4  A    between atoms: C_9  and  C_10
REMARK    5  A    between atoms: C_10  and  C_11
REMARK                            x       y       z     vdW  Elec       q    Type
REMARK                         _______ _______ _______ _____ _____    ______ ____
ROOT
ATOM      1  O   UNL     1       1.822   8.370  18.014  0.00  0.00    +0.000 OA
ATOM      2  C   UNL     1       1.771   8.291  19.239  0.00  0.00    +0.000 C 
ATOM      3  N   UNL     1       2.145   7.227  20.017  0.00  0.00    +0.000 N 
ATOM      4  C   UNL     1       2.716   6.072  19.550  0.00  0.00    +0.000 A 
ATOM      5  N   UNL     1       2.910   5.020  20.309  0.00  0.00    +0.000 NA
ATOM      6  N   UNL     1       3.488   3.974  19.616  0.00  0.00    +0.000 NA
ATOM      7  C   UNL     1       3.731   4.294  18.362  0.00  0.00    +0.000 A 
ATOM      8  S   UNL     1       3.286   5.892  17.948  0.00  0.00    +0.000 S 
ATOM      9  H   UNL     1       1.910   7.197  20.997  0.00  0.00    +0.000 HD
ENDROOT
BRANCH   2  10
ATOM     10  C   UNL     1       1.222   9.456  19.969  0.00  0.00    +0.000 A 
ATOM     11  C   UNL     1       0.685  10.577  19.293  0.00  0.00    +0.000 A 
ATOM     12  C   UNL     1      -0.069  11.525  19.996  0.00  0.00    +0.000 A 
ATOM     13  C   UNL     1      -0.291  11.287  21.335  0.00  0.00    +0.000 A 
ATOM     14  C   UNL     1       0.290  10.226  21.997  0.00  0.00    +0.000 A 
ATOM     15  C   UNL     1       1.080   9.311  21.353  0.00  0.00    +0.000 A 
ATOM     16  O   UNL     1      -0.128  10.131  23.288  0.00  0.00    +0.000 OA
ATOM     17  C   UNL     1      -1.277  10.995  23.212  0.00  0.00    +0.000 C 
ATOM     18  O   UNL     1      -1.167  11.955  22.134  0.00  0.00    +0.000 OA
ENDBRANCH   2  10
BRANCH   7  19
ATOM     19  C   UNL     1       4.340   3.384  17.351  0.00  0.00    +0.000 C 
BRANCH  19  20
ATOM     20  C   UNL     1       4.833   4.171  16.141  0.00  0.00    +0.000 C 
BRANCH  20  21
ATOM     21  C   UNL     1       6.355   4.100  16.019  0.00  0.00    +0.000 C 
BRANCH  21  22
ATOM     22  C   UNL     1       7.000   5.117  16.924  0.00  0.00    +0.000 A 
ATOM     23  C   UNL     1       7.577   4.722  18.138  0.00  0.00    +0.000 A 
ATOM     24  C   UNL     1       8.104   5.675  19.008  0.00  0.00    +0.000 A 
ATOM     25  C   UNL     1       8.055   7.027  18.674  0.00  0.00    +0.000 A 
ATOM     26  C   UNL     1       7.489   7.430  17.466  0.00  0.00    +0.000 A 
ATOM     27  C   UNL     1       6.962   6.478  16.593  0.00  0.00    +0.000 A 
ENDBRANCH  21  22
ENDBRANCH  20  21
ENDBRANCH  19  20
ENDBRANCH   7  19
TORSDOF 5
ENDMDL
MODEL 5
REMARK VINA RESULT:      -8.4      6.105      7.753
REMARK  Name = 
REMARK  5 active torsions:
REMARK  status: ('A' for Active; 'I' for Inactive)
REMARK    1  A    between atoms: C_2  and  C_18
REMARK    2  A    between atoms: C_7  and  C_8
REMARK    3  A    between atoms: C_8  and  C_9
REMARK    4  A    between atoms: C_9  and  C_10
REMARK    5  A    between atoms: C_10  and  C_11
REMARK                            x       y       z     vdW  Elec       q    Type
REMARK                         _______ _______ _______ _____ _____    ______ ____
ROOT
ATOM      1  O   UNL     1       1.160   7.866  21.574  0.00  0.00    +0.000 OA
ATOM      2  C   UNL     1       0.855   8.740  20.765  0.00  0.00    +0.000 C 
ATOM      3  N   UNL     1       1.344   8.900  19.495  0.00  0.00    +0.000 N 
ATOM      4  C   UNL     1       2.224   8.053  18.876  0.00  0.00    +0.000 A 
ATOM      5  N   UNL     1       2.785   8.331  17.723  0.00  0.00    +0.000 NA
ATOM      6  N   UNL     1       3.644   7.333  17.306  0.00  0.00    +0.000 NA
ATOM      7  C   UNL     1       3.673   6.326  18.154  0.00  0.00    +0.000 A 
ATOM      8  S   UNL     1       2.647   6.521  19.507  0.00  0.00    +0.000 S 
ATOM      9  H   UNL     1       1.154   9.742  18.973  0.00  0.00    +0.000 HD
ENDROOT
BRANCH   2  10
ATOM     10  C   UNL     1      -0.129   9.754  21.207  0.00  0.00    +0.000 A 
ATOM     11  C   UNL     1      -0.418   9.970  22.575  0.00  0.00    +0.000 A 
ATOM     12  C   UNL     1      -1.132  11.108  22.969  0.00  0.00    +0.000 A 
ATOM     13  C   UNL     1      -1.486  12.003  21.984  0.00  0.00    +0.000 A 
ATOM     14  C   UNL     1      -1.256  11.752  20.648  0.00  0.00    +0.000 A 
ATOM     15  C   UNL     1      -0.611  10.622  20.221  0.00  0.00    +0.000 A 
ATOM     16  O   UNL     1      -1.607  12.801  19.856  0.00  0.00    +0.000 OA
ATOM     17  C   UNL     1      -1.712  13.817  20.871  0.00  0.00    +0.000 C 
ATOM     18  O   UNL     1      -1.979  13.257  22.178  0.00  0.00    +0.000 OA
ENDBRANCH   2  10
BRANCH   7  19
ATOM     19  C   UNL     1       4.506   5.100  17.996  0.00  0.00    +0.000 C 
BRANCH  19  20
ATOM     20  C   UNL     1       3.810   4.086  17.094  0.00  0.00    +0.000 C 
BRANCH  20  21
ATOM     21  C   UNL     1       3.759   2.707  17.752  0.00  0.00    +0.000 C 
BRANCH  21  22
ATOM     22  C   UNL     1       2.875   2.741  18.971  0.00  0.00    +0.000 A 
ATOM     23  C   UNL     1       1.498   2.970  18.842  0.00  0.00    +0.000 A 
ATOM     24  C   UNL     1       0.695   3.079  19.976  0.00  0.00    +0.000 A 
ATOM     25  C   UNL     1       1.260   2.963  21.245  0.00  0.00    +0.000 A 
ATOM     26  C   UNL     1       2.626   2.729  21.384  0.00  0.00    +0.000 A 
ATOM     27  C   UNL     1       3.432   2.619  20.250  0.00  0.00    +0.000 A 
ENDBRANCH  21  22
ENDBRANCH  20  21
ENDBRANCH  19  20
ENDBRANCH   7  19
TORSDOF 5
ENDMDL
MODEL 6
REMARK VINA RESULT:      -8.3      6.107      7.329
REMARK  Name = 
REMARK  5 active torsions:
REMARK  status: ('A' for Active; 'I' for Inactive)
REMARK    1  A    between atoms: C_2  and  C_18
REMARK    2  A    between atoms: C_7  and  C_8
REMARK    3  A    between atoms: C_8  and  C_9
REMARK    4  A    between atoms: C_9  and  C_10
REMARK    5  A    between atoms: C_10  and  C_11
REMARK                            x       y       z     vdW  Elec       q    Type
REMARK                         _______ _______ _______ _____ _____    ______ ____
ROOT
ATOM      1  O   UNL     1       1.317   7.280  21.301  0.00  0.00    +0.000 OA
ATOM      2  C   UNL     1       1.153   8.320  20.666  0.00  0.00    +0.000 C 
ATOM      3  N   UNL     1       1.703   8.647  19.455  0.00  0.00    +0.000 N 
ATOM      4  C   UNL     1       2.494   7.822  18.700  0.00  0.00    +0.000 A 
ATOM      5  N   UNL     1       3.126   8.232  17.626  0.00  0.00    +0.000 NA
ATOM      6  N   UNL     1       3.869   7.226  17.040  0.00  0.00    +0.000 NA
ATOM      7  C   UNL     1       3.741   6.085  17.685  0.00  0.00    +0.000 A 
ATOM      8  S   UNL     1       2.699   6.158  19.038  0.00  0.00    +0.000 S 
ATOM      9  H   UNL     1       1.640   9.588  19.098  0.00  0.00    +0.000 HD
ENDROOT
BRANCH   2  10
ATOM     10  C   UNL     1       0.287   9.354  21.277  0.00  0.00    +0.000 A 
ATOM     11  C   UNL     1      -0.332   9.164  22.535  0.00  0.00    +0.000 A 
ATOM     12  C   UNL     1      -0.907  10.251  23.205  0.00  0.00    +0.000 A 
ATOM     13  C   UNL     1      -0.798  11.488  22.609  0.00  0.00    +0.000 A 
ATOM     14  C   UNL     1      -0.250  11.652  21.354  0.00  0.00    +0.000 A 
ATOM     15  C   UNL     1       0.271  10.602  20.646  0.00  0.00    +0.000 A 
ATOM     16  O   UNL     1      -0.165  12.961  20.994  0.00  0.00    +0.000 OA
ATOM     17  C   UNL     1      -0.365  13.559  22.289  0.00  0.00    +0.000 C 
ATOM     18  O   UNL     1      -1.088  12.686  23.188  0.00  0.00    +0.000 OA
ENDBRANCH   2  10
BRANCH   7  19
ATOM     19  C   UNL     1       4.420   4.812  17.310  0.00  0.00    +0.000 C 
BRANCH  19  20
ATOM     20  C   UNL     1       3.399   3.748  16.922  0.00  0.00    +0.000 C 
BRANCH  20  21
ATOM     21  C   UNL     1       3.546   2.499  17.793  0.00  0.00    +0.000 C 
BRANCH  21  22
ATOM     22  C   UNL     1       2.768   2.661  19.073  0.00  0.00    +0.000 A 
ATOM     23  C   UNL     1       3.425   2.628  20.310  0.00  0.00    +0.000 A 
ATOM     24  C   UNL     1       2.695   2.700  21.495  0.00  0.00    +0.000 A 
ATOM     25  C   UNL     1       1.305   2.801  21.453  0.00  0.00    +0.000 A 
ATOM     26  C   UNL     1       0.643   2.841  20.228  0.00  0.00    +0.000 A 
ATOM     27  C   UNL     1       1.372   2.770  19.041  0.00  0.00    +0.000 A 
ENDBRANCH  21  22
ENDBRANCH  20  21
ENDBRANCH  19  20
ENDBRANCH   7  19
TORSDOF 5
ENDMDL
MODEL 7
REMARK VINA RESULT:      -8.2      6.006      7.551
REMARK  Name = 
REMARK  5 active torsions:
REMARK  status: ('A' for Active; 'I' for Inactive)
REMARK    1  A    between atoms: C_2  and  C_18
REMARK    2  A    between atoms: C_7  and  C_8
REMARK    3  A    between atoms: C_8  and  C_9
REMARK    4  A    between atoms: C_9  and  C_10
REMARK    5  A    between atoms: C_10  and  C_11
REMARK                            x       y       z     vdW  Elec       q    Type
REMARK                         _______ _______ _______ _____ _____    ______ ____
ROOT
ATOM      1  O   UNL     1       1.362   8.036  21.082  0.00  0.00    +0.000 OA
ATOM      2  C   UNL     1       1.234   8.858  20.178  0.00  0.00    +0.000 C 
ATOM      3  N   UNL     1       1.833   8.836  18.946  0.00  0.00    +0.000 N 
ATOM      4  C   UNL     1       2.641   7.833  18.481  0.00  0.00    +0.000 A 
ATOM      5  N   UNL     1       3.318   7.929  17.361  0.00  0.00    +0.000 NA
ATOM      6  N   UNL     1       4.070   6.799  17.106  0.00  0.00    +0.000 NA
ATOM      7  C   UNL     1       3.906   5.882  18.037  0.00  0.00    +0.000 A 
ATOM      8  S   UNL     1       2.815   6.329  19.275  0.00  0.00    +0.000 S 
ATOM      9  H   UNL     1       1.793   9.640  18.339  0.00  0.00    +0.000 HD
ENDROOT
BRANCH   2  10
ATOM     10  C   UNL     1       0.358  10.022  20.444  0.00  0.00    +0.000 A 
ATOM     11  C   UNL     1      -0.505  10.551  19.455  0.00  0.00    +0.000 A 
ATOM     12  C   UNL     1      -1.509  11.459  19.814  0.00  0.00    +0.000 A 
ATOM     13  C   UNL     1      -1.635  11.764  21.151  0.00  0.00    +0.000 A 
ATOM     14  C   UNL     1      -0.749  11.293  22.097  0.00  0.00    +0.000 A 
ATOM     15  C   UNL     1       0.279  10.448  21.774  0.00  0.00    +0.000 A 
ATOM     16  O   UNL     1      -1.107  11.645  23.361  0.00  0.00    +0.000 OA
ATOM     17  C   UNL     1      -2.468  12.040  23.103  0.00  0.00    +0.000 C 
ATOM     18  O   UNL     1      -2.669  12.438  21.726  0.00  0.00    +0.000 OA
ENDBRANCH   2  10
BRANCH   7  19
ATOM     19  C   UNL     1       4.584   4.555  18.057  0.00  0.00    +0.000 C 
BRANCH  19  20
ATOM     20  C   UNL     1       3.887   3.576  17.118  0.00  0.00    +0.000 C 
BRANCH  20  21
ATOM     21  C   UNL     1       3.539   2.273  17.837  0.00  0.00    +0.000 C 
BRANCH  21  22
ATOM     22  C   UNL     1       2.757   2.562  19.092  0.00  0.00    +0.000 A 
ATOM     23  C   UNL     1       3.367   2.453  20.348  0.00  0.00    +0.000 A 
ATOM     24  C   UNL     1       2.621   2.645  21.510  0.00  0.00    +0.000 A 
ATOM     25  C   UNL     1       1.261   2.943  21.425  0.00  0.00    +0.000 A 
ATOM     26  C   UNL     1       0.647   3.060  20.180  0.00  0.00    +0.000 A 
ATOM     27  C   UNL     1       1.392   2.869  19.016  0.00  0.00    +0.000 A 
ENDBRANCH  21  22
ENDBRANCH  20  21
ENDBRANCH  19  20
ENDBRANCH   7  19
TORSDOF 5
ENDMDL
MODEL 8
REMARK VINA RESULT:      -8.2      6.697      9.812
REMARK  Name = 
REMARK  5 active torsions:
REMARK  status: ('A' for Active; 'I' for Inactive)
REMARK    1  A    between atoms: C_2  and  C_18
REMARK    2  A    between atoms: C_7  and  C_8
REMARK    3  A    between atoms: C_8  and  C_9
REMARK    4  A    between atoms: C_9  and  C_10
REMARK    5  A    between atoms: C_10  and  C_11
REMARK                            x       y       z     vdW  Elec       q    Type
REMARK                         _______ _______ _______ _____ _____    ______ ____
ROOT
ATOM      1  O   UNL     1       2.135   7.964  19.046  0.00  0.00    +0.000 OA
ATOM      2  C   UNL     1       2.003   7.268  20.051  0.00  0.00    +0.000 C 
ATOM      3  N   UNL     1       1.529   7.661  21.274  0.00  0.00    +0.000 N 
ATOM      4  C   UNL     1       1.046   8.909  21.569  0.00  0.00    +0.000 A 
ATOM      5  N   UNL     1       0.751   9.284  22.791  0.00  0.00    +0.000 NA
ATOM      6  N   UNL     1       0.296  10.587  22.842  0.00  0.00    +0.000 NA
ATOM      7  C   UNL     1       0.239  11.133  21.644  0.00  0.00    +0.000 A 
ATOM      8  S   UNL     1       0.724  10.091  20.377  0.00  0.00    +0.000 S 
ATOM      9  H   UNL     1       1.615   7.058  22.078  0.00  0.00    +0.000 HD
ENDROOT
BRANCH   2  10
ATOM     10  C   UNL     1       2.424   5.852  19.950  0.00  0.00    +0.000 A 
ATOM     11  C   UNL     1       2.208   4.931  21.002  0.00  0.00    +0.000 A 
ATOM     12  C   UNL     1       2.361   3.558  20.774  0.00  0.00    +0.000 A 
ATOM     13  C   UNL     1       2.678   3.163  19.492  0.00  0.00    +0.000 A 
ATOM     14  C   UNL     1       2.950   4.072  18.491  0.00  0.00    +0.000 A 
ATOM     15  C   UNL     1       2.865   5.423  18.694  0.00  0.00    +0.000 A 
ATOM     16  O   UNL     1       3.157   3.470  17.289  0.00  0.00    +0.000 OA
ATOM     17  C   UNL     1       2.619   2.171  17.597  0.00  0.00    +0.000 C 
ATOM     18  O   UNL     1       2.654   1.888  19.016  0.00  0.00    +0.000 OA
ENDBRANCH   2  10
BRANCH   7  19
ATOM     19  C   UNL     1      -0.202  12.528  21.361  0.00  0.00    +0.000 C 
BRANCH  19  20
ATOM     20  C   UNL     1      -0.467  12.720  19.871  0.00  0.00    +0.000 C 
BRANCH  20  21
ATOM     21  C   UNL     1      -1.962  12.879  19.593  0.00  0.00    +0.000 C 
BRANCH  21  22
ATOM     22  C   UNL     1      -2.440  11.789  18.668  0.00  0.00    +0.000 A 
ATOM     23  C   UNL     1      -1.521  11.023  17.940  0.00  0.00    +0.000 A 
ATOM     24  C   UNL     1      -1.968  10.068  17.028  0.00  0.00    +0.000 A 
ATOM     25  C   UNL     1      -3.335   9.876  16.835  0.00  0.00    +0.000 A 
ATOM     26  C   UNL     1      -4.258  10.628  17.559  0.00  0.00    +0.000 A 
ATOM     27  C   UNL     1      -3.812  11.583  18.472  0.00  0.00    +0.000 A 
ENDBRANCH  21  22
ENDBRANCH  20  21
ENDBRANCH  19  20
ENDBRANCH   7  19
TORSDOF 5
ENDMDL
MODEL 9
REMARK VINA RESULT:      -8.1      8.491     10.278
REMARK  Name = 
REMARK  5 active torsions:
REMARK  status: ('A' for Active; 'I' for Inactive)
REMARK    1  A    between atoms: C_2  and  C_18
REMARK    2  A    between atoms: C_7  and  C_8
REMARK    3  A    between atoms: C_8  and  C_9
REMARK    4  A    between atoms: C_9  and  C_10
REMARK    5  A    between atoms: C_10  and  C_11
REMARK                            x       y       z     vdW  Elec       q    Type
REMARK                         _______ _______ _______ _____ _____    ______ ____
ROOT
ATOM      1  O   UNL     1      -0.004  11.925  22.201  0.00  0.00    +0.000 OA
ATOM      2  C   UNL     1      -1.104  12.062  21.668  0.00  0.00    +0.000 C 
ATOM      3  N   UNL     1      -1.482  11.625  20.426  0.00  0.00    +0.000 N 
ATOM      4  C   UNL     1      -0.700  10.886  19.578  0.00  0.00    +0.000 A 
ATOM      5  N   UNL     1      -1.045  10.627  18.339  0.00  0.00    +0.000 NA
ATOM      6  N   UNL     1      -0.093   9.877  17.677  0.00  0.00    +0.000 NA
ATOM      7  C   UNL     1       0.924   9.577  18.458  0.00  0.00    +0.000 A 
ATOM      8  S   UNL     1       0.781  10.176  20.054  0.00  0.00    +0.000 S 
ATOM      9  H   UNL     1      -2.351  11.931  20.015  0.00  0.00    +0.000 HD
ENDROOT
BRANCH   2  10
ATOM     10  C   UNL     1      -2.136  12.801  22.430  0.00  0.00    +0.000 A 
ATOM     11  C   UNL     1      -2.504  14.126  22.099  0.00  0.00    +0.000 A 
ATOM     12  C   UNL     1      -3.661  14.690  22.651  0.00  0.00    +0.000 A 
ATOM     13  C   UNL     1      -4.423  13.889  23.474  0.00  0.00    +0.000 A 
ATOM     14  C   UNL     1      -4.021  12.622  23.840  0.00  0.00    +0.000 A 
ATOM     15  C   UNL     1      -2.867  12.059  23.364  0.00  0.00    +0.000 A 
ATOM     16  O   UNL     1      -4.959  11.978  24.586  0.00  0.00    +0.000 OA
ATOM     17  C   UNL     1      -6.085  12.831  24.309  0.00  0.00    +0.000 C 
ATOM     18  O   UNL     1      -5.677  14.166  23.925  0.00  0.00    +0.000 OA
ENDBRANCH   2  10
BRANCH   7  19
ATOM     19  C   UNL     1       2.117   8.787  18.042  0.00  0.00    +0.000 C 
BRANCH  19  20
ATOM     20  C   UNL     1       2.343   7.610  18.985  0.00  0.00    +0.000 C 
BRANCH  20  21
ATOM     21  C   UNL     1       2.854   6.385  18.227  0.00  0.00    +0.000 C 
BRANCH  21  22
ATOM     22  C   UNL     1       2.200   5.134  18.754  0.00  0.00    +0.000 A 
ATOM     23  C   UNL     1       1.911   4.068  17.892  0.00  0.00    +0.000 A 
ATOM     24  C   UNL     1       1.237   2.944  18.367  0.00  0.00    +0.000 A 
ATOM     25  C   UNL     1       0.845   2.879  19.703  0.00  0.00    +0.000 A 
ATOM     26  C   UNL     1       1.134   3.930  20.570  0.00  0.00    +0.000 A 
ATOM     27  C   UNL     1       1.809   5.056  20.097  0.00  0.00    +0.000 A 
ENDBRANCH  21  22
ENDBRANCH  20  21
ENDBRANCH  19  20
ENDBRANCH   7  19
TORSDOF 5
ENDMDL
