MODEL 1
REMARK VINA RESULT:      -7.5      0.000      0.000
REMARK  Name = 
REMARK  5 active torsions:
REMARK  status: ('A' for Active; 'I' for Inactive)
REMARK    1  A    between atoms: C_1  and  C_2
REMARK    2  A    between atoms: C_2  and  C_3
REMARK    3  A    between atoms: C_3  and  C_4
REMARK    4  A    between atoms: C_3  and  N_14
REMARK    5  A    between atoms: N_6  and  C_7
REMARK                            x       y       z     vdW  Elec       q    Type
REMARK                         _______ _______ _______ _____ _____    ______ ____
ROOT
ATOM      1  C   UNL     1       6.503   5.555  18.699  0.00  0.00    +0.000 C 
ATOM      2  O   UNL     1       7.025   5.419  19.804  0.00  0.00    +0.000 OA
ATOM      3  N   UNL     1       5.218   5.135  18.367  0.00  0.00    +0.000 N 
ATOM      4  H   UNL     1       4.963   5.178  17.385  0.00  0.00    +0.000 HD
ENDROOT
BRANCH   3   5
ATOM      5  C   UNL     1       4.306   4.518  19.258  0.00  0.00    +0.000 A 
ATOM      6  C   UNL     1       4.361   3.153  19.567  0.00  0.00    +0.000 A 
ATOM      7  C   UNL     1       3.410   2.562  20.398  0.00  0.00    +0.000 A 
ATOM      8  C   UNL     1       2.397   3.337  20.942  0.00  0.00    +0.000 A 
ATOM      9 CL   UNL     1       1.201   2.599  21.935  0.00  0.00    +0.000 Cl
ATOM     10  C   UNL     1       2.351   4.706  20.684  0.00  0.00    +0.000 A 
ATOM     11  C   UNL     1       3.312   5.298  19.849  0.00  0.00    +0.000 A 
ENDBRANCH   3   5
BRANCH   1  12
ATOM     12  C   UNL     1       7.280   6.190  17.526  0.00  0.00    +0.000 C 
BRANCH  12  13
ATOM     13  N   UNL     1       6.823   5.587  16.264  0.00  0.00    +0.000 N 
ATOM     14  C   UNL     1       7.224   4.257  15.858  0.00  0.00    +0.000 C 
ATOM     15  C   UNL     1       6.578   4.097  14.497  0.00  0.00    +0.000 C 
ATOM     16  C   UNL     1       5.295   4.909  14.615  0.00  0.00    +0.000 C 
ATOM     17  C   UNL     1       5.657   5.978  15.619  0.00  0.00    +0.000 C 
ATOM     18  O   UNL     1       5.005   6.979  15.861  0.00  0.00    +0.000 OA
ENDBRANCH  12  13
BRANCH  12  20
ATOM     19  C   UNL     1       8.274   8.491  18.139  0.00  0.00    +0.000 C 
ATOM     20  C   UNL     1       7.132   7.725  17.479  0.00  0.00    +0.000 C 
ENDBRANCH  12  20
ENDBRANCH   1  12
TORSDOF 4
ENDMDL
MODEL 2
REMARK VINA RESULT:      -7.4      3.536      5.032
REMARK  Name = 
REMARK  5 active torsions:
REMARK  status: ('A' for Active; 'I' for Inactive)
REMARK    1  A    between atoms: C_1  and  C_2
REMARK    2  A    between atoms: C_2  and  C_3
REMARK    3  A    between atoms: C_3  and  C_4
REMARK    4  A    between atoms: C_3  and  N_14
REMARK    5  A    between atoms: N_6  and  C_7
REMARK                            x       y       z     vdW  Elec       q    Type
REMARK                         _______ _______ _______ _____ _____    ______ ____
ROOT
ATOM      1  C   UNL     1       4.289   6.168  18.186  0.00  0.00    +0.000 C 
ATOM      2  O   UNL     1       4.662   6.988  17.348  0.00  0.00    +0.000 OA
ATOM      3  N   UNL     1       3.216   6.348  19.054  0.00  0.00    +0.000 N 
ATOM      4  H   UNL     1       3.103   5.657  19.791  0.00  0.00    +0.000 HD
ENDROOT
BRANCH   3   5
ATOM      5  C   UNL     1       2.370   7.484  19.083  0.00  0.00    +0.000 A 
ATOM      6  C   UNL     1       2.087   8.241  17.939  0.00  0.00    +0.000 A 
ATOM      7  C   UNL     1       1.301   9.391  18.011  0.00  0.00    +0.000 A 
ATOM      8  C   UNL     1       0.777   9.789  19.232  0.00  0.00    +0.000 A 
ATOM      9 CL   UNL     1      -0.158  11.230  19.326  0.00  0.00    +0.000 Cl
ATOM     10  C   UNL     1       1.008   9.024  20.373  0.00  0.00    +0.000 A 
ATOM     11  C   UNL     1       1.797   7.865  20.297  0.00  0.00    +0.000 A 
ENDBRANCH   3   5
BRANCH   1  12
ATOM     12  C   UNL     1       5.041   4.836  18.383  0.00  0.00    +0.000 C 
BRANCH  12  13
ATOM     13  N   UNL     1       4.072   3.727  18.356  0.00  0.00    +0.000 N 
ATOM     14  C   UNL     1       3.223   3.476  17.212  0.00  0.00    +0.000 C 
ATOM     15  C   UNL     1       2.371   2.307  17.659  0.00  0.00    +0.000 C 
ATOM     16  C   UNL     1       3.298   1.522  18.578  0.00  0.00    +0.000 C 
ATOM     17  C   UNL     1       4.206   2.590  19.140  0.00  0.00    +0.000 C 
ATOM     18  O   UNL     1       4.967   2.454  20.084  0.00  0.00    +0.000 OA
ENDBRANCH  12  13
BRANCH  12  20
ATOM     19  C   UNL     1       7.566   4.808  17.851  0.00  0.00    +0.000 C 
ATOM     20  C   UNL     1       6.146   4.616  17.328  0.00  0.00    +0.000 C 
ENDBRANCH  12  20
ENDBRANCH   1  12
TORSDOF 4
ENDMDL
MODEL 3
REMARK VINA RESULT:      -7.4      0.191      1.110
REMARK  Name = 
REMARK  5 active torsions:
REMARK  status: ('A' for Active; 'I' for Inactive)
REMARK    1  A    between atoms: C_1  and  C_2
REMARK    2  A    between atoms: C_2  and  C_3
REMARK    3  A    between atoms: C_3  and  C_4
REMARK    4  A    between atoms: C_3  and  N_14
REMARK    5  A    between atoms: N_6  and  C_7
REMARK                            x       y       z     vdW  Elec       q    Type
REMARK                         _______ _______ _______ _____ _____    ______ ____
ROOT
ATOM      1  C   UNL     1       6.386   5.496  18.620  0.00  0.00    +0.000 C 
ATOM      2  O   UNL     1       6.864   5.352  19.744  0.00  0.00    +0.000 OA
ATOM      3  N   UNL     1       5.101   5.116  18.246  0.00  0.00    +0.000 N 
ATOM      4  H   UNL     1       4.881   5.160  17.255  0.00  0.00    +0.000 HD
ENDROOT
BRANCH   3   5
ATOM      5  C   UNL     1       4.137   4.536  19.107  0.00  0.00    +0.000 A 
ATOM      6  C   UNL     1       3.255   5.305  19.877  0.00  0.00    +0.000 A 
ATOM      7  C   UNL     1       2.360   4.706  20.764  0.00  0.00    +0.000 A 
ATOM      8  C   UNL     1       2.329   3.324  20.878  0.00  0.00    +0.000 A 
ATOM      9 CL   UNL     1       1.253   2.589  22.001  0.00  0.00    +0.000 Cl
ATOM     10  C   UNL     1       3.166   2.539  20.088  0.00  0.00    +0.000 A 
ATOM     11  C   UNL     1       4.064   3.145  19.194  0.00  0.00    +0.000 A 
ENDBRANCH   3   5
BRANCH   1  12
ATOM     12  C   UNL     1       7.224   6.096  17.472  0.00  0.00    +0.000 C 
BRANCH  12  13
ATOM     13  N   UNL     1       6.795   5.496  16.198  0.00  0.00    +0.000 N 
ATOM     14  C   UNL     1       7.162   4.149  15.821  0.00  0.00    +0.000 C 
ATOM     15  C   UNL     1       6.564   3.998  14.438  0.00  0.00    +0.000 C 
ATOM     16  C   UNL     1       5.308   4.857  14.498  0.00  0.00    +0.000 C 
ATOM     17  C   UNL     1       5.670   5.922  15.505  0.00  0.00    +0.000 C 
ATOM     18  O   UNL     1       5.046   6.950  15.712  0.00  0.00    +0.000 OA
ENDBRANCH  12  13
BRANCH  12  20
ATOM     19  C   UNL     1       8.239   8.371  18.147  0.00  0.00    +0.000 C 
ATOM     20  C   UNL     1       7.127   7.635  17.407  0.00  0.00    +0.000 C 
ENDBRANCH  12  20
ENDBRANCH   1  12
TORSDOF 4
ENDMDL
MODEL 4
REMARK VINA RESULT:      -7.4      3.459      4.995
REMARK  Name = 
REMARK  5 active torsions:
REMARK  status: ('A' for Active; 'I' for Inactive)
REMARK    1  A    between atoms: C_1  and  C_2
REMARK    2  A    between atoms: C_2  and  C_3
REMARK    3  A    between atoms: C_3  and  C_4
REMARK    4  A    between atoms: C_3  and  N_14
REMARK    5  A    between atoms: N_6  and  C_7
REMARK                            x       y       z     vdW  Elec       q    Type
REMARK                         _______ _______ _______ _____ _____    ______ ____
ROOT
ATOM      1  C   UNL     1       2.960   5.509  17.969  0.00  0.00    +0.000 C 
ATOM      2  O   UNL     1       1.818   5.066  17.861  0.00  0.00    +0.000 OA
ATOM      3  N   UNL     1       3.279   6.803  18.370  0.00  0.00    +0.000 N 
ATOM      4  H   UNL     1       4.251   7.084  18.280  0.00  0.00    +0.000 HD
ENDROOT
BRANCH   3   5
ATOM      5  C   UNL     1       2.340   7.795  18.748  0.00  0.00    +0.000 A 
ATOM      6  C   UNL     1       1.846   8.746  17.847  0.00  0.00    +0.000 A 
ATOM      7  C   UNL     1       0.972   9.750  18.264  0.00  0.00    +0.000 A 
ATOM      8  C   UNL     1       0.569   9.802  19.590  0.00  0.00    +0.000 A 
ATOM      9 CL   UNL     1      -0.478  11.063  20.111  0.00  0.00    +0.000 Cl
ATOM     10  C   UNL     1       1.012   8.837  20.492  0.00  0.00    +0.000 A 
ATOM     11  C   UNL     1       1.891   7.827  20.069  0.00  0.00    +0.000 A 
ENDBRANCH   3   5
BRANCH   1  12
ATOM     12  C   UNL     1       4.185   4.643  17.608  0.00  0.00    +0.000 C 
BRANCH  12  13
ATOM     13  N   UNL     1       5.408   5.445  17.775  0.00  0.00    +0.000 N 
ATOM     14  C   UNL     1       6.441   5.085  18.721  0.00  0.00    +0.000 C 
ATOM     15  C   UNL     1       7.445   6.211  18.589  0.00  0.00    +0.000 C 
ATOM     16  C   UNL     1       7.338   6.612  17.123  0.00  0.00    +0.000 C 
ATOM     17  C   UNL     1       5.907   6.275  16.780  0.00  0.00    +0.000 C 
ATOM     18  O   UNL     1       5.314   6.625  15.773  0.00  0.00    +0.000 OA
ENDBRANCH  12  13
BRANCH  12  20
ATOM     19  C   UNL     1       3.539   2.155  17.839  0.00  0.00    +0.000 C 
ATOM     20  C   UNL     1       4.266   3.350  18.447  0.00  0.00    +0.000 C 
ENDBRANCH  12  20
ENDBRANCH   1  12
TORSDOF 4
ENDMDL
MODEL 5
REMARK VINA RESULT:      -7.4      3.461      4.982
REMARK  Name = 
REMARK  5 active torsions:
REMARK  status: ('A' for Active; 'I' for Inactive)
REMARK    1  A    between atoms: C_1  and  C_2
REMARK    2  A    between atoms: C_2  and  C_3
REMARK    3  A    between atoms: C_3  and  C_4
REMARK    4  A    between atoms: C_3  and  N_14
REMARK    5  A    between atoms: N_6  and  C_7
REMARK                            x       y       z     vdW  Elec       q    Type
REMARK                         _______ _______ _______ _____ _____    ______ ____
ROOT
ATOM      1  C   UNL     1       2.924   5.545  17.964  0.00  0.00    +0.000 C 
ATOM      2  O   UNL     1       1.774   5.149  17.780  0.00  0.00    +0.000 OA
ATOM      3  N   UNL     1       3.267   6.806  18.445  0.00  0.00    +0.000 N 
ATOM      4  H   UNL     1       4.251   7.055  18.414  0.00  0.00    +0.000 HD
ENDROOT
BRANCH   3   5
ATOM      5  C   UNL     1       2.345   7.811  18.828  0.00  0.00    +0.000 A 
ATOM      6  C   UNL     1       1.858   7.927  20.135  0.00  0.00    +0.000 A 
ATOM      7  C   UNL     1       0.903   8.888  20.467  0.00  0.00    +0.000 A 
ATOM      8  C   UNL     1       0.436   9.757  19.493  0.00  0.00    +0.000 A 
ATOM      9 CL   UNL     1      -0.771  10.915  19.894  0.00  0.00    +0.000 Cl
ATOM     10  C   UNL     1       0.943   9.689  18.196  0.00  0.00    +0.000 A 
ATOM     11  C   UNL     1       1.906   8.721  17.866  0.00  0.00    +0.000 A 
ENDBRANCH   3   5
BRANCH   1  12
ATOM     12  C   UNL     1       4.135   4.654  17.617  0.00  0.00    +0.000 C 
BRANCH  12  13
ATOM     13  N   UNL     1       5.371   5.436  17.780  0.00  0.00    +0.000 N 
ATOM     14  C   UNL     1       6.403   5.058  18.722  0.00  0.00    +0.000 C 
ATOM     15  C   UNL     1       7.424   6.168  18.586  0.00  0.00    +0.000 C 
ATOM     16  C   UNL     1       7.318   6.572  17.122  0.00  0.00    +0.000 C 
ATOM     17  C   UNL     1       5.879   6.260  16.784  0.00  0.00    +0.000 C 
ATOM     18  O   UNL     1       5.288   6.620  15.780  0.00  0.00    +0.000 OA
ENDBRANCH  12  13
BRANCH  12  20
ATOM     19  C   UNL     1       3.489   2.166  17.847  0.00  0.00    +0.000 C 
ATOM     20  C   UNL     1       4.190   3.369  18.470  0.00  0.00    +0.000 C 
ENDBRANCH  12  20
ENDBRANCH   1  12
TORSDOF 4
ENDMDL
MODEL 6
REMARK VINA RESULT:      -7.3      3.378      4.973
REMARK  Name = 
REMARK  5 active torsions:
REMARK  status: ('A' for Active; 'I' for Inactive)
REMARK    1  A    between atoms: C_1  and  C_2
REMARK    2  A    between atoms: C_2  and  C_3
REMARK    3  A    between atoms: C_3  and  C_4
REMARK    4  A    between atoms: C_3  and  N_14
REMARK    5  A    between atoms: N_6  and  C_7
REMARK                            x       y       z     vdW  Elec       q    Type
REMARK                         _______ _______ _______ _____ _____    ______ ____
ROOT
ATOM      1  C   UNL     1       2.863   5.017  18.253  0.00  0.00    +0.000 C 
ATOM      2  O   UNL     1       1.778   4.828  17.705  0.00  0.00    +0.000 OA
ATOM      3  N   UNL     1       3.251   6.205  18.866  0.00  0.00    +0.000 N 
ATOM      4  H   UNL     1       4.223   6.276  19.152  0.00  0.00    +0.000 HD
ENDROOT
BRANCH   3   5
ATOM      5  C   UNL     1       2.445   7.364  18.983  0.00  0.00    +0.000 A 
ATOM      6  C   UNL     1       2.221   8.237  17.910  0.00  0.00    +0.000 A 
ATOM      7  C   UNL     1       1.475   9.405  18.073  0.00  0.00    +0.000 A 
ATOM      8  C   UNL     1       0.930   9.703  19.313  0.00  0.00    +0.000 A 
ATOM      9 CL   UNL     1       0.044  11.163  19.522  0.00  0.00    +0.000 Cl
ATOM     10  C   UNL     1       1.102   8.825  20.381  0.00  0.00    +0.000 A 
ATOM     11  C   UNL     1       1.852   7.649  20.213  0.00  0.00    +0.000 A 
ENDBRANCH   3   5
BRANCH   1  12
ATOM     12  C   UNL     1       3.947   3.920  18.265  0.00  0.00    +0.000 C 
BRANCH  12  13
ATOM     13  N   UNL     1       5.225   4.500  17.822  0.00  0.00    +0.000 N 
ATOM     14  C   UNL     1       6.315   4.751  18.740  0.00  0.00    +0.000 C 
ATOM     15  C   UNL     1       7.368   5.397  17.865  0.00  0.00    +0.000 C 
ATOM     16  C   UNL     1       7.156   4.738  16.508  0.00  0.00    +0.000 C 
ATOM     17  C   UNL     1       5.682   4.409  16.514  0.00  0.00    +0.000 C 
ATOM     18  O   UNL     1       5.024   4.065  15.547  0.00  0.00    +0.000 OA
ENDBRANCH  12  13
BRANCH  12  20
ATOM     19  C   UNL     1       2.792   2.819  20.294  0.00  0.00    +0.000 C 
ATOM     20  C   UNL     1       4.104   3.255  19.649  0.00  0.00    +0.000 C 
ENDBRANCH  12  20
ENDBRANCH   1  12
TORSDOF 4
ENDMDL
MODEL 7
REMARK VINA RESULT:      -7.3      3.445      5.065
REMARK  Name = 
REMARK  5 active torsions:
REMARK  status: ('A' for Active; 'I' for Inactive)
REMARK    1  A    between atoms: C_1  and  C_2
REMARK    2  A    between atoms: C_2  and  C_3
REMARK    3  A    between atoms: C_3  and  C_4
REMARK    4  A    between atoms: C_3  and  N_14
REMARK    5  A    between atoms: N_6  and  C_7
REMARK                            x       y       z     vdW  Elec       q    Type
REMARK                         _______ _______ _______ _____ _____    ______ ____
ROOT
ATOM      1  C   UNL     1       4.286   6.180  17.738  0.00  0.00    +0.000 C 
ATOM      2  O   UNL     1       4.888   7.167  17.318  0.00  0.00    +0.000 OA
ATOM      3  N   UNL     1       3.102   6.218  18.467  0.00  0.00    +0.000 N 
ATOM      4  H   UNL     1       2.787   5.342  18.875  0.00  0.00    +0.000 HD
ENDROOT
BRANCH   3   5
ATOM      5  C   UNL     1       2.390   7.395  18.808  0.00  0.00    +0.000 A 
ATOM      6  C   UNL     1       1.949   7.657  20.111  0.00  0.00    +0.000 A 
ATOM      7  C   UNL     1       1.196   8.794  20.403  0.00  0.00    +0.000 A 
ATOM      8  C   UNL     1       0.888   9.692  19.392  0.00  0.00    +0.000 A 
ATOM      9 CL   UNL     1      -0.074  11.073  19.746  0.00  0.00    +0.000 Cl
ATOM     10  C   UNL     1       1.357   9.473  18.098  0.00  0.00    +0.000 A 
ATOM     11  C   UNL     1       2.117   8.328  17.808  0.00  0.00    +0.000 A 
ENDBRANCH   3   5
BRANCH   1  12
ATOM     12  C   UNL     1       4.845   4.758  17.520  0.00  0.00    +0.000 C 
BRANCH  12  13
ATOM     13  N   UNL     1       3.854   3.774  17.986  0.00  0.00    +0.000 N 
ATOM     14  C   UNL     1       2.773   3.314  17.143  0.00  0.00    +0.000 C 
ATOM     15  C   UNL     1       1.994   2.384  18.051  0.00  0.00    +0.000 C 
ATOM     16  C   UNL     1       3.068   1.783  18.949  0.00  0.00    +0.000 C 
ATOM     17  C   UNL     1       4.112   2.872  19.010  0.00  0.00    +0.000 C 
ATOM     18  O   UNL     1       5.052   2.917  19.787  0.00  0.00    +0.000 OA
ENDBRANCH  12  13
BRANCH  12  20
ATOM     19  C   UNL     1       6.725   4.514  15.768  0.00  0.00    +0.000 C 
ATOM     20  C   UNL     1       5.226   4.489  16.049  0.00  0.00    +0.000 C 
ENDBRANCH  12  20
ENDBRANCH   1  12
TORSDOF 4
ENDMDL
MODEL 8
REMARK VINA RESULT:      -7.3      3.425      5.069
REMARK  Name = 
REMARK  5 active torsions:
REMARK  status: ('A' for Active; 'I' for Inactive)
REMARK    1  A    between atoms: C_1  and  C_2
REMARK    2  A    between atoms: C_2  and  C_3
REMARK    3  A    between atoms: C_3  and  C_4
REMARK    4  A    between atoms: C_3  and  N_14
REMARK    5  A    between atoms: N_6  and  C_7
REMARK                            x       y       z     vdW  Elec       q    Type
REMARK                         _______ _______ _______ _____ _____    ______ ____
ROOT
ATOM      1  C   UNL     1       2.825   5.073  18.321  0.00  0.00    +0.000 C 
ATOM      2  O   UNL     1       1.751   4.913  17.743  0.00  0.00    +0.000 OA
ATOM      3  N   UNL     1       3.228   6.251  18.943  0.00  0.00    +0.000 N 
ATOM      4  H   UNL     1       4.193   6.295  19.257  0.00  0.00    +0.000 HD
ENDROOT
BRANCH   3   5
ATOM      5  C   UNL     1       2.451   7.432  19.036  0.00  0.00    +0.000 A 
ATOM      6  C   UNL     1       1.808   7.819  20.219  0.00  0.00    +0.000 A 
ATOM      7  C   UNL     1       0.998   8.954  20.262  0.00  0.00    +0.000 A 
ATOM      8  C   UNL     1       0.836   9.725  19.120  0.00  0.00    +0.000 A 
ATOM      9 CL   UNL     1      -0.195  11.102  19.164  0.00  0.00    +0.000 Cl
ATOM     10  C   UNL     1       1.504   9.384  17.946  0.00  0.00    +0.000 A 
ATOM     11  C   UNL     1       2.321   8.241  17.907  0.00  0.00    +0.000 A 
ENDBRANCH   3   5
BRANCH   1  12
ATOM     12  C   UNL     1       3.878   3.946  18.365  0.00  0.00    +0.000 C 
BRANCH  12  13
ATOM     13  N   UNL     1       5.189   4.497  17.984  0.00  0.00    +0.000 N 
ATOM     14  C   UNL     1       6.222   4.767  18.960  0.00  0.00    +0.000 C 
ATOM     15  C   UNL     1       7.336   5.371  18.131  0.00  0.00    +0.000 C 
ATOM     16  C   UNL     1       7.201   4.668  16.786  0.00  0.00    +0.000 C 
ATOM     17  C   UNL     1       5.726   4.355  16.711  0.00  0.00    +0.000 C 
ATOM     18  O   UNL     1       5.125   3.984  15.716  0.00  0.00    +0.000 OA
ENDBRANCH  12  13
BRANCH  12  20
ATOM     19  C   UNL     1       2.650   2.632  20.216  0.00  0.00    +0.000 C 
ATOM     20  C   UNL     1       3.957   3.261  19.745  0.00  0.00    +0.000 C 
ENDBRANCH  12  20
ENDBRANCH   1  12
TORSDOF 4
ENDMDL
MODEL 9
REMARK VINA RESULT:      -7.2      4.294      5.736
REMARK  Name = 
REMARK  5 active torsions:
REMARK  status: ('A' for Active; 'I' for Inactive)
REMARK    1  A    between atoms: C_1  and  C_2
REMARK    2  A    between atoms: C_2  and  C_3
REMARK    3  A    between atoms: C_3  and  C_4
REMARK    4  A    between atoms: C_3  and  N_14
REMARK    5  A    between atoms: N_6  and  C_7
REMARK                            x       y       z     vdW  Elec       q    Type
REMARK                         _______ _______ _______ _____ _____    ______ ____
ROOT
ATOM      1  C   UNL     1       2.335   6.511  19.960  0.00  0.00    +0.000 C 
ATOM      2  O   UNL     1       1.684   5.797  20.721  0.00  0.00    +0.000 OA
ATOM      3  N   UNL     1       2.171   7.886  19.821  0.00  0.00    +0.000 N 
ATOM      4  H   UNL     1       2.672   8.331  19.057  0.00  0.00    +0.000 HD
ENDROOT
BRANCH   3   5
ATOM      5  C   UNL     1       1.256   8.678  20.557  0.00  0.00    +0.000 A 
ATOM      6  C   UNL     1       0.335   9.533  19.940  0.00  0.00    +0.000 A 
ATOM      7  C   UNL     1      -0.510  10.348  20.693  0.00  0.00    +0.000 A 
ATOM      8  C   UNL     1      -0.452  10.303  22.078  0.00  0.00    +0.000 A 
ATOM      9 CL   UNL     1      -1.467  11.337  23.005  0.00  0.00    +0.000 Cl
ATOM     10  C   UNL     1       0.425   9.425  22.712  0.00  0.00    +0.000 A 
ATOM     11  C   UNL     1       1.273   8.604  21.950  0.00  0.00    +0.000 A 
ENDBRANCH   3   5
BRANCH   1  12
ATOM     12  C   UNL     1       3.401   5.906  19.023  0.00  0.00    +0.000 C 
BRANCH  12  13
ATOM     13  N   UNL     1       3.074   4.493  18.768  0.00  0.00    +0.000 N 
ATOM     14  C   UNL     1       1.996   4.101  17.887  0.00  0.00    +0.000 C 
ATOM     15  C   UNL     1       1.995   2.590  17.987  0.00  0.00    +0.000 C 
ATOM     16  C   UNL     1       3.463   2.247  18.207  0.00  0.00    +0.000 C 
ATOM     17  C   UNL     1       3.995   3.466  18.923  0.00  0.00    +0.000 C 
ATOM     18  O   UNL     1       5.074   3.548  19.486  0.00  0.00    +0.000 OA
ENDBRANCH  12  13
BRANCH  12  20
ATOM     19  C   UNL     1       4.954   6.761  17.147  0.00  0.00    +0.000 C 
ATOM     20  C   UNL     1       3.533   6.680  17.695  0.00  0.00    +0.000 C 
ENDBRANCH  12  20
ENDBRANCH   1  12
TORSDOF 4
ENDMDL
