MODEL 1
REMARK VINA RESULT:      -7.0      0.000      0.000
REMARK  Name = 
REMARK  11 active torsions:
REMARK  status: ('A' for Active; 'I' for Inactive)
REMARK    1  A    between atoms: C_1  and  O_2
REMARK    2  A    between atoms: O_2  and  C_3
REMARK    3  A    between atoms: C_6  and  C_7
REMARK    4  A    between atoms: C_12  and  O_13
REMARK    5  A    between atoms: O_13  and  C_14
REMARK    6  A    between atoms: C_16  and  O_17
REMARK    7  A    between atoms: O_17  and  C_18
REMARK    8  A    between atoms: N_21  and  S_22
REMARK    9  A    between atoms: S_22  and  C_25
REMARK   10  A    between atoms: C_28  and  O_29
REMARK   11  A    between atoms: O_29  and  C_30
REMARK                            x       y       z     vdW  Elec       q    Type
REMARK                         _______ _______ _______ _____ _____    ______ ____
ROOT
ATOM      1  C   UNL     1      -0.085  10.538  20.045  0.00  0.00    +0.000 A 
ATOM      2  C   UNL     1      -1.220  10.665  19.331  0.00  0.00    +0.000 A 
ATOM      3  C   UNL     1      -1.840  12.000  19.289  0.00  0.00    +0.000 A 
ATOM      4  O   UNL     1      -2.029  12.538  18.216  0.00  0.00    +0.000 OA
ATOM      5  C   UNL     1      -2.093  12.618  20.598  0.00  0.00    +0.000 A 
ATOM      6  C   UNL     1      -3.404  12.933  20.951  0.00  0.00    +0.000 A 
ATOM      7  C   UNL     1      -3.825  12.692  22.245  0.00  0.00    +0.000 A 
ATOM      8  C   UNL     1      -2.980  12.100  23.190  0.00  0.00    +0.000 A 
ATOM      9  C   UNL     1      -1.617  11.866  22.854  0.00  0.00    +0.000 A 
ATOM     10  C   UNL     1      -1.119  12.198  21.529  0.00  0.00    +0.000 A 
ATOM     11  N   UNL     1       0.170  11.652  20.935  0.00  0.00    +0.000 N 
ENDROOT
BRANCH   1  15
ATOM     12  C   UNL     1       2.512   7.109  19.466  0.00  0.00    +0.000 A 
ATOM     13  C   UNL     1       1.892   7.353  20.682  0.00  0.00    +0.000 A 
ATOM     14  C   UNL     1       1.075   8.470  20.850  0.00  0.00    +0.000 A 
ATOM     15  C   UNL     1       0.867   9.411  19.823  0.00  0.00    +0.000 A 
ATOM     16  C   UNL     1       1.523   9.163  18.606  0.00  0.00    +0.000 A 
ATOM     17  C   UNL     1       2.327   8.015  18.423  0.00  0.00    +0.000 A 
BRANCH  12  19
ATOM     18  C   UNL     1       2.740   4.827  18.851  0.00  0.00    +0.000 C 
ATOM     19  O   UNL     1       3.288   5.987  19.458  0.00  0.00    +0.000 OA
ENDBRANCH  12  19
ENDBRANCH   1  15
BRANCH  11  20
ATOM     20  S   UNL     1       1.371  12.781  20.162  0.00  0.00    +0.000 S 
ATOM     21  O   UNL     1       2.531  12.781  21.073  0.00  0.00    +0.000 OA
ATOM     22  O   UNL     1       1.575  12.327  18.800  0.00  0.00    +0.000 OA
BRANCH  20  23
ATOM     23  C   UNL     1       0.937  14.592  19.946  0.00  0.00    +0.000 A 
ATOM     24  C   UNL     1       0.367  14.982  18.715  0.00  0.00    +0.000 A 
ATOM     25  C   UNL     1      -0.325  16.216  18.564  0.00  0.00    +0.000 A 
ATOM     26  C   UNL     1      -0.497  17.111  19.627  0.00  0.00    +0.000 A 
ATOM     27  C   UNL     1       0.043  16.734  20.858  0.00  0.00    +0.000 A 
ATOM     28  C   UNL     1       0.730  15.472  21.026  0.00  0.00    +0.000 A 
BRANCH  26  29
ATOM     29  O   UNL     1      -1.149  18.263  19.303  0.00  0.00    +0.000 OA
ATOM     30  C   UNL     1      -2.529  18.241  18.954  0.00  0.00    +0.000 C 
ENDBRANCH  26  29
ENDBRANCH  20  23
ENDBRANCH  11  20
BRANCH   6  31
ATOM     31  O   UNL     1      -4.415  13.227  20.078  0.00  0.00    +0.000 OA
ATOM     32  C   UNL     1      -5.550  12.376  20.192  0.00  0.00    +0.000 C 
ENDBRANCH   6  31
BRANCH   8  33
ATOM     33  O   UNL     1      -3.751  11.714  24.250  0.00  0.00    +0.000 OA
ATOM     34  C   UNL     1      -4.746  12.450  24.918  0.00  0.00    +0.000 C 
ENDBRANCH   8  33
TORSDOF 7
ENDMDL
MODEL 2
REMARK VINA RESULT:      -6.9      0.986      1.217
REMARK  Name = 
REMARK  11 active torsions:
REMARK  status: ('A' for Active; 'I' for Inactive)
REMARK    1  A    between atoms: C_1  and  O_2
REMARK    2  A    between atoms: O_2  and  C_3
REMARK    3  A    between atoms: C_6  and  C_7
REMARK    4  A    between atoms: C_12  and  O_13
REMARK    5  A    between atoms: O_13  and  C_14
REMARK    6  A    between atoms: C_16  and  O_17
REMARK    7  A    between atoms: O_17  and  C_18
REMARK    8  A    between atoms: N_21  and  S_22
REMARK    9  A    between atoms: S_22  and  C_25
REMARK   10  A    between atoms: C_28  and  O_29
REMARK   11  A    between atoms: O_29  and  C_30
REMARK                            x       y       z     vdW  Elec       q    Type
REMARK                         _______ _______ _______ _____ _____    ______ ____
ROOT
ATOM      1  C   UNL     1      -0.094  10.359  20.022  0.00  0.00    +0.000 A 
ATOM      2  C   UNL     1      -1.228  10.444  19.301  0.00  0.00    +0.000 A 
ATOM      3  C   UNL     1      -1.833  11.779  19.155  0.00  0.00    +0.000 A 
ATOM      4  O   UNL     1      -2.017  12.233  18.043  0.00  0.00    +0.000 OA
ATOM      5  C   UNL     1      -2.075  12.501  20.411  0.00  0.00    +0.000 A 
ATOM      6  C   UNL     1      -3.382  12.859  20.739  0.00  0.00    +0.000 A 
ATOM      7  C   UNL     1      -3.803  12.726  22.049  0.00  0.00    +0.000 A 
ATOM      8  C   UNL     1      -2.965  12.199  23.037  0.00  0.00    +0.000 A 
ATOM      9  C   UNL     1      -1.605  11.922  22.719  0.00  0.00    +0.000 A 
ATOM     10  C   UNL     1      -1.105  12.143  21.372  0.00  0.00    +0.000 A 
ATOM     11  N   UNL     1       0.176  11.536  20.822  0.00  0.00    +0.000 N 
ENDROOT
BRANCH   1  15
ATOM     12  C   UNL     1       2.450   6.860  19.676  0.00  0.00    +0.000 A 
ATOM     13  C   UNL     1       1.697   7.100  20.815  0.00  0.00    +0.000 A 
ATOM     14  C   UNL     1       0.899   8.240  20.911  0.00  0.00    +0.000 A 
ATOM     15  C   UNL     1       0.844   9.207  19.888  0.00  0.00    +0.000 A 
ATOM     16  C   UNL     1       1.632   8.961  18.752  0.00  0.00    +0.000 A 
ATOM     17  C   UNL     1       2.418   7.791  18.639  0.00  0.00    +0.000 A 
BRANCH  12  19
ATOM     18  C   UNL     1       2.698   4.672  20.564  0.00  0.00    +0.000 C 
ATOM     19  O   UNL     1       3.188   5.714  19.734  0.00  0.00    +0.000 OA
ENDBRANCH  12  19
ENDBRANCH   1  15
BRANCH  11  20
ATOM     20  S   UNL     1       1.390  12.586  19.961  0.00  0.00    +0.000 S 
ATOM     21  O   UNL     1       2.572  12.597  20.843  0.00  0.00    +0.000 OA
ATOM     22  O   UNL     1       1.544  12.057  18.621  0.00  0.00    +0.000 OA
BRANCH  20  23
ATOM     23  C   UNL     1       1.004  14.396  19.662  0.00  0.00    +0.000 A 
ATOM     24  C   UNL     1       2.090  15.297  19.632  0.00  0.00    +0.000 A 
ATOM     25  C   UNL     1       1.975  16.597  19.066  0.00  0.00    +0.000 A 
ATOM     26  C   UNL     1       0.785  17.058  18.491  0.00  0.00    +0.000 A 
ATOM     27  C   UNL     1      -0.296  16.175  18.492  0.00  0.00    +0.000 A 
ATOM     28  C   UNL     1      -0.182  14.843  19.047  0.00  0.00    +0.000 A 
BRANCH  26  29
ATOM     29  O   UNL     1       0.833  18.340  18.031  0.00  0.00    +0.000 OA
ATOM     30  C   UNL     1       0.549  18.630  16.665  0.00  0.00    +0.000 C 
ENDBRANCH  26  29
ENDBRANCH  20  23
ENDBRANCH  11  20
BRANCH   6  31
ATOM     31  O   UNL     1      -4.390  13.096  19.846  0.00  0.00    +0.000 OA
ATOM     32  C   UNL     1      -5.610  13.524  20.444  0.00  0.00    +0.000 C 
ENDBRANCH   6  31
BRANCH   8  33
ATOM     33  O   UNL     1      -3.738  11.907  24.124  0.00  0.00    +0.000 OA
ATOM     34  C   UNL     1      -4.927  12.533  24.542  0.00  0.00    +0.000 C 
ENDBRANCH   8  33
TORSDOF 7
ENDMDL
MODEL 3
REMARK VINA RESULT:      -6.9      2.594      7.208
REMARK  Name = 
REMARK  11 active torsions:
REMARK  status: ('A' for Active; 'I' for Inactive)
REMARK    1  A    between atoms: C_1  and  O_2
REMARK    2  A    between atoms: O_2  and  C_3
REMARK    3  A    between atoms: C_6  and  C_7
REMARK    4  A    between atoms: C_12  and  O_13
REMARK    5  A    between atoms: O_13  and  C_14
REMARK    6  A    between atoms: C_16  and  O_17
REMARK    7  A    between atoms: O_17  and  C_18
REMARK    8  A    between atoms: N_21  and  S_22
REMARK    9  A    between atoms: S_22  and  C_25
REMARK   10  A    between atoms: C_28  and  O_29
REMARK   11  A    between atoms: O_29  and  C_30
REMARK                            x       y       z     vdW  Elec       q    Type
REMARK                         _______ _______ _______ _____ _____    ______ ____
ROOT
ATOM      1  C   UNL     1      -0.096  12.717  19.115  0.00  0.00    +0.000 A 
ATOM      2  C   UNL     1      -1.236  13.302  19.533  0.00  0.00    +0.000 A 
ATOM      3  C   UNL     1      -2.343  12.412  19.922  0.00  0.00    +0.000 A 
ATOM      4  O   UNL     1      -2.811  12.496  21.040  0.00  0.00    +0.000 OA
ATOM      5  C   UNL     1      -2.726  11.408  18.921  0.00  0.00    +0.000 A 
ATOM      6  C   UNL     1      -4.023  11.427  18.411  0.00  0.00    +0.000 A 
ATOM      7  C   UNL     1      -4.214  11.202  17.060  0.00  0.00    +0.000 A 
ATOM      8  C   UNL     1      -3.136  11.002  16.193  0.00  0.00    +0.000 A 
ATOM      9  C   UNL     1      -1.823  10.890  16.730  0.00  0.00    +0.000 A 
ATOM     10  C   UNL     1      -1.599  11.026  18.161  0.00  0.00    +0.000 A 
ATOM     11  N   UNL     1      -0.248  11.313  18.795  0.00  0.00    +0.000 N 
ENDROOT
BRANCH   1  15
ATOM     12  C   UNL     1       3.674  14.854  18.891  0.00  0.00    +0.000 A 
ATOM     13  C   UNL     1       3.414  13.755  18.086  0.00  0.00    +0.000 A 
ATOM     14  C   UNL     1       2.202  13.073  18.187  0.00  0.00    +0.000 A 
ATOM     15  C   UNL     1       1.209  13.438  19.118  0.00  0.00    +0.000 A 
ATOM     16  C   UNL     1       1.499  14.538  19.943  0.00  0.00    +0.000 A 
ATOM     17  C   UNL     1       2.715  15.249  19.821  0.00  0.00    +0.000 A 
BRANCH  12  19
ATOM     18  C   UNL     1       5.800  14.698  17.846  0.00  0.00    +0.000 C 
ATOM     19  O   UNL     1       4.904  15.408  18.686  0.00  0.00    +0.000 OA
ENDBRANCH  12  19
ENDBRANCH   1  15
BRANCH  11  20
ATOM     20  S   UNL     1       0.337  10.308  20.196  0.00  0.00    +0.000 S 
ATOM     21  O   UNL     1       1.133  11.236  21.021  0.00  0.00    +0.000 OA
ATOM     22  O   UNL     1      -0.827   9.689  20.799  0.00  0.00    +0.000 OA
BRANCH  20  23
ATOM     23  C   UNL     1       1.477   8.853  19.884  0.00  0.00    +0.000 A 
ATOM     24  C   UNL     1       1.439   7.786  20.806  0.00  0.00    +0.000 A 
ATOM     25  C   UNL     1       1.967   6.502  20.494  0.00  0.00    +0.000 A 
ATOM     26  C   UNL     1       2.543   6.213  19.251  0.00  0.00    +0.000 A 
ATOM     27  C   UNL     1       2.573   7.251  18.318  0.00  0.00    +0.000 A 
ATOM     28  C   UNL     1       2.019   8.553  18.619  0.00  0.00    +0.000 A 
BRANCH  26  29
ATOM     29  O   UNL     1       3.036   4.948  19.131  0.00  0.00    +0.000 OA
ATOM     30  C   UNL     1       3.442   4.448  17.861  0.00  0.00    +0.000 C 
ENDBRANCH  26  29
ENDBRANCH  20  23
ENDBRANCH  11  20
BRANCH   6  31
ATOM     31  O   UNL     1      -5.128  11.901  19.063  0.00  0.00    +0.000 OA
ATOM     32  C   UNL     1      -5.963  12.733  18.266  0.00  0.00    +0.000 C 
ENDBRANCH   6  31
BRANCH   8  33
ATOM     33  O   UNL     1      -3.605  11.118  14.915  0.00  0.00    +0.000 OA
ATOM     34  C   UNL     1      -3.738  10.112  13.940  0.00  0.00    +0.000 C 
ENDBRANCH   8  33
TORSDOF 7
ENDMDL
MODEL 4
REMARK VINA RESULT:      -6.8      3.173      5.667
REMARK  Name = 
REMARK  11 active torsions:
REMARK  status: ('A' for Active; 'I' for Inactive)
REMARK    1  A    between atoms: C_1  and  O_2
REMARK    2  A    between atoms: O_2  and  C_3
REMARK    3  A    between atoms: C_6  and  C_7
REMARK    4  A    between atoms: C_12  and  O_13
REMARK    5  A    between atoms: O_13  and  C_14
REMARK    6  A    between atoms: C_16  and  O_17
REMARK    7  A    between atoms: O_17  and  C_18
REMARK    8  A    between atoms: N_21  and  S_22
REMARK    9  A    between atoms: S_22  and  C_25
REMARK   10  A    between atoms: C_28  and  O_29
REMARK   11  A    between atoms: O_29  and  C_30
REMARK                            x       y       z     vdW  Elec       q    Type
REMARK                         _______ _______ _______ _____ _____    ______ ____
ROOT
ATOM      1  C   UNL     1      -0.016  12.753  19.316  0.00  0.00    +0.000 A 
ATOM      2  C   UNL     1      -1.166  13.444  19.196  0.00  0.00    +0.000 A 
ATOM      3  C   UNL     1      -2.404  12.766  19.616  0.00  0.00    +0.000 A 
ATOM      4  O   UNL     1      -3.102  13.272  20.472  0.00  0.00    +0.000 OA
ATOM      5  C   UNL     1      -2.638  11.449  19.007  0.00  0.00    +0.000 A 
ATOM      6  C   UNL     1      -3.781  11.260  18.232  0.00  0.00    +0.000 A 
ATOM      7  C   UNL     1      -3.684  10.528  17.064  0.00  0.00    +0.000 A 
ATOM      8  C   UNL     1      -2.459  10.016  16.622  0.00  0.00    +0.000 A 
ATOM      9  C   UNL     1      -1.315  10.132  17.459  0.00  0.00    +0.000 A 
ATOM     10  C   UNL     1      -1.406  10.813  18.741  0.00  0.00    +0.000 A 
ATOM     11  N   UNL     1      -0.212  11.332  19.524  0.00  0.00    +0.000 N 
ENDROOT
BRANCH   1  15
ATOM     12  C   UNL     1       3.817  14.786  19.217  0.00  0.00    +0.000 A 
ATOM     13  C   UNL     1       3.501  13.787  18.308  0.00  0.00    +0.000 A 
ATOM     14  C   UNL     1       2.269  13.135  18.369  0.00  0.00    +0.000 A 
ATOM     15  C   UNL     1       1.312  13.429  19.360  0.00  0.00    +0.000 A 
ATOM     16  C   UNL     1       1.658  14.425  20.288  0.00  0.00    +0.000 A 
ATOM     17  C   UNL     1       2.893  15.108  20.210  0.00  0.00    +0.000 A 
BRANCH  12  19
ATOM     18  C   UNL     1       5.819  14.837  17.941  0.00  0.00    +0.000 C 
ATOM     19  O   UNL     1       5.059  15.320  19.039  0.00  0.00    +0.000 OA
ENDBRANCH  12  19
ENDBRANCH   1  15
BRANCH  11  20
ATOM     20  S   UNL     1      -0.045  10.953  21.297  0.00  0.00    +0.000 S 
ATOM     21  O   UNL     1      -0.626   9.606  21.452  0.00  0.00    +0.000 OA
ATOM     22  O   UNL     1       1.349  11.137  21.648  0.00  0.00    +0.000 OA
BRANCH  20  23
ATOM     23  C   UNL     1      -0.944  12.006  22.560  0.00  0.00    +0.000 A 
ATOM     24  C   UNL     1      -0.552  13.357  22.680  0.00  0.00    +0.000 A 
ATOM     25  C   UNL     1      -1.376  14.325  23.318  0.00  0.00    +0.000 A 
ATOM     26  C   UNL     1      -2.629  14.005  23.852  0.00  0.00    +0.000 A 
ATOM     27  C   UNL     1      -3.043  12.678  23.727  0.00  0.00    +0.000 A 
ATOM     28  C   UNL     1      -2.222  11.690  23.062  0.00  0.00    +0.000 A 
BRANCH  26  29
ATOM     29  O   UNL     1      -3.270  15.041  24.464  0.00  0.00    +0.000 OA
ATOM     30  C   UNL     1      -2.542  15.984  25.243  0.00  0.00    +0.000 C 
ENDBRANCH  26  29
ENDBRANCH  20  23
ENDBRANCH  11  20
BRANCH   6  31
ATOM     31  O   UNL     1      -4.959  11.940  18.373  0.00  0.00    +0.000 OA
ATOM     32  C   UNL     1      -6.021  11.161  18.915  0.00  0.00    +0.000 C 
ENDBRANCH   6  31
BRANCH   8  33
ATOM     33  O   UNL     1      -2.619   9.625  15.323  0.00  0.00    +0.000 OA
ATOM     34  C   UNL     1      -3.515  10.131  14.363  0.00  0.00    +0.000 C 
ENDBRANCH   8  33
TORSDOF 7
ENDMDL
MODEL 5
REMARK VINA RESULT:      -6.7      2.356      6.098
REMARK  Name = 
REMARK  11 active torsions:
REMARK  status: ('A' for Active; 'I' for Inactive)
REMARK    1  A    between atoms: C_1  and  O_2
REMARK    2  A    between atoms: O_2  and  C_3
REMARK    3  A    between atoms: C_6  and  C_7
REMARK    4  A    between atoms: C_12  and  O_13
REMARK    5  A    between atoms: O_13  and  C_14
REMARK    6  A    between atoms: C_16  and  O_17
REMARK    7  A    between atoms: O_17  and  C_18
REMARK    8  A    between atoms: N_21  and  S_22
REMARK    9  A    between atoms: S_22  and  C_25
REMARK   10  A    between atoms: C_28  and  O_29
REMARK   11  A    between atoms: O_29  and  C_30
REMARK                            x       y       z     vdW  Elec       q    Type
REMARK                         _______ _______ _______ _____ _____    ______ ____
ROOT
ATOM      1  C   UNL     1      -1.970  12.139  19.649  0.00  0.00    +0.000 A 
ATOM      2  C   UNL     1      -2.109  13.476  19.731  0.00  0.00    +0.000 A 
ATOM      3  C   UNL     1      -1.271  14.179  20.717  0.00  0.00    +0.000 A 
ATOM      4  O   UNL     1      -0.527  15.064  20.345  0.00  0.00    +0.000 OA
ATOM      5  C   UNL     1      -1.346  13.661  22.089  0.00  0.00    +0.000 A 
ATOM      6  C   UNL     1      -1.793  14.507  23.104  0.00  0.00    +0.000 A 
ATOM      7  C   UNL     1      -2.642  14.001  24.070  0.00  0.00    +0.000 A 
ATOM      8  C   UNL     1      -3.095  12.679  24.026  0.00  0.00    +0.000 A 
ATOM      9  C   UNL     1      -2.565  11.795  23.044  0.00  0.00    +0.000 A 
ATOM     10  C   UNL     1      -1.596  12.272  22.071  0.00  0.00    +0.000 A 
ATOM     11  N   UNL     1      -1.261  11.559  20.771  0.00  0.00    +0.000 N 
ENDROOT
BRANCH   1  15
ATOM     12  C   UNL     1      -3.224  10.113  16.021  0.00  0.00    +0.000 A 
ATOM     13  C   UNL     1      -3.991  11.116  16.595  0.00  0.00    +0.000 A 
ATOM     14  C   UNL     1      -3.577  11.742  17.770  0.00  0.00    +0.000 A 
ATOM     15  C   UNL     1      -2.396  11.372  18.442  0.00  0.00    +0.000 A 
ATOM     16  C   UNL     1      -1.644  10.336  17.862  0.00  0.00    +0.000 A 
ATOM     17  C   UNL     1      -2.046   9.722  16.654  0.00  0.00    +0.000 A 
BRANCH  12  19
ATOM     18  C   UNL     1      -3.208  10.014  13.649  0.00  0.00    +0.000 C 
ATOM     19  O   UNL     1      -3.764   9.589  14.883  0.00  0.00    +0.000 OA
ENDBRANCH  12  19
ENDBRANCH   1  15
BRANCH  11  20
ATOM     20  S   UNL     1       0.475  11.270  20.306  0.00  0.00    +0.000 S 
ATOM     21  O   UNL     1       0.726  12.198  19.187  0.00  0.00    +0.000 OA
ATOM     22  O   UNL     1       1.274  11.419  21.506  0.00  0.00    +0.000 OA
BRANCH  20  23
ATOM     23  C   UNL     1       0.995   9.590  19.655  0.00  0.00    +0.000 A 
ATOM     24  C   UNL     1       1.560   9.539  18.363  0.00  0.00    +0.000 A 
ATOM     25  C   UNL     1       2.309   8.416  17.914  0.00  0.00    +0.000 A 
ATOM     26  C   UNL     1       2.546   7.302  18.727  0.00  0.00    +0.000 A 
ATOM     27  C   UNL     1       2.012   7.342  20.016  0.00  0.00    +0.000 A 
ATOM     28  C   UNL     1       1.266   8.487  20.489  0.00  0.00    +0.000 A 
BRANCH  26  29
ATOM     29  O   UNL     1       3.247   6.298  18.129  0.00  0.00    +0.000 OA
ATOM     30  C   UNL     1       2.658   5.015  17.943  0.00  0.00    +0.000 C 
ENDBRANCH  26  29
ENDBRANCH  20  23
ENDBRANCH  11  20
BRANCH   6  31
ATOM     31  O   UNL     1      -1.684  15.870  23.110  0.00  0.00    +0.000 OA
ATOM     32  C   UNL     1      -2.932  16.555  23.127  0.00  0.00    +0.000 C 
ENDBRANCH   6  31
BRANCH   8  33
ATOM     33  O   UNL     1      -4.134  12.567  24.905  0.00  0.00    +0.000 OA
ATOM     34  C   UNL     1      -5.513  12.524  24.626  0.00  0.00    +0.000 C 
ENDBRANCH   8  33
TORSDOF 7
ENDMDL
MODEL 6
REMARK VINA RESULT:      -6.7      2.172      6.399
REMARK  Name = 
REMARK  11 active torsions:
REMARK  status: ('A' for Active; 'I' for Inactive)
REMARK    1  A    between atoms: C_1  and  O_2
REMARK    2  A    between atoms: O_2  and  C_3
REMARK    3  A    between atoms: C_6  and  C_7
REMARK    4  A    between atoms: C_12  and  O_13
REMARK    5  A    between atoms: O_13  and  C_14
REMARK    6  A    between atoms: C_16  and  O_17
REMARK    7  A    between atoms: O_17  and  C_18
REMARK    8  A    between atoms: N_21  and  S_22
REMARK    9  A    between atoms: S_22  and  C_25
REMARK   10  A    between atoms: C_28  and  O_29
REMARK   11  A    between atoms: O_29  and  C_30
REMARK                            x       y       z     vdW  Elec       q    Type
REMARK                         _______ _______ _______ _____ _____    ______ ____
ROOT
ATOM      1  C   UNL     1      -0.270  13.400  20.352  0.00  0.00    +0.000 A 
ATOM      2  C   UNL     1      -0.788  14.139  21.353  0.00  0.00    +0.000 A 
ATOM      3  C   UNL     1      -1.614  13.435  22.349  0.00  0.00    +0.000 A 
ATOM      4  O   UNL     1      -1.304  13.483  23.522  0.00  0.00    +0.000 OA
ATOM      5  C   UNL     1      -2.717  12.636  21.799  0.00  0.00    +0.000 A 
ATOM      6  C   UNL     1      -4.024  12.954  22.164  0.00  0.00    +0.000 A 
ATOM      7  C   UNL     1      -5.015  12.917  21.201  0.00  0.00    +0.000 A 
ATOM      8  C   UNL     1      -4.727  12.614  19.866  0.00  0.00    +0.000 A 
ATOM      9  C   UNL     1      -3.411  12.200  19.517  0.00  0.00    +0.000 A 
ATOM     10  C   UNL     1      -2.367  12.135  20.527  0.00  0.00    +0.000 A 
ATOM     11  N   UNL     1      -0.878  12.092  20.221  0.00  0.00    +0.000 N 
ENDROOT
BRANCH   1  15
ATOM     12  C   UNL     1       3.274  14.749  18.242  0.00  0.00    +0.000 A 
ATOM     13  C   UNL     1       2.714  15.493  19.270  0.00  0.00    +0.000 A 
ATOM     14  C   UNL     1       1.565  15.048  19.923  0.00  0.00    +0.000 A 
ATOM     15  C   UNL     1       0.906  13.858  19.557  0.00  0.00    +0.000 A 
ATOM     16  C   UNL     1       1.472  13.130  18.497  0.00  0.00    +0.000 A 
ATOM     17  C   UNL     1       2.654  13.562  17.854  0.00  0.00    +0.000 A 
BRANCH  12  19
ATOM     18  C   UNL     1       5.621  14.648  17.896  0.00  0.00    +0.000 C 
ATOM     19  O   UNL     1       4.386  15.317  17.693  0.00  0.00    +0.000 OA
ENDBRANCH  12  19
ENDBRANCH   1  15
BRANCH  11  20
ATOM     20  S   UNL     1       0.185  10.849  21.022  0.00  0.00    +0.000 S 
ATOM     21  O   UNL     1       1.393  11.590  21.430  0.00  0.00    +0.000 OA
ATOM     22  O   UNL     1      -0.603  10.209  22.057  0.00  0.00    +0.000 OA
BRANCH  20  23
ATOM     23  C   UNL     1       0.831   9.400  20.024  0.00  0.00    +0.000 A 
ATOM     24  C   UNL     1       1.191   9.643  18.681  0.00  0.00    +0.000 A 
ATOM     25  C   UNL     1       2.014   8.744  17.948  0.00  0.00    +0.000 A 
ATOM     26  C   UNL     1       2.532   7.573  18.515  0.00  0.00    +0.000 A 
ATOM     27  C   UNL     1       2.203   7.324  19.849  0.00  0.00    +0.000 A 
ATOM     28  C   UNL     1       1.383   8.243  20.609  0.00  0.00    +0.000 A 
BRANCH  26  29
ATOM     29  O   UNL     1       3.268   6.804  17.664  0.00  0.00    +0.000 OA
ATOM     30  C   UNL     1       3.290   5.387  17.805  0.00  0.00    +0.000 C 
ENDBRANCH  26  29
ENDBRANCH  20  23
ENDBRANCH  11  20
BRANCH   6  31
ATOM     31  O   UNL     1      -4.401  13.552  23.335  0.00  0.00    +0.000 OA
ATOM     32  C   UNL     1      -4.705  12.640  24.384  0.00  0.00    +0.000 C 
ENDBRANCH   6  31
BRANCH   8  33
ATOM     33  O   UNL     1      -5.818  12.954  19.119  0.00  0.00    +0.000 OA
ATOM     34  C   UNL     1      -7.087  12.347  19.103  0.00  0.00    +0.000 C 
ENDBRANCH   8  33
TORSDOF 7
ENDMDL
MODEL 7
REMARK VINA RESULT:      -6.6      3.160      5.755
REMARK  Name = 
REMARK  11 active torsions:
REMARK  status: ('A' for Active; 'I' for Inactive)
REMARK    1  A    between atoms: C_1  and  O_2
REMARK    2  A    between atoms: O_2  and  C_3
REMARK    3  A    between atoms: C_6  and  C_7
REMARK    4  A    between atoms: C_12  and  O_13
REMARK    5  A    between atoms: O_13  and  C_14
REMARK    6  A    between atoms: C_16  and  O_17
REMARK    7  A    between atoms: O_17  and  C_18
REMARK    8  A    between atoms: N_21  and  S_22
REMARK    9  A    between atoms: S_22  and  C_25
REMARK   10  A    between atoms: C_28  and  O_29
REMARK   11  A    between atoms: O_29  and  C_30
REMARK                            x       y       z     vdW  Elec       q    Type
REMARK                         _______ _______ _______ _____ _____    ______ ____
ROOT
ATOM      1  C   UNL     1      -0.128  12.815  19.205  0.00  0.00    +0.000 A 
ATOM      2  C   UNL     1      -1.318  13.443  19.124  0.00  0.00    +0.000 A 
ATOM      3  C   UNL     1      -2.504  12.694  19.571  0.00  0.00    +0.000 A 
ATOM      4  O   UNL     1      -3.204  13.153  20.451  0.00  0.00    +0.000 OA
ATOM      5  C   UNL     1      -2.682  11.371  18.957  0.00  0.00    +0.000 A 
ATOM      6  C   UNL     1      -3.834  11.124  18.213  0.00  0.00    +0.000 A 
ATOM      7  C   UNL     1      -3.730  10.409  17.035  0.00  0.00    +0.000 A 
ATOM      8  C   UNL     1      -2.492   9.969  16.554  0.00  0.00    +0.000 A 
ATOM      9  C   UNL     1      -1.332  10.141  17.361  0.00  0.00    +0.000 A 
ATOM     10  C   UNL     1      -1.425  10.805  18.650  0.00  0.00    +0.000 A 
ATOM     11  N   UNL     1      -0.239  11.384  19.405  0.00  0.00    +0.000 N 
ENDROOT
BRANCH   1  15
ATOM     12  C   UNL     1       3.625  14.976  19.480  0.00  0.00    +0.000 A 
ATOM     13  C   UNL     1       2.487  15.410  20.144  0.00  0.00    +0.000 A 
ATOM     14  C   UNL     1       1.287  14.709  20.027  0.00  0.00    +0.000 A 
ATOM     15  C   UNL     1       1.162  13.563  19.218  0.00  0.00    +0.000 A 
ATOM     16  C   UNL     1       2.317  13.152  18.533  0.00  0.00    +0.000 A 
ATOM     17  C   UNL     1       3.542  13.843  18.674  0.00  0.00    +0.000 A 
BRANCH  12  19
ATOM     18  C   UNL     1       5.012  16.727  18.676  0.00  0.00    +0.000 C 
ATOM     19  O   UNL     1       4.716  15.770  19.681  0.00  0.00    +0.000 OA
ENDBRANCH  12  19
ENDBRANCH   1  15
BRANCH  11  20
ATOM     20  S   UNL     1      -0.001  11.001  21.169  0.00  0.00    +0.000 S 
ATOM     21  O   UNL     1      -0.539   9.637  21.335  0.00  0.00    +0.000 OA
ATOM     22  O   UNL     1       1.398  11.223  21.474  0.00  0.00    +0.000 OA
BRANCH  20  23
ATOM     23  C   UNL     1      -0.887  12.021  22.468  0.00  0.00    +0.000 A 
ATOM     24  C   UNL     1      -0.533  13.383  22.579  0.00  0.00    +0.000 A 
ATOM     25  C   UNL     1      -1.363  14.324  23.250  0.00  0.00    +0.000 A 
ATOM     26  C   UNL     1      -2.586  13.963  23.828  0.00  0.00    +0.000 A 
ATOM     27  C   UNL     1      -2.963  12.623  23.713  0.00  0.00    +0.000 A 
ATOM     28  C   UNL     1      -2.135  11.664  23.015  0.00  0.00    +0.000 A 
BRANCH  26  29
ATOM     29  O   UNL     1      -3.237  14.976  24.467  0.00  0.00    +0.000 OA
ATOM     30  C   UNL     1      -3.648  16.136  23.751  0.00  0.00    +0.000 C 
ENDBRANCH  26  29
ENDBRANCH  20  23
ENDBRANCH  11  20
BRANCH   6  31
ATOM     31  O   UNL     1      -5.044  11.737  18.392  0.00  0.00    +0.000 OA
ATOM     32  C   UNL     1      -5.606  12.278  17.201  0.00  0.00    +0.000 C 
ENDBRANCH   6  31
BRANCH   8  33
ATOM     33  O   UNL     1      -2.667   9.579  15.256  0.00  0.00    +0.000 OA
ATOM     34  C   UNL     1      -3.550  10.110  14.298  0.00  0.00    +0.000 C 
ENDBRANCH   8  33
TORSDOF 7
ENDMDL
MODEL 8
REMARK VINA RESULT:      -6.6      2.421      5.021
REMARK  Name = 
REMARK  11 active torsions:
REMARK  status: ('A' for Active; 'I' for Inactive)
REMARK    1  A    between atoms: C_1  and  O_2
REMARK    2  A    between atoms: O_2  and  C_3
REMARK    3  A    between atoms: C_6  and  C_7
REMARK    4  A    between atoms: C_12  and  O_13
REMARK    5  A    between atoms: O_13  and  C_14
REMARK    6  A    between atoms: C_16  and  O_17
REMARK    7  A    between atoms: O_17  and  C_18
REMARK    8  A    between atoms: N_21  and  S_22
REMARK    9  A    between atoms: S_22  and  C_25
REMARK   10  A    between atoms: C_28  and  O_29
REMARK   11  A    between atoms: O_29  and  C_30
REMARK                            x       y       z     vdW  Elec       q    Type
REMARK                         _______ _______ _______ _____ _____    ______ ____
ROOT
ATOM      1  C   UNL     1       0.736  10.589  19.625  0.00  0.00    +0.000 A 
ATOM      2  C   UNL     1       0.616  11.011  20.898  0.00  0.00    +0.000 A 
ATOM      3  C   UNL     1      -0.471  11.961  21.192  0.00  0.00    +0.000 A 
ATOM      4  O   UNL     1      -1.301  11.677  22.031  0.00  0.00    +0.000 OA
ATOM      5  C   UNL     1      -0.504  13.160  20.344  0.00  0.00    +0.000 A 
ATOM      6  C   UNL     1      -0.370  14.411  20.944  0.00  0.00    +0.000 A 
ATOM      7  C   UNL     1       0.407  15.372  20.324  0.00  0.00    +0.000 A 
ATOM      8  C   UNL     1       1.095  15.100  19.137  0.00  0.00    +0.000 A 
ATOM      9  C   UNL     1       0.883  13.856  18.480  0.00  0.00    +0.000 A 
ATOM     10  C   UNL     1      -0.005  12.860  19.058  0.00  0.00    +0.000 A 
ATOM     11  N   UNL     1      -0.011  11.389  18.675  0.00  0.00    +0.000 N 
ENDROOT
BRANCH   1  15
ATOM     12  C   UNL     1       2.667   6.822  18.667  0.00  0.00    +0.000 A 
ATOM     13  C   UNL     1       2.173   7.083  19.936  0.00  0.00    +0.000 A 
ATOM     14  C   UNL     1       1.571   8.307  20.226  0.00  0.00    +0.000 A 
ATOM     15  C   UNL     1       1.465   9.337  19.271  0.00  0.00    +0.000 A 
ATOM     16  C   UNL     1       1.993   9.066  17.998  0.00  0.00    +0.000 A 
ATOM     17  C   UNL     1       2.576   7.815  17.693  0.00  0.00    +0.000 A 
BRANCH  12  19
ATOM     18  C   UNL     1       4.366   5.313  19.354  0.00  0.00    +0.000 C 
ATOM     19  O   UNL     1       3.237   5.589  18.540  0.00  0.00    +0.000 OA
ENDBRANCH  12  19
ENDBRANCH   1  15
BRANCH  11  20
ATOM     20  S   UNL     1      -1.579  10.552  18.281  0.00  0.00    +0.000 S 
ATOM     21  O   UNL     1      -1.390  10.017  16.920  0.00  0.00    +0.000 OA
ATOM     22  O   UNL     1      -1.847   9.612  19.351  0.00  0.00    +0.000 OA
BRANCH  20  23
ATOM     23  C   UNL     1      -3.164  11.549  18.184  0.00  0.00    +0.000 A 
ATOM     24  C   UNL     1      -3.953  11.405  17.023  0.00  0.00    +0.000 A 
ATOM     25  C   UNL     1      -5.317  11.809  16.985  0.00  0.00    +0.000 A 
ATOM     26  C   UNL     1      -5.964  12.358  18.098  0.00  0.00    +0.000 A 
ATOM     27  C   UNL     1      -5.206  12.491  19.263  0.00  0.00    +0.000 A 
ATOM     28  C   UNL     1      -3.824  12.064  19.317  0.00  0.00    +0.000 A 
BRANCH  26  29
ATOM     29  O   UNL     1      -7.258  12.728  17.881  0.00  0.00    +0.000 OA
ATOM     30  C   UNL     1      -7.900  13.658  18.748  0.00  0.00    +0.000 C 
ENDBRANCH  26  29
ENDBRANCH  20  23
ENDBRANCH  11  20
BRANCH   6  31
ATOM     31  O   UNL     1      -0.726  14.720  22.228  0.00  0.00    +0.000 OA
ATOM     32  C   UNL     1      -2.061  15.194  22.366  0.00  0.00    +0.000 C 
ENDBRANCH   6  31
BRANCH   8  33
ATOM     33  O   UNL     1       1.998  16.107  18.943  0.00  0.00    +0.000 OA
ATOM     34  C   UNL     1       3.034  16.178  17.993  0.00  0.00    +0.000 C 
ENDBRANCH   8  33
TORSDOF 7
ENDMDL
MODEL 9
REMARK VINA RESULT:      -6.5      2.219      6.522
REMARK  Name = 
REMARK  11 active torsions:
REMARK  status: ('A' for Active; 'I' for Inactive)
REMARK    1  A    between atoms: C_1  and  O_2
REMARK    2  A    between atoms: O_2  and  C_3
REMARK    3  A    between atoms: C_6  and  C_7
REMARK    4  A    between atoms: C_12  and  O_13
REMARK    5  A    between atoms: O_13  and  C_14
REMARK    6  A    between atoms: C_16  and  O_17
REMARK    7  A    between atoms: O_17  and  C_18
REMARK    8  A    between atoms: N_21  and  S_22
REMARK    9  A    between atoms: S_22  and  C_25
REMARK   10  A    between atoms: C_28  and  O_29
REMARK   11  A    between atoms: O_29  and  C_30
REMARK                            x       y       z     vdW  Elec       q    Type
REMARK                         _______ _______ _______ _____ _____    ______ ____
ROOT
ATOM      1  C   UNL     1      -0.420  13.323  19.837  0.00  0.00    +0.000 A 
ATOM      2  C   UNL     1      -1.115  14.081  20.707  0.00  0.00    +0.000 A 
ATOM      3  C   UNL     1      -2.019  13.379  21.634  0.00  0.00    +0.000 A 
ATOM      4  O   UNL     1      -1.873  13.522  22.832  0.00  0.00    +0.000 OA
ATOM      5  C   UNL     1      -2.982  12.467  21.005  0.00  0.00    +0.000 A 
ATOM      6  C   UNL     1      -4.345  12.707  21.174  0.00  0.00    +0.000 A 
ATOM      7  C   UNL     1      -5.193  12.537  20.095  0.00  0.00    +0.000 A 
ATOM      8  C   UNL     1      -4.709  12.175  18.834  0.00  0.00    +0.000 A 
ATOM      9  C   UNL     1      -3.333  11.841  18.688  0.00  0.00    +0.000 A 
ATOM     10  C   UNL     1      -2.432  11.917  19.827  0.00  0.00    +0.000 A 
ATOM     11  N   UNL     1      -0.917  11.967  19.721  0.00  0.00    +0.000 N 
ENDROOT
BRANCH   1  15
ATOM     12  C   UNL     1       3.272  14.817  18.113  0.00  0.00    +0.000 A 
ATOM     13  C   UNL     1       2.494  15.600  18.952  0.00  0.00    +0.000 A 
ATOM     14  C   UNL     1       1.302  15.105  19.481  0.00  0.00    +0.000 A 
ATOM     15  C   UNL     1       0.819  13.820  19.170  0.00  0.00    +0.000 A 
ATOM     16  C   UNL     1       1.606  13.049  18.298  0.00  0.00    +0.000 A 
ATOM     17  C   UNL     1       2.830  13.537  17.785  0.00  0.00    +0.000 A 
BRANCH  12  19
ATOM     18  C   UNL     1       5.640  14.806  17.934  0.00  0.00    +0.000 C 
ATOM     19  O   UNL     1       4.400  15.441  17.666  0.00  0.00    +0.000 OA
ENDBRANCH  12  19
ENDBRANCH   1  15
BRANCH  11  20
ATOM     20  S   UNL     1       0.110  10.859  20.738  0.00  0.00    +0.000 S 
ATOM     21  O   UNL     1       1.010  11.758  21.485  0.00  0.00    +0.000 OA
ATOM     22  O   UNL     1      -0.790  10.012  21.495  0.00  0.00    +0.000 OA
BRANCH  20  23
ATOM     23  C   UNL     1       1.252   9.628  19.906  0.00  0.00    +0.000 A 
ATOM     24  C   UNL     1       1.540   8.434  20.600  0.00  0.00    +0.000 A 
ATOM     25  C   UNL     1       2.078   7.293  19.943  0.00  0.00    +0.000 A 
ATOM     26  C   UNL     1       2.342   7.277  18.569  0.00  0.00    +0.000 A 
ATOM     27  C   UNL     1       2.047   8.443  17.860  0.00  0.00    +0.000 A 
ATOM     28  C   UNL     1       1.480   9.601  18.515  0.00  0.00    +0.000 A 
BRANCH  26  29
ATOM     29  O   UNL     1       2.894   6.119  18.107  0.00  0.00    +0.000 OA
ATOM     30  C   UNL     1       2.105   4.939  17.986  0.00  0.00    +0.000 C 
ENDBRANCH  26  29
ENDBRANCH  20  23
ENDBRANCH  11  20
BRANCH   6  31
ATOM     31  O   UNL     1      -4.915  13.345  22.240  0.00  0.00    +0.000 OA
ATOM     32  C   UNL     1      -5.871  14.337  21.883  0.00  0.00    +0.000 C 
ENDBRANCH   6  31
BRANCH   8  33
ATOM     33  O   UNL     1      -5.710  12.385  17.930  0.00  0.00    +0.000 OA
ATOM     34  C   UNL     1      -7.098  12.245  18.117  0.00  0.00    +0.000 C 
ENDBRANCH   8  33
TORSDOF 7
ENDMDL
