MODEL 1
REMARK VINA RESULT:      -7.5      0.000      0.000
REMARK  Name = 
REMARK  9 active torsions:
REMARK  status: ('A' for Active; 'I' for Inactive)
REMARK    1  A    between atoms: C_1  and  O_2
REMARK    2  A    between atoms: O_2  and  C_3
REMARK    3  A    between atoms: C_8  and  C_9
REMARK    4  A    between atoms: C_9  and  C_10
REMARK    5  A    between atoms: C_10  and  N_11
REMARK    6  A    between atoms: N_23  and  S_24
REMARK    7  A    between atoms: S_24  and  N_27
REMARK    8  A    between atoms: N_27  and  C_28
REMARK    9  A    between atoms: N_27  and  C_29
REMARK                            x       y       z     vdW  Elec       q    Type
REMARK                         _______ _______ _______ _____ _____    ______ ____
ROOT
ATOM      1  N   UNL     1       1.732   8.333  19.645  0.00  0.00    +0.000 N 
ATOM      2  C   UNL     1       1.383   7.985  20.943  0.00  0.00    +0.000 A 
ATOM      3  N   UNL     1       0.668   8.690  21.764  0.00  0.00    +0.000 NA
ATOM      4  C   UNL     1       0.278   9.889  21.266  0.00  0.00    +0.000 A 
ATOM      5  S   UNL     1      -0.508  11.065  22.229  0.00  0.00    +0.000 S 
ATOM      6  C   UNL     1      -0.441  12.214  20.979  0.00  0.00    +0.000 A 
ATOM      7  C   UNL     1       0.025  11.678  19.788  0.00  0.00    +0.000 A 
ATOM      8  C   UNL     1       0.489  10.342  19.980  0.00  0.00    +0.000 A 
ATOM      9  C   UNL     1       1.193   9.476  19.057  0.00  0.00    +0.000 A 
ATOM     10  O   UNL     1       1.274   9.739  17.859  0.00  0.00    +0.000 OA
ATOM     11  C   UNL     1       0.226  12.526  18.563  0.00  0.00    +0.000 C 
ATOM     12  C   UNL     1      -0.196  13.986  18.802  0.00  0.00    +0.000 C 
ATOM     13  N   UNL     1       0.079  14.463  20.200  0.00  0.00    +0.000 NA
ATOM     14  C   UNL     1      -0.739  13.667  21.184  0.00  0.00    +0.000 C 
ENDROOT
BRANCH  13  15
ATOM     15  S   UNL     1       1.704  14.605  20.673  0.00  0.00    +0.000 S 
ATOM     16  O   UNL     1       1.802  14.225  22.064  0.00  0.00    +0.000 OA
ATOM     17  O   UNL     1       2.563  13.997  19.685  0.00  0.00    +0.000 OA
BRANCH  15  18
ATOM     18  N   UNL     1       1.952  16.283  20.583  0.00  0.00    +0.000 NA
ATOM     19  C   UNL     1       2.173  16.805  19.218  0.00  0.00    +0.000 C 
ATOM     20  C   UNL     1       0.882  17.032  21.290  0.00  0.00    +0.000 C 
ENDBRANCH  15  18
ENDBRANCH  13  15
BRANCH   1  21
ATOM     21  C   UNL     1       2.402   7.348  18.794  0.00  0.00    +0.000 C 
BRANCH  21  22
ATOM     22  C   UNL     1       3.074   6.169  19.528  0.00  0.00    +0.000 C 
BRANCH  22  28
ATOM     23  C   UNL     1       2.693   4.088  18.086  0.00  0.00    +0.000 A 
ATOM     24  C   UNL     1       2.122   2.822  17.916  0.00  0.00    +0.000 A 
ATOM     25  C   UNL     1       1.151   2.360  18.803  0.00  0.00    +0.000 A 
ATOM     26  C   UNL     1       0.774   3.145  19.887  0.00  0.00    +0.000 A 
ATOM     27  C   UNL     1       1.399   4.374  20.108  0.00  0.00    +0.000 A 
ATOM     28  C   UNL     1       2.378   4.856  19.220  0.00  0.00    +0.000 A 
BRANCH  23  30
ATOM     29  C   UNL     1       4.679   3.761  16.851  0.00  0.00    +0.000 C 
ATOM     30  O   UNL     1       3.592   4.619  17.199  0.00  0.00    +0.000 OA
ENDBRANCH  23  30
ENDBRANCH  22  28
ENDBRANCH  21  22
ENDBRANCH   1  21
TORSDOF 6
ENDMDL
MODEL 2
REMARK VINA RESULT:      -7.5      1.999      3.017
REMARK  Name = 
REMARK  9 active torsions:
REMARK  status: ('A' for Active; 'I' for Inactive)
REMARK    1  A    between atoms: C_1  and  O_2
REMARK    2  A    between atoms: O_2  and  C_3
REMARK    3  A    between atoms: C_8  and  C_9
REMARK    4  A    between atoms: C_9  and  C_10
REMARK    5  A    between atoms: C_10  and  N_11
REMARK    6  A    between atoms: N_23  and  S_24
REMARK    7  A    between atoms: S_24  and  N_27
REMARK    8  A    between atoms: N_27  and  C_28
REMARK    9  A    between atoms: N_27  and  C_29
REMARK                            x       y       z     vdW  Elec       q    Type
REMARK                         _______ _______ _______ _____ _____    ______ ____
ROOT
ATOM      1  N   UNL     1       2.444   7.897  18.893  0.00  0.00    +0.000 N 
ATOM      2  C   UNL     1       2.186   7.244  20.092  0.00  0.00    +0.000 A 
ATOM      3  N   UNL     1       1.370   7.635  21.022  0.00  0.00    +0.000 NA
ATOM      4  C   UNL     1       0.762   8.818  20.760  0.00  0.00    +0.000 A 
ATOM      5  S   UNL     1      -0.207   9.622  21.919  0.00  0.00    +0.000 S 
ATOM      6  C   UNL     1      -0.371  10.986  20.919  0.00  0.00    +0.000 A 
ATOM      7  C   UNL     1       0.163  10.786  19.655  0.00  0.00    +0.000 A 
ATOM      8  C   UNL     1       0.864   9.543  19.591  0.00  0.00    +0.000 A 
ATOM      9  C   UNL     1       1.697   9.016  18.529  0.00  0.00    +0.000 A 
ATOM     10  O   UNL     1       1.707   9.517  17.408  0.00  0.00    +0.000 OA
ATOM     11  C   UNL     1       0.185  11.878  18.622  0.00  0.00    +0.000 C 
ATOM     12  C   UNL     1      -0.488  13.163  19.134  0.00  0.00    +0.000 C 
ATOM     13  N   UNL     1      -0.280  13.399  20.603  0.00  0.00    +0.000 NA
ATOM     14  C   UNL     1      -0.922  12.292  21.398  0.00  0.00    +0.000 C 
ENDROOT
BRANCH  13  15
ATOM     15  S   UNL     1       1.301  13.738  21.124  0.00  0.00    +0.000 S 
ATOM     16  O   UNL     1       1.217  14.556  22.312  0.00  0.00    +0.000 OA
ATOM     17  O   UNL     1       2.093  12.531  21.121  0.00  0.00    +0.000 OA
BRANCH  15  18
ATOM     18  N   UNL     1       1.884  14.719  19.867  0.00  0.00    +0.000 NA
ATOM     19  C   UNL     1       1.923  16.164  20.175  0.00  0.00    +0.000 C 
ATOM     20  C   UNL     1       3.190  14.233  19.355  0.00  0.00    +0.000 C 
ENDBRANCH  15  18
ENDBRANCH  13  15
BRANCH   1  21
ATOM     21  C   UNL     1       3.265   7.234  17.878  0.00  0.00    +0.000 C 
BRANCH  21  22
ATOM     22  C   UNL     1       3.938   5.916  18.313  0.00  0.00    +0.000 C 
BRANCH  22  28
ATOM     23  C   UNL     1       6.302   5.056  17.836  0.00  0.00    +0.000 A 
ATOM     24  C   UNL     1       7.260   4.589  16.929  0.00  0.00    +0.000 A 
ATOM     25  C   UNL     1       7.045   4.699  15.556  0.00  0.00    +0.000 A 
ATOM     26  C   UNL     1       5.854   5.240  15.083  0.00  0.00    +0.000 A 
ATOM     27  C   UNL     1       4.861   5.632  15.983  0.00  0.00    +0.000 A 
ATOM     28  C   UNL     1       5.065   5.532  17.371  0.00  0.00    +0.000 A 
BRANCH  23  30
ATOM     29  C   UNL     1       7.714   5.654  19.632  0.00  0.00    +0.000 C 
ATOM     30  O   UNL     1       6.500   5.044  19.192  0.00  0.00    +0.000 OA
ENDBRANCH  23  30
ENDBRANCH  22  28
ENDBRANCH  21  22
ENDBRANCH   1  21
TORSDOF 6
ENDMDL
MODEL 3
REMARK VINA RESULT:      -7.3      1.512      1.829
REMARK  Name = 
REMARK  9 active torsions:
REMARK  status: ('A' for Active; 'I' for Inactive)
REMARK    1  A    between atoms: C_1  and  O_2
REMARK    2  A    between atoms: O_2  and  C_3
REMARK    3  A    between atoms: C_8  and  C_9
REMARK    4  A    between atoms: C_9  and  C_10
REMARK    5  A    between atoms: C_10  and  N_11
REMARK    6  A    between atoms: N_23  and  S_24
REMARK    7  A    between atoms: S_24  and  N_27
REMARK    8  A    between atoms: N_27  and  C_28
REMARK    9  A    between atoms: N_27  and  C_29
REMARK                            x       y       z     vdW  Elec       q    Type
REMARK                         _______ _______ _______ _____ _____    ______ ____
ROOT
ATOM      1  N   UNL     1       1.548   8.636  19.209  0.00  0.00    +0.000 N 
ATOM      2  C   UNL     1       1.777   7.980  20.412  0.00  0.00    +0.000 A 
ATOM      3  N   UNL     1       1.231   8.255  21.556  0.00  0.00    +0.000 NA
ATOM      4  C   UNL     1       0.386   9.316  21.523  0.00  0.00    +0.000 A 
ATOM      5  S   UNL     1      -0.301   9.979  22.942  0.00  0.00    +0.000 S 
ATOM      6  C   UNL     1      -0.983  11.272  22.075  0.00  0.00    +0.000 A 
ATOM      7  C   UNL     1      -0.834  11.130  20.704  0.00  0.00    +0.000 A 
ATOM      8  C   UNL     1       0.008  10.018  20.397  0.00  0.00    +0.000 A 
ATOM      9  C   UNL     1       0.553   9.608  19.119  0.00  0.00    +0.000 A 
ATOM     10  O   UNL     1       0.140  10.076  18.061  0.00  0.00    +0.000 OA
ATOM     11  C   UNL     1      -1.305  12.185  19.742  0.00  0.00    +0.000 C 
ATOM     12  C   UNL     1      -1.992  13.355  20.468  0.00  0.00    +0.000 C 
ATOM     13  N   UNL     1      -1.388  13.659  21.810  0.00  0.00    +0.000 NA
ATOM     14  C   UNL     1      -1.568  12.482  22.733  0.00  0.00    +0.000 C 
ENDROOT
BRANCH  13  15
ATOM     15  S   UNL     1       0.199  14.265  21.834  0.00  0.00    +0.000 S 
ATOM     16  O   UNL     1       0.342  15.102  23.003  0.00  0.00    +0.000 OA
ATOM     17  O   UNL     1       1.140  13.201  21.575  0.00  0.00    +0.000 OA
BRANCH  15  18
ATOM     18  N   UNL     1       0.209  15.281  20.474  0.00  0.00    +0.000 NA
ATOM     19  C   UNL     1       0.033  16.718  20.771  0.00  0.00    +0.000 C 
ATOM     20  C   UNL     1       1.401  15.040  19.621  0.00  0.00    +0.000 C 
ENDBRANCH  15  18
ENDBRANCH  13  15
BRANCH   1  21
ATOM     21  C   UNL     1       2.118   8.091  17.976  0.00  0.00    +0.000 C 
BRANCH  21  22
ATOM     22  C   UNL     1       3.402   7.251  18.141  0.00  0.00    +0.000 C 
BRANCH  22  28
ATOM     23  C   UNL     1       4.169   4.906  17.457  0.00  0.00    +0.000 A 
ATOM     24  C   UNL     1       3.909   3.536  17.332  0.00  0.00    +0.000 A 
ATOM     25  C   UNL     1       2.612   3.047  17.481  0.00  0.00    +0.000 A 
ATOM     26  C   UNL     1       1.575   3.919  17.795  0.00  0.00    +0.000 A 
ATOM     27  C   UNL     1       1.842   5.274  18.002  0.00  0.00    +0.000 A 
ATOM     28  C   UNL     1       3.145   5.784  17.851  0.00  0.00    +0.000 A 
BRANCH  23  30
ATOM     29  C   UNL     1       6.143   4.866  16.162  0.00  0.00    +0.000 C 
ATOM     30  O   UNL     1       5.410   5.446  17.242  0.00  0.00    +0.000 OA
ENDBRANCH  23  30
ENDBRANCH  22  28
ENDBRANCH  21  22
ENDBRANCH   1  21
TORSDOF 6
ENDMDL
MODEL 4
REMARK VINA RESULT:      -7.3      1.163      1.772
REMARK  Name = 
REMARK  9 active torsions:
REMARK  status: ('A' for Active; 'I' for Inactive)
REMARK    1  A    between atoms: C_1  and  O_2
REMARK    2  A    between atoms: O_2  and  C_3
REMARK    3  A    between atoms: C_8  and  C_9
REMARK    4  A    between atoms: C_9  and  C_10
REMARK    5  A    between atoms: C_10  and  N_11
REMARK    6  A    between atoms: N_23  and  S_24
REMARK    7  A    between atoms: S_24  and  N_27
REMARK    8  A    between atoms: N_27  and  C_28
REMARK    9  A    between atoms: N_27  and  C_29
REMARK                            x       y       z     vdW  Elec       q    Type
REMARK                         _______ _______ _______ _____ _____    ______ ____
ROOT
ATOM      1  N   UNL     1       1.426   8.474  20.495  0.00  0.00    +0.000 N 
ATOM      2  C   UNL     1       0.903   8.319  21.772  0.00  0.00    +0.000 A 
ATOM      3  N   UNL     1       0.161   9.171  22.409  0.00  0.00    +0.000 NA
ATOM      4  C   UNL     1      -0.066  10.321  21.729  0.00  0.00    +0.000 A 
ATOM      5  S   UNL     1      -0.855  11.662  22.442  0.00  0.00    +0.000 S 
ATOM      6  C   UNL     1      -0.550  12.635  21.083  0.00  0.00    +0.000 A 
ATOM      7  C   UNL     1       0.002  11.921  20.030  0.00  0.00    +0.000 A 
ATOM      8  C   UNL     1       0.326  10.590  20.434  0.00  0.00    +0.000 A 
ATOM      9  C   UNL     1       1.056   9.567  19.714  0.00  0.00    +0.000 A 
ATOM     10  O   UNL     1       1.294   9.669  18.513  0.00  0.00    +0.000 OA
ATOM     11  C   UNL     1       0.412  12.590  18.747  0.00  0.00    +0.000 C 
ATOM     12  C   UNL     1       0.091  14.094  18.759  0.00  0.00    +0.000 C 
ATOM     13  N   UNL     1       0.243  14.725  20.114  0.00  0.00    +0.000 NA
ATOM     14  C   UNL     1      -0.745  14.119  21.077  0.00  0.00    +0.000 C 
ENDROOT
BRANCH  13  15
ATOM     15  S   UNL     1       1.810  14.812  20.764  0.00  0.00    +0.000 S 
ATOM     16  O   UNL     1       1.719  14.589  22.188  0.00  0.00    +0.000 OA
ATOM     17  O   UNL     1       2.725  14.039  19.958  0.00  0.00    +0.000 OA
BRANCH  15  18
ATOM     18  N   UNL     1       2.200  16.448  20.527  0.00  0.00    +0.000 NA
ATOM     19  C   UNL     1       2.823  16.755  19.222  0.00  0.00    +0.000 C 
ATOM     20  C   UNL     1       1.038  17.332  20.800  0.00  0.00    +0.000 C 
ENDBRANCH  15  18
ENDBRANCH  13  15
BRANCH   1  21
ATOM     21  C   UNL     1       2.103   7.344  19.855  0.00  0.00    +0.000 C 
BRANCH  21  22
ATOM     22  C   UNL     1       1.766   5.949  20.421  0.00  0.00    +0.000 C 
BRANCH  22  28
ATOM     23  C   UNL     1       1.553   3.551  19.550  0.00  0.00    +0.000 A 
ATOM     24  C   UNL     1       1.734   2.615  18.525  0.00  0.00    +0.000 A 
ATOM     25  C   UNL     1       2.509   2.929  17.411  0.00  0.00    +0.000 A 
ATOM     26  C   UNL     1       3.076   4.194  17.296  0.00  0.00    +0.000 A 
ATOM     27  C   UNL     1       2.832   5.159  18.276  0.00  0.00    +0.000 A 
ATOM     28  C   UNL     1       2.055   4.856  19.409  0.00  0.00    +0.000 A 
BRANCH  23  30
ATOM     29  C   UNL     1       1.634   2.615  21.717  0.00  0.00    +0.000 C 
ATOM     30  O   UNL     1       0.867   3.264  20.701  0.00  0.00    +0.000 OA
ENDBRANCH  23  30
ENDBRANCH  22  28
ENDBRANCH  21  22
ENDBRANCH   1  21
TORSDOF 6
ENDMDL
MODEL 5
REMARK VINA RESULT:      -7.3      0.976      1.052
REMARK  Name = 
REMARK  9 active torsions:
REMARK  status: ('A' for Active; 'I' for Inactive)
REMARK    1  A    between atoms: C_1  and  O_2
REMARK    2  A    between atoms: O_2  and  C_3
REMARK    3  A    between atoms: C_8  and  C_9
REMARK    4  A    between atoms: C_9  and  C_10
REMARK    5  A    between atoms: C_10  and  N_11
REMARK    6  A    between atoms: N_23  and  S_24
REMARK    7  A    between atoms: S_24  and  N_27
REMARK    8  A    between atoms: N_27  and  C_28
REMARK    9  A    between atoms: N_27  and  C_29
REMARK                            x       y       z     vdW  Elec       q    Type
REMARK                         _______ _______ _______ _____ _____    ______ ____
ROOT
ATOM      1  N   UNL     1       2.004   8.000  19.531  0.00  0.00    +0.000 N 
ATOM      2  C   UNL     1       1.627   7.637  20.817  0.00  0.00    +0.000 A 
ATOM      3  N   UNL     1       0.859   8.313  21.614  0.00  0.00    +0.000 NA
ATOM      4  C   UNL     1       0.437   9.496  21.103  0.00  0.00    +0.000 A 
ATOM      5  S   UNL     1      -0.426  10.639  22.039  0.00  0.00    +0.000 S 
ATOM      6  C   UNL     1      -0.366  11.790  20.790  0.00  0.00    +0.000 A 
ATOM      7  C   UNL     1       0.159  11.273  19.615  0.00  0.00    +0.000 A 
ATOM      8  C   UNL     1       0.670   9.956  19.823  0.00  0.00    +0.000 A 
ATOM      9  C   UNL     1       1.438   9.120  18.924  0.00  0.00    +0.000 A 
ATOM     10  O   UNL     1       1.546   9.386  17.730  0.00  0.00    +0.000 OA
ATOM     11  C   UNL     1       0.364  12.129  18.396  0.00  0.00    +0.000 C 
ATOM     12  C   UNL     1      -0.123  13.571  18.620  0.00  0.00    +0.000 C 
ATOM     13  N   UNL     1       0.087  14.058  20.026  0.00  0.00    +0.000 NA
ATOM     14  C   UNL     1      -0.729  13.229  20.984  0.00  0.00    +0.000 C 
ENDROOT
BRANCH  13  15
ATOM     15  S   UNL     1       1.689  14.265  20.550  0.00  0.00    +0.000 S 
ATOM     16  O   UNL     1       1.720  14.082  21.983  0.00  0.00    +0.000 OA
ATOM     17  O   UNL     1       2.590  13.527  19.697  0.00  0.00    +0.000 OA
BRANCH  15  18
ATOM     18  N   UNL     1       1.951  15.915  20.240  0.00  0.00    +0.000 NA
ATOM     19  C   UNL     1       2.479  16.216  18.893  0.00  0.00    +0.000 C 
ATOM     20  C   UNL     1       0.748  16.727  20.552  0.00  0.00    +0.000 C 
ENDBRANCH  15  18
ENDBRANCH  13  15
BRANCH   1  21
ATOM     21  C   UNL     1       2.740   7.043  18.702  0.00  0.00    +0.000 C 
BRANCH  21  22
ATOM     22  C   UNL     1       1.952   5.795  18.255  0.00  0.00    +0.000 C 
BRANCH  22  28
ATOM     23  C   UNL     1       3.345   3.878  19.225  0.00  0.00    +0.000 A 
ATOM     24  C   UNL     1       3.545   2.906  20.212  0.00  0.00    +0.000 A 
ATOM     25  C   UNL     1       2.530   2.599  21.117  0.00  0.00    +0.000 A 
ATOM     26  C   UNL     1       1.324   3.290  21.064  0.00  0.00    +0.000 A 
ATOM     27  C   UNL     1       1.148   4.316  20.134  0.00  0.00    +0.000 A 
ATOM     28  C   UNL     1       2.161   4.635  19.211  0.00  0.00    +0.000 A 
BRANCH  23  30
ATOM     29  C   UNL     1       5.534   4.630  18.759  0.00  0.00    +0.000 C 
ATOM     30  O   UNL     1       4.280   4.159  18.264  0.00  0.00    +0.000 OA
ENDBRANCH  23  30
ENDBRANCH  22  28
ENDBRANCH  21  22
ENDBRANCH   1  21
TORSDOF 6
ENDMDL
MODEL 6
REMARK VINA RESULT:      -7.3      1.350      2.442
REMARK  Name = 
REMARK  9 active torsions:
REMARK  status: ('A' for Active; 'I' for Inactive)
REMARK    1  A    between atoms: C_1  and  O_2
REMARK    2  A    between atoms: O_2  and  C_3
REMARK    3  A    between atoms: C_8  and  C_9
REMARK    4  A    between atoms: C_9  and  C_10
REMARK    5  A    between atoms: C_10  and  N_11
REMARK    6  A    between atoms: N_23  and  S_24
REMARK    7  A    between atoms: S_24  and  N_27
REMARK    8  A    between atoms: N_27  and  C_28
REMARK    9  A    between atoms: N_27  and  C_29
REMARK                            x       y       z     vdW  Elec       q    Type
REMARK                         _______ _______ _______ _____ _____    ______ ____
ROOT
ATOM      1  N   UNL     1       1.887   8.181  19.286  0.00  0.00    +0.000 N 
ATOM      2  C   UNL     1       1.738   7.606  20.542  0.00  0.00    +0.000 A 
ATOM      3  N   UNL     1       1.062   8.092  21.537  0.00  0.00    +0.000 NA
ATOM      4  C   UNL     1       0.494   9.296  21.281  0.00  0.00    +0.000 A 
ATOM      5  S   UNL     1      -0.283  10.214  22.498  0.00  0.00    +0.000 S 
ATOM      6  C   UNL     1      -0.489  11.535  21.448  0.00  0.00    +0.000 A 
ATOM      7  C   UNL     1      -0.122  11.240  20.143  0.00  0.00    +0.000 A 
ATOM      8  C   UNL     1       0.496   9.954  20.069  0.00  0.00    +0.000 A 
ATOM      9  C   UNL     1       1.166   9.325  18.949  0.00  0.00    +0.000 A 
ATOM     10  O   UNL     1       1.071   9.768  17.808  0.00  0.00    +0.000 OA
ATOM     11  C   UNL     1      -0.161  12.276  19.055  0.00  0.00    +0.000 C 
ATOM     12  C   UNL     1      -0.697  13.624  19.569  0.00  0.00    +0.000 C 
ATOM     13  N   UNL     1      -0.301  13.919  20.988  0.00  0.00    +0.000 NA
ATOM     14  C   UNL     1      -0.905  12.895  21.913  0.00  0.00    +0.000 C 
ENDROOT
BRANCH  13  15
ATOM     15  S   UNL     1       1.347  14.184  21.302  0.00  0.00    +0.000 S 
ATOM     16  O   UNL     1       1.451  15.066  22.442  0.00  0.00    +0.000 OA
ATOM     17  O   UNL     1       2.064  12.931  21.276  0.00  0.00    +0.000 OA
BRANCH  15  18
ATOM     18  N   UNL     1       1.830  15.063  19.931  0.00  0.00    +0.000 NA
ATOM     19  C   UNL     1       2.070  16.502  20.169  0.00  0.00    +0.000 C 
ATOM     20  C   UNL     1       2.983  14.421  19.250  0.00  0.00    +0.000 C 
ENDBRANCH  15  18
ENDBRANCH  13  15
BRANCH   1  21
ATOM     21  C   UNL     1       2.543   7.419  18.222  0.00  0.00    +0.000 C 
BRANCH  21  22
ATOM     22  C   UNL     1       3.408   6.227  18.682  0.00  0.00    +0.000 C 
BRANCH  22  28
ATOM     23  C   UNL     1       4.435   4.269  17.391  0.00  0.00    +0.000 A 
ATOM     24  C   UNL     1       5.067   3.774  16.244  0.00  0.00    +0.000 A 
ATOM     25  C   UNL     1       5.583   4.648  15.289  0.00  0.00    +0.000 A 
ATOM     26  C   UNL     1       5.436   6.021  15.456  0.00  0.00    +0.000 A 
ATOM     27  C   UNL     1       4.735   6.518  16.557  0.00  0.00    +0.000 A 
ATOM     28  C   UNL     1       4.212   5.649  17.532  0.00  0.00    +0.000 A 
BRANCH  23  30
ATOM     29  C   UNL     1       3.117   2.399  17.976  0.00  0.00    +0.000 C 
ATOM     30  O   UNL     1       3.983   3.455  18.396  0.00  0.00    +0.000 OA
ENDBRANCH  23  30
ENDBRANCH  22  28
ENDBRANCH  21  22
ENDBRANCH   1  21
TORSDOF 6
ENDMDL
MODEL 7
REMARK VINA RESULT:      -7.2      1.967      2.834
REMARK  Name = 
REMARK  9 active torsions:
REMARK  status: ('A' for Active; 'I' for Inactive)
REMARK    1  A    between atoms: C_1  and  O_2
REMARK    2  A    between atoms: O_2  and  C_3
REMARK    3  A    between atoms: C_8  and  C_9
REMARK    4  A    between atoms: C_9  and  C_10
REMARK    5  A    between atoms: C_10  and  N_11
REMARK    6  A    between atoms: N_23  and  S_24
REMARK    7  A    between atoms: S_24  and  N_27
REMARK    8  A    between atoms: N_27  and  C_28
REMARK    9  A    between atoms: N_27  and  C_29
REMARK                            x       y       z     vdW  Elec       q    Type
REMARK                         _______ _______ _______ _____ _____    ______ ____
ROOT
ATOM      1  N   UNL     1       2.266   7.744  19.042  0.00  0.00    +0.000 N 
ATOM      2  C   UNL     1       1.951   7.351  20.337  0.00  0.00    +0.000 A 
ATOM      3  N   UNL     1       1.265   8.031  21.203  0.00  0.00    +0.000 NA
ATOM      4  C   UNL     1       0.870   9.249  20.760  0.00  0.00    +0.000 A 
ATOM      5  S   UNL     1       0.120  10.394  21.787  0.00  0.00    +0.000 S 
ATOM      6  C   UNL     1       0.159  11.588  20.578  0.00  0.00    +0.000 A 
ATOM      7  C   UNL     1       0.587  11.093  19.355  0.00  0.00    +0.000 A 
ATOM      8  C   UNL     1       1.047   9.747  19.485  0.00  0.00    +0.000 A 
ATOM      9  C   UNL     1       1.719   8.911  18.512  0.00  0.00    +0.000 A 
ATOM     10  O   UNL     1       1.767   9.217  17.323  0.00  0.00    +0.000 OA
ATOM     11  C   UNL     1       0.759  11.983  18.156  0.00  0.00    +0.000 C 
ATOM     12  C   UNL     1       0.355  13.436  18.460  0.00  0.00    +0.000 C 
ATOM     13  N   UNL     1       0.673  13.860  19.867  0.00  0.00    +0.000 NA
ATOM     14  C   UNL     1      -0.122  13.034  20.844  0.00  0.00    +0.000 C 
ENDROOT
BRANCH  13  15
ATOM     15  S   UNL     1       2.312  13.975  20.297  0.00  0.00    +0.000 S 
ATOM     16  O   UNL     1       2.526  13.157  21.469  0.00  0.00    +0.000 OA
ATOM     17  O   UNL     1       3.144  13.814  19.129  0.00  0.00    +0.000 OA
BRANCH  15  18
ATOM     18  N   UNL     1       2.437  15.600  20.777  0.00  0.00    +0.000 NA
ATOM     19  C   UNL     1       1.636  16.547  19.974  0.00  0.00    +0.000 C 
ATOM     20  C   UNL     1       2.182  15.761  22.231  0.00  0.00    +0.000 C 
ENDBRANCH  15  18
ENDBRANCH  13  15
BRANCH   1  21
ATOM     21  C   UNL     1       2.904   6.787  18.137  0.00  0.00    +0.000 C 
BRANCH  21  22
ATOM     22  C   UNL     1       4.092   5.995  18.723  0.00  0.00    +0.000 C 
BRANCH  22  28
ATOM     23  C   UNL     1       6.344   5.056  17.946  0.00  0.00    +0.000 A 
ATOM     24  C   UNL     1       7.173   4.598  16.916  0.00  0.00    +0.000 A 
ATOM     25  C   UNL     1       6.818   4.794  15.583  0.00  0.00    +0.000 A 
ATOM     26  C   UNL     1       5.613   5.415  15.272  0.00  0.00    +0.000 A 
ATOM     27  C   UNL     1       4.743   5.802  16.294  0.00  0.00    +0.000 A 
ATOM     28  C   UNL     1       5.090   5.614  17.645  0.00  0.00    +0.000 A 
BRANCH  23  30
ATOM     29  C   UNL     1       7.889   5.635  19.635  0.00  0.00    +0.000 C 
ATOM     30  O   UNL     1       6.685   4.959  19.270  0.00  0.00    +0.000 OA
ENDBRANCH  23  30
ENDBRANCH  22  28
ENDBRANCH  21  22
ENDBRANCH   1  21
TORSDOF 6
ENDMDL
MODEL 8
REMARK VINA RESULT:      -7.2      2.873      3.914
REMARK  Name = 
REMARK  9 active torsions:
REMARK  status: ('A' for Active; 'I' for Inactive)
REMARK    1  A    between atoms: C_1  and  O_2
REMARK    2  A    between atoms: O_2  and  C_3
REMARK    3  A    between atoms: C_8  and  C_9
REMARK    4  A    between atoms: C_9  and  C_10
REMARK    5  A    between atoms: C_10  and  N_11
REMARK    6  A    between atoms: N_23  and  S_24
REMARK    7  A    between atoms: S_24  and  N_27
REMARK    8  A    between atoms: N_27  and  C_28
REMARK    9  A    between atoms: N_27  and  C_29
REMARK                            x       y       z     vdW  Elec       q    Type
REMARK                         _______ _______ _______ _____ _____    ______ ____
ROOT
ATOM      1  N   UNL     1       0.942   9.119  20.272  0.00  0.00    +0.000 N 
ATOM      2  C   UNL     1       1.031   9.440  18.923  0.00  0.00    +0.000 A 
ATOM      3  N   UNL     1       0.731  10.579  18.381  0.00  0.00    +0.000 NA
ATOM      4  C   UNL     1       0.259  11.500  19.257  0.00  0.00    +0.000 A 
ATOM      5  S   UNL     1      -0.376  13.004  18.746  0.00  0.00    +0.000 S 
ATOM      6  C   UNL     1      -0.878  13.391  20.323  0.00  0.00    +0.000 A 
ATOM      7  C   UNL     1      -0.435  12.473  21.263  0.00  0.00    +0.000 A 
ATOM      8  C   UNL     1       0.180  11.352  20.627  0.00  0.00    +0.000 A 
ATOM      9  C   UNL     1       0.631  10.104  21.207  0.00  0.00    +0.000 A 
ATOM     10  O   UNL     1       0.744   9.961  22.422  0.00  0.00    +0.000 OA
ATOM     11  C   UNL     1      -0.811  12.580  22.714  0.00  0.00    +0.000 C 
ATOM     12  C   UNL     1      -1.668  13.827  22.992  0.00  0.00    +0.000 C 
ATOM     13  N   UNL     1      -2.595  14.176  21.862  0.00  0.00    +0.000 NA
ATOM     14  C   UNL     1      -1.797  14.531  20.634  0.00  0.00    +0.000 C 
ENDROOT
BRANCH  13  15
ATOM     15  S   UNL     1      -3.858  13.092  21.524  0.00  0.00    +0.000 S 
ATOM     16  O   UNL     1      -3.649  12.560  20.197  0.00  0.00    +0.000 OA
ATOM     17  O   UNL     1      -4.064  12.206  22.645  0.00  0.00    +0.000 OA
BRANCH  15  18
ATOM     18  N   UNL     1      -5.203  14.127  21.454  0.00  0.00    +0.000 NA
ATOM     19  C   UNL     1      -6.488  13.455  21.171  0.00  0.00    +0.000 C 
ATOM     20  C   UNL     1      -5.289  14.993  22.657  0.00  0.00    +0.000 C 
ENDBRANCH  15  18
ENDBRANCH  13  15
BRANCH   1  21
ATOM     21  C   UNL     1       1.481   7.841  20.742  0.00  0.00    +0.000 C 
BRANCH  21  22
ATOM     22  C   UNL     1       2.450   7.124  19.779  0.00  0.00    +0.000 C 
BRANCH  22  28
ATOM     23  C   UNL     1       2.498   4.892  18.525  0.00  0.00    +0.000 A 
ATOM     24  C   UNL     1       2.272   3.511  18.504  0.00  0.00    +0.000 A 
ATOM     25  C   UNL     1       1.553   2.897  19.528  0.00  0.00    +0.000 A 
ATOM     26  C   UNL     1       1.091   3.654  20.599  0.00  0.00    +0.000 A 
ATOM     27  C   UNL     1       1.384   5.018  20.667  0.00  0.00    +0.000 A 
ATOM     28  C   UNL     1       2.104   5.653  19.639  0.00  0.00    +0.000 A 
BRANCH  23  30
ATOM     29  C   UNL     1       4.368   4.982  17.086  0.00  0.00    +0.000 C 
ATOM     30  O   UNL     1       3.128   5.554  17.504  0.00  0.00    +0.000 OA
ENDBRANCH  23  30
ENDBRANCH  22  28
ENDBRANCH  21  22
ENDBRANCH   1  21
TORSDOF 6
ENDMDL
MODEL 9
REMARK VINA RESULT:      -7.2      0.984      1.224
REMARK  Name = 
REMARK  9 active torsions:
REMARK  status: ('A' for Active; 'I' for Inactive)
REMARK    1  A    between atoms: C_1  and  O_2
REMARK    2  A    between atoms: O_2  and  C_3
REMARK    3  A    between atoms: C_8  and  C_9
REMARK    4  A    between atoms: C_9  and  C_10
REMARK    5  A    between atoms: C_10  and  N_11
REMARK    6  A    between atoms: N_23  and  S_24
REMARK    7  A    between atoms: S_24  and  N_27
REMARK    8  A    between atoms: N_27  and  C_28
REMARK    9  A    between atoms: N_27  and  C_29
REMARK                            x       y       z     vdW  Elec       q    Type
REMARK                         _______ _______ _______ _____ _____    ______ ____
ROOT
ATOM      1  N   UNL     1       1.894   8.168  19.379  0.00  0.00    +0.000 N 
ATOM      2  C   UNL     1       1.630   7.636  20.634  0.00  0.00    +0.000 A 
ATOM      3  N   UNL     1       0.920   8.186  21.571  0.00  0.00    +0.000 NA
ATOM      4  C   UNL     1       0.441   9.413  21.251  0.00  0.00    +0.000 A 
ATOM      5  S   UNL     1      -0.358  10.406  22.393  0.00  0.00    +0.000 S 
ATOM      6  C   UNL     1      -0.417  11.708  21.302  0.00  0.00    +0.000 A 
ATOM      7  C   UNL     1       0.016  11.358  20.032  0.00  0.00    +0.000 A 
ATOM      8  C   UNL     1       0.561  10.038  20.027  0.00  0.00    +0.000 A 
ATOM      9  C   UNL     1       1.264   9.342  18.969  0.00  0.00    +0.000 A 
ATOM     10  O   UNL     1       1.270   9.760  17.814  0.00  0.00    +0.000 OA
ATOM     11  C   UNL     1       0.108  12.366  18.921  0.00  0.00    +0.000 C 
ATOM     12  C   UNL     1      -0.379  13.756  19.367  0.00  0.00    +0.000 C 
ATOM     13  N   UNL     1      -0.060  14.065  20.802  0.00  0.00    +0.000 NA
ATOM     14  C   UNL     1      -0.782  13.102  21.708  0.00  0.00    +0.000 C 
ENDROOT
BRANCH  13  15
ATOM     15  S   UNL     1       1.576  14.243  21.219  0.00  0.00    +0.000 S 
ATOM     16  O   UNL     1       1.654  15.104  22.377  0.00  0.00    +0.000 OA
ATOM     17  O   UNL     1       2.232  12.957  21.217  0.00  0.00    +0.000 OA
BRANCH  15  18
ATOM     18  N   UNL     1       2.185  15.114  19.894  0.00  0.00    +0.000 NA
ATOM     19  C   UNL     1       2.352  16.564  20.128  0.00  0.00    +0.000 C 
ATOM     20  C   UNL     1       3.426  14.499  19.359  0.00  0.00    +0.000 C 
ENDBRANCH  15  18
ENDBRANCH  13  15
BRANCH   1  21
ATOM     21  C   UNL     1       2.572   7.342  18.378  0.00  0.00    +0.000 C 
BRANCH  21  22
ATOM     22  C   UNL     1       3.522   6.260  18.930  0.00  0.00    +0.000 C 
BRANCH  22  28
ATOM     23  C   UNL     1       3.973   4.000  17.815  0.00  0.00    +0.000 A 
ATOM     24  C   UNL     1       3.580   2.684  17.544  0.00  0.00    +0.000 A 
ATOM     25  C   UNL     1       2.283   2.261  17.830  0.00  0.00    +0.000 A 
ATOM     26  C   UNL     1       1.384   3.140  18.424  0.00  0.00    +0.000 A 
ATOM     27  C   UNL     1       1.795   4.429  18.771  0.00  0.00    +0.000 A 
ATOM     28  C   UNL     1       3.099   4.872  18.485  0.00  0.00    +0.000 A 
BRANCH  23  30
ATOM     29  C   UNL     1       5.710   4.048  16.216  0.00  0.00    +0.000 C 
ATOM     30  O   UNL     1       5.210   4.486  17.480  0.00  0.00    +0.000 OA
ENDBRANCH  23  30
ENDBRANCH  22  28
ENDBRANCH  21  22
ENDBRANCH   1  21
TORSDOF 6
ENDMDL
