MODEL 1
REMARK VINA RESULT:      -7.6      0.000      0.000
REMARK  Name = 
REMARK  1 active torsions:
REMARK  status: ('A' for Active; 'I' for Inactive)
REMARK    1  A    between atoms: N_3  and  C_4
REMARK                            x       y       z     vdW  Elec       q    Type
REMARK                         _______ _______ _______ _____ _____    ______ ____
ROOT
ATOM      1  O   UNL     1       7.929   4.442  17.466  0.00  0.00    +0.000 OA
ATOM      2  C   UNL     1       6.721   4.227  17.397  0.00  0.00    +0.000 C 
ATOM      3  N   UNL     1       5.985   4.130  16.248  0.00  0.00    +0.000 N 
ATOM      4  N   UNL     1       6.024   4.125  18.571  0.00  0.00    +0.000 N 
ATOM      5  C   UNL     1       4.683   3.797  18.776  0.00  0.00    +0.000 A 
ATOM      6  C   UNL     1       4.214   3.762  20.085  0.00  0.00    +0.000 A 
ATOM      7  C   UNL     1       2.891   3.378  20.321  0.00  0.00    +0.000 A 
ATOM      8  C   UNL     1       2.083   3.035  19.245  0.00  0.00    +0.000 A 
ATOM      9 CL   UNL     1       0.466   2.524  19.491  0.00  0.00    +0.000 Cl
ATOM     10  C   UNL     1       2.622   3.115  17.973  0.00  0.00    +0.000 A 
ATOM     11  N   UNL     1       3.897   3.501  17.715  0.00  0.00    +0.000 NA
ATOM     12  H   UNL     1       4.982   4.061  16.409  0.00  0.00    +0.000 HD
ATOM     13  H   UNL     1       6.611   4.279  19.379  0.00  0.00    +0.000 HD
ENDROOT
BRANCH   3  14
ATOM     14  C   UNL     1       6.430   4.263  14.924  0.00  0.00    +0.000 A 
ATOM     15  C   UNL     1       7.412   5.177  14.530  0.00  0.00    +0.000 A 
ATOM     16  C   UNL     1       7.773   5.290  13.185  0.00  0.00    +0.000 A 
ATOM     17  C   UNL     1       7.146   4.494  12.233  0.00  0.00    +0.000 A 
ATOM     18  F   UNL     1       7.483   4.643  10.944  0.00  0.00    +0.000 F 
ATOM     19  C   UNL     1       6.183   3.565  12.615  0.00  0.00    +0.000 A 
ATOM     20 CL   UNL     1       5.390   2.587  11.441  0.00  0.00    +0.000 Cl
ATOM     21  C   UNL     1       5.837   3.433  13.962  0.00  0.00    +0.000 A 
ENDBRANCH   3  14
TORSDOF 1
ENDMDL
MODEL 2
REMARK VINA RESULT:      -7.3      1.779      1.779
REMARK  Name = 
REMARK  1 active torsions:
REMARK  status: ('A' for Active; 'I' for Inactive)
REMARK    1  A    between atoms: N_3  and  C_4
REMARK                            x       y       z     vdW  Elec       q    Type
REMARK                         _______ _______ _______ _____ _____    ______ ____
ROOT
ATOM      1  O   UNL     1       5.927   7.334  16.347  0.00  0.00    +0.000 OA
ATOM      2  C   UNL     1       5.203   6.404  16.696  0.00  0.00    +0.000 C 
ATOM      3  N   UNL     1       5.082   5.197  16.063  0.00  0.00    +0.000 N 
ATOM      4  N   UNL     1       4.398   6.598  17.786  0.00  0.00    +0.000 N 
ATOM      5  C   UNL     1       3.562   5.691  18.439  0.00  0.00    +0.000 A 
ATOM      6  C   UNL     1       2.839   6.145  19.538  0.00  0.00    +0.000 A 
ATOM      7  C   UNL     1       2.042   5.241  20.246  0.00  0.00    +0.000 A 
ATOM      8  C   UNL     1       1.997   3.915  19.838  0.00  0.00    +0.000 A 
ATOM      9 CL   UNL     1       1.061   2.764  20.698  0.00  0.00    +0.000 Cl
ATOM     10  C   UNL     1       2.732   3.549  18.724  0.00  0.00    +0.000 A 
ATOM     11  N   UNL     1       3.499   4.409  18.009  0.00  0.00    +0.000 NA
ATOM     12  H   UNL     1       4.346   4.606  16.446  0.00  0.00    +0.000 HD
ATOM     13  H   UNL     1       4.481   7.533  18.162  0.00  0.00    +0.000 HD
ENDROOT
BRANCH   3  14
ATOM     14  C   UNL     1       5.731   4.764  14.897  0.00  0.00    +0.000 A 
ATOM     15  C   UNL     1       7.089   4.983  14.646  0.00  0.00    +0.000 A 
ATOM     16  C   UNL     1       7.660   4.566  13.441  0.00  0.00    +0.000 A 
ATOM     17  C   UNL     1       6.870   3.938  12.484  0.00  0.00    +0.000 A 
ATOM     18  F   UNL     1       7.431   3.577  11.320  0.00  0.00    +0.000 F 
ATOM     19  C   UNL     1       5.523   3.695  12.732  0.00  0.00    +0.000 A 
ATOM     20 CL   UNL     1       4.535   2.931  11.546  0.00  0.00    +0.000 Cl
ATOM     21  C   UNL     1       4.955   4.088  13.945  0.00  0.00    +0.000 A 
ENDBRANCH   3  14
TORSDOF 1
ENDMDL
MODEL 3
REMARK VINA RESULT:      -7.2      5.736      7.319
REMARK  Name = 
REMARK  1 active torsions:
REMARK  status: ('A' for Active; 'I' for Inactive)
REMARK    1  A    between atoms: N_3  and  C_4
REMARK                            x       y       z     vdW  Elec       q    Type
REMARK                         _______ _______ _______ _____ _____    ______ ____
ROOT
ATOM      1  O   UNL     1       3.153   7.887  17.342  0.00  0.00    +0.000 OA
ATOM      2  C   UNL     1       2.462   7.972  18.354  0.00  0.00    +0.000 C 
ATOM      3  N   UNL     1       2.265   6.983  19.280  0.00  0.00    +0.000 N 
ATOM      4  N   UNL     1       1.776   9.139  18.561  0.00  0.00    +0.000 N 
ATOM      5  C   UNL     1       1.005   9.527  19.658  0.00  0.00    +0.000 A 
ATOM      6  C   UNL     1       0.404  10.782  19.621  0.00  0.00    +0.000 A 
ATOM      7  C   UNL     1      -0.323  11.218  20.731  0.00  0.00    +0.000 A 
ATOM      8  C   UNL     1      -0.422  10.393  21.843  0.00  0.00    +0.000 A 
ATOM      9 CL   UNL     1      -1.273  10.902  23.241  0.00  0.00    +0.000 Cl
ATOM     10  C   UNL     1       0.190   9.152  21.792  0.00  0.00    +0.000 A 
ATOM     11  N   UNL     1       0.886   8.697  20.720  0.00  0.00    +0.000 NA
ATOM     12  H   UNL     1       1.567   7.216  19.984  0.00  0.00    +0.000 HD
ATOM     13  H   UNL     1       1.905   9.798  17.806  0.00  0.00    +0.000 HD
ENDROOT
BRANCH   3  14
ATOM     14  C   UNL     1       2.784   5.681  19.276  0.00  0.00    +0.000 A 
ATOM     15  C   UNL     1       4.145   5.395  19.420  0.00  0.00    +0.000 A 
ATOM     16  C   UNL     1       4.600   4.075  19.359  0.00  0.00    +0.000 A 
ATOM     17  C   UNL     1       3.694   3.043  19.146  0.00  0.00    +0.000 A 
ATOM     18  F   UNL     1       4.156   1.787  19.056  0.00  0.00    +0.000 F 
ATOM     19  C   UNL     1       2.335   3.312  19.023  0.00  0.00    +0.000 A 
ATOM     20 CL   UNL     1       1.208   2.040  18.744  0.00  0.00    +0.000 Cl
ATOM     21  C   UNL     1       1.874   4.628  19.108  0.00  0.00    +0.000 A 
ENDBRANCH   3  14
TORSDOF 1
ENDMDL
MODEL 4
REMARK VINA RESULT:      -7.2      5.297      6.132
REMARK  Name = 
REMARK  1 active torsions:
REMARK  status: ('A' for Active; 'I' for Inactive)
REMARK    1  A    between atoms: N_3  and  C_4
REMARK                            x       y       z     vdW  Elec       q    Type
REMARK                         _______ _______ _______ _____ _____    ______ ____
ROOT
ATOM      1  O   UNL     1       2.472   4.882  20.834  0.00  0.00    +0.000 OA
ATOM      2  C   UNL     1       2.337   5.979  20.298  0.00  0.00    +0.000 C 
ATOM      3  N   UNL     1       2.809   6.337  19.065  0.00  0.00    +0.000 N 
ATOM      4  N   UNL     1       1.703   6.962  21.010  0.00  0.00    +0.000 N 
ATOM      5  C   UNL     1       1.341   8.249  20.609  0.00  0.00    +0.000 A 
ATOM      6  C   UNL     1       0.697   9.064  21.536  0.00  0.00    +0.000 A 
ATOM      7  C   UNL     1       0.271  10.334  21.141  0.00  0.00    +0.000 A 
ATOM      8  C   UNL     1       0.494  10.748  19.835  0.00  0.00    +0.000 A 
ATOM      9 CL   UNL     1      -0.044  12.284  19.297  0.00  0.00    +0.000 Cl
ATOM     10  C   UNL     1       1.158   9.884  18.981  0.00  0.00    +0.000 A 
ATOM     11  N   UNL     1       1.597   8.653  19.344  0.00  0.00    +0.000 NA
ATOM     12  H   UNL     1       2.691   7.325  18.852  0.00  0.00    +0.000 HD
ATOM     13  H   UNL     1       1.445   6.657  21.938  0.00  0.00    +0.000 HD
ENDROOT
BRANCH   3  14
ATOM     14  C   UNL     1       3.546   5.555  18.163  0.00  0.00    +0.000 A 
ATOM     15  C   UNL     1       3.099   4.328  17.664  0.00  0.00    +0.000 A 
ATOM     16  C   UNL     1       3.906   3.579  16.804  0.00  0.00    +0.000 A 
ATOM     17  C   UNL     1       5.164   4.053  16.451  0.00  0.00    +0.000 A 
ATOM     18  F   UNL     1       5.937   3.302  15.652  0.00  0.00    +0.000 F 
ATOM     19  C   UNL     1       5.611   5.283  16.923  0.00  0.00    +0.000 A 
ATOM     20 CL   UNL     1       7.175   5.871  16.502  0.00  0.00    +0.000 Cl
ATOM     21  C   UNL     1       4.797   6.046  17.762  0.00  0.00    +0.000 A 
ENDBRANCH   3  14
TORSDOF 1
ENDMDL
MODEL 5
REMARK VINA RESULT:      -7.1      3.704      6.986
REMARK  Name = 
REMARK  1 active torsions:
REMARK  status: ('A' for Active; 'I' for Inactive)
REMARK    1  A    between atoms: N_3  and  C_4
REMARK                            x       y       z     vdW  Elec       q    Type
REMARK                         _______ _______ _______ _____ _____    ______ ____
ROOT
ATOM      1  O   UNL     1       6.861   7.187  17.202  0.00  0.00    +0.000 OA
ATOM      2  C   UNL     1       6.333   6.318  16.511  0.00  0.00    +0.000 C 
ATOM      3  N   UNL     1       5.126   5.721  16.753  0.00  0.00    +0.000 N 
ATOM      4  N   UNL     1       7.029   5.857  15.426  0.00  0.00    +0.000 N 
ATOM      5  C   UNL     1       6.627   4.955  14.439  0.00  0.00    +0.000 A 
ATOM      6  C   UNL     1       7.535   4.648  13.429  0.00  0.00    +0.000 A 
ATOM      7  C   UNL     1       7.137   3.795  12.397  0.00  0.00    +0.000 A 
ATOM      8  C   UNL     1       5.847   3.283  12.400  0.00  0.00    +0.000 A 
ATOM      9 CL   UNL     1       5.304   2.263  11.135  0.00  0.00    +0.000 Cl
ATOM     10  C   UNL     1       5.012   3.624  13.451  0.00  0.00    +0.000 A 
ATOM     11  N   UNL     1       5.379   4.435  14.474  0.00  0.00    +0.000 NA
ATOM     12  H   UNL     1       4.920   4.946  16.126  0.00  0.00    +0.000 HD
ATOM     13  H   UNL     1       7.941   6.284  15.346  0.00  0.00    +0.000 HD
ENDROOT
BRANCH   3  14
ATOM     14  C   UNL     1       4.247   5.951  17.823  0.00  0.00    +0.000 A 
ATOM     15  C   UNL     1       4.075   5.057  18.883  0.00  0.00    +0.000 A 
ATOM     16  C   UNL     1       3.147   5.328  19.892  0.00  0.00    +0.000 A 
ATOM     17  C   UNL     1       2.386   6.489  19.835  0.00  0.00    +0.000 A 
ATOM     18  F   UNL     1       1.477   6.712  20.795  0.00  0.00    +0.000 F 
ATOM     19  C   UNL     1       2.565   7.398  18.797  0.00  0.00    +0.000 A 
ATOM     20 CL   UNL     1       1.615   8.832  18.711  0.00  0.00    +0.000 Cl
ATOM     21  C   UNL     1       3.509   7.142  17.801  0.00  0.00    +0.000 A 
ENDBRANCH   3  14
TORSDOF 1
ENDMDL
MODEL 6
REMARK VINA RESULT:      -7.1      4.681      5.444
REMARK  Name = 
REMARK  1 active torsions:
REMARK  status: ('A' for Active; 'I' for Inactive)
REMARK    1  A    between atoms: N_3  and  C_4
REMARK                            x       y       z     vdW  Elec       q    Type
REMARK                         _______ _______ _______ _____ _____    ______ ____
ROOT
ATOM      1  O   UNL     1       3.052   4.343  20.529  0.00  0.00    +0.000 OA
ATOM      2  C   UNL     1       2.890   5.492  20.123  0.00  0.00    +0.000 C 
ATOM      3  N   UNL     1       3.612   6.106  19.138  0.00  0.00    +0.000 N 
ATOM      4  N   UNL     1       1.938   6.258  20.742  0.00  0.00    +0.000 N 
ATOM      5  C   UNL     1       1.494   7.542  20.423  0.00  0.00    +0.000 A 
ATOM      6  C   UNL     1       0.503   8.106  21.220  0.00  0.00    +0.000 A 
ATOM      7  C   UNL     1      -0.001   9.365  20.886  0.00  0.00    +0.000 A 
ATOM      8  C   UNL     1       0.495  10.018  19.766  0.00  0.00    +0.000 A 
ATOM      9 CL   UNL     1      -0.120  11.548  19.298  0.00  0.00    +0.000 Cl
ATOM     10  C   UNL     1       1.494   9.396  19.037  0.00  0.00    +0.000 A 
ATOM     11  N   UNL     1       2.013   8.182  19.350  0.00  0.00    +0.000 NA
ATOM     12  H   UNL     1       3.397   7.096  19.029  0.00  0.00    +0.000 HD
ATOM     13  H   UNL     1       1.493   5.771  21.508  0.00  0.00    +0.000 HD
ENDROOT
BRANCH   3  14
ATOM     14  C   UNL     1       4.681   5.582  18.395  0.00  0.00    +0.000 A 
ATOM     15  C   UNL     1       5.958   5.376  18.925  0.00  0.00    +0.000 A 
ATOM     16  C   UNL     1       6.989   4.894  18.114  0.00  0.00    +0.000 A 
ATOM     17  C   UNL     1       6.744   4.626  16.773  0.00  0.00    +0.000 A 
ATOM     18  F   UNL     1       7.757   4.198  16.005  0.00  0.00    +0.000 F 
ATOM     19  C   UNL     1       5.472   4.806  16.239  0.00  0.00    +0.000 A 
ATOM     20 CL   UNL     1       5.164   4.491  14.574  0.00  0.00    +0.000 Cl
ATOM     21  C   UNL     1       4.434   5.264  17.053  0.00  0.00    +0.000 A 
ENDBRANCH   3  14
TORSDOF 1
ENDMDL
MODEL 7
REMARK VINA RESULT:      -7.1      3.216      6.906
REMARK  Name = 
REMARK  1 active torsions:
REMARK  status: ('A' for Active; 'I' for Inactive)
REMARK    1  A    between atoms: N_3  and  C_4
REMARK                            x       y       z     vdW  Elec       q    Type
REMARK                         _______ _______ _______ _____ _____    ______ ____
ROOT
ATOM      1  O   UNL     1       5.733   7.139  17.355  0.00  0.00    +0.000 OA
ATOM      2  C   UNL     1       5.542   6.180  16.610  0.00  0.00    +0.000 C 
ATOM      3  N   UNL     1       4.564   5.233  16.752  0.00  0.00    +0.000 N 
ATOM      4  N   UNL     1       6.411   6.000  15.568  0.00  0.00    +0.000 N 
ATOM      5  C   UNL     1       6.368   5.062  14.535  0.00  0.00    +0.000 A 
ATOM      6  C   UNL     1       7.387   5.089  13.587  0.00  0.00    +0.000 A 
ATOM      7  C   UNL     1       7.335   4.200  12.511  0.00  0.00    +0.000 A 
ATOM      8  C   UNL     1       6.267   3.319  12.411  0.00  0.00    +0.000 A 
ATOM      9 CL   UNL     1       6.144   2.236  11.088  0.00  0.00    +0.000 Cl
ATOM     10  C   UNL     1       5.305   3.343  13.406  0.00  0.00    +0.000 A 
ATOM     11  N   UNL     1       5.341   4.183  14.470  0.00  0.00    +0.000 NA
ATOM     12  H   UNL     1       4.646   4.460  16.095  0.00  0.00    +0.000 HD
ATOM     13  H   UNL     1       7.151   6.688  15.562  0.00  0.00    +0.000 HD
ENDROOT
BRANCH   3  14
ATOM     14  C   UNL     1       3.594   5.138  17.761  0.00  0.00    +0.000 A 
ATOM     15  C   UNL     1       3.457   6.077  18.787  0.00  0.00    +0.000 A 
ATOM     16  C   UNL     1       2.498   5.895  19.787  0.00  0.00    +0.000 A 
ATOM     17  C   UNL     1       1.682   4.770  19.764  0.00  0.00    +0.000 A 
ATOM     18  F   UNL     1       0.792   4.598  20.752  0.00  0.00    +0.000 F 
ATOM     19  C   UNL     1       1.793   3.841  18.735  0.00  0.00    +0.000 A 
ATOM     20 CL   UNL     1       0.797   2.437  18.707  0.00  0.00    +0.000 Cl
ATOM     21  C   UNL     1       2.734   4.032  17.721  0.00  0.00    +0.000 A 
ENDBRANCH   3  14
TORSDOF 1
ENDMDL
MODEL 8
REMARK VINA RESULT:      -7.0      3.375      6.947
REMARK  Name = 
REMARK  1 active torsions:
REMARK  status: ('A' for Active; 'I' for Inactive)
REMARK    1  A    between atoms: N_3  and  C_4
REMARK                            x       y       z     vdW  Elec       q    Type
REMARK                         _______ _______ _______ _____ _____    ______ ____
ROOT
ATOM      1  O   UNL     1       6.581   7.076  17.404  0.00  0.00    +0.000 OA
ATOM      2  C   UNL     1       6.128   6.214  16.654  0.00  0.00    +0.000 C 
ATOM      3  N   UNL     1       4.947   5.544  16.819  0.00  0.00    +0.000 N 
ATOM      4  N   UNL     1       6.889   5.842  15.578  0.00  0.00    +0.000 N 
ATOM      5  C   UNL     1       6.576   4.969  14.536  0.00  0.00    +0.000 A 
ATOM      6  C   UNL     1       7.538   4.757  13.552  0.00  0.00    +0.000 A 
ATOM      7  C   UNL     1       7.227   3.935  12.466  0.00  0.00    +0.000 A 
ATOM      8  C   UNL     1       5.968   3.356  12.393  0.00  0.00    +0.000 A 
ATOM      9 CL   UNL     1       5.531   2.370  11.061  0.00  0.00    +0.000 Cl
ATOM     10  C   UNL     1       5.075   3.602  13.423  0.00  0.00    +0.000 A 
ATOM     11  N   UNL     1       5.358   4.382  14.496  0.00  0.00    +0.000 NA
ATOM     12  H   UNL     1       4.808   4.790  16.149  0.00  0.00    +0.000 HD
ATOM     13  H   UNL     1       7.779   6.320  15.555  0.00  0.00    +0.000 HD
ENDROOT
BRANCH   3  14
ATOM     14  C   UNL     1       4.016   5.676  17.860  0.00  0.00    +0.000 A 
ATOM     15  C   UNL     1       3.308   6.855  18.114  0.00  0.00    +0.000 A 
ATOM     16  C   UNL     1       2.431   6.932  19.198  0.00  0.00    +0.000 A 
ATOM     17  C   UNL     1       2.269   5.833  20.034  0.00  0.00    +0.000 A 
ATOM     18  F   UNL     1       1.448   5.940  21.089  0.00  0.00    +0.000 F 
ATOM     19  C   UNL     1       2.950   4.647  19.778  0.00  0.00    +0.000 A 
ATOM     20 CL   UNL     1       2.766   3.286  20.817  0.00  0.00    +0.000 Cl
ATOM     21  C   UNL     1       3.809   4.559  18.681  0.00  0.00    +0.000 A 
ENDBRANCH   3  14
TORSDOF 1
ENDMDL
MODEL 9
REMARK VINA RESULT:      -6.9      5.310      6.952
REMARK  Name = 
REMARK  1 active torsions:
REMARK  status: ('A' for Active; 'I' for Inactive)
REMARK    1  A    between atoms: N_3  and  C_4
REMARK                            x       y       z     vdW  Elec       q    Type
REMARK                         _______ _______ _______ _____ _____    ______ ____
ROOT
ATOM      1  O   UNL     1       3.516   7.332  17.171  0.00  0.00    +0.000 OA
ATOM      2  C   UNL     1       2.765   7.378  18.143  0.00  0.00    +0.000 C 
ATOM      3  N   UNL     1       2.330   6.307  18.875  0.00  0.00    +0.000 N 
ATOM      4  N   UNL     1       2.266   8.601  18.505  0.00  0.00    +0.000 N 
ATOM      5  C   UNL     1       1.480   8.942  19.606  0.00  0.00    +0.000 A 
ATOM      6  C   UNL     1       1.100  10.273  19.749  0.00  0.00    +0.000 A 
ATOM      7  C   UNL     1       0.364  10.652  20.874  0.00  0.00    +0.000 A 
ATOM      8  C   UNL     1       0.036   9.693  21.823  0.00  0.00    +0.000 A 
ATOM      9 CL   UNL     1      -0.835  10.119  23.237  0.00  0.00    +0.000 Cl
ATOM     10  C   UNL     1       0.436   8.387  21.597  0.00  0.00    +0.000 A 
ATOM     11  N   UNL     1       1.136   7.990  20.505  0.00  0.00    +0.000 NA
ATOM     12  H   UNL     1       1.623   6.546  19.569  0.00  0.00    +0.000 HD
ATOM     13  H   UNL     1       2.566   9.337  17.881  0.00  0.00    +0.000 HD
ENDROOT
BRANCH   3  14
ATOM     14  C   UNL     1       2.626   4.950  18.680  0.00  0.00    +0.000 A 
ATOM     15  C   UNL     1       2.155   4.208  17.593  0.00  0.00    +0.000 A 
ATOM     16  C   UNL     1       2.449   2.847  17.486  0.00  0.00    +0.000 A 
ATOM     17  C   UNL     1       3.208   2.226  18.471  0.00  0.00    +0.000 A 
ATOM     18  F   UNL     1       3.450   0.911  18.367  0.00  0.00    +0.000 F 
ATOM     19  C   UNL     1       3.702   2.958  19.546  0.00  0.00    +0.000 A 
ATOM     20 CL   UNL     1       4.630   2.193  20.779  0.00  0.00    +0.000 Cl
ATOM     21  C   UNL     1       3.430   4.324  19.643  0.00  0.00    +0.000 A 
ENDBRANCH   3  14
TORSDOF 1
ENDMDL
