MODEL 1
REMARK VINA RESULT:      -7.3      0.000      0.000
REMARK  Name = 
REMARK  6 active torsions:
REMARK  status: ('A' for Active; 'I' for Inactive)
REMARK    1  A    between atoms: C_1  and  C_2
REMARK    2  A    between atoms: C_2  and  C_3
REMARK    3  A    between atoms: C_2  and  O_4
REMARK    4  A    between atoms: C_2  and  C_5
REMARK    5  A    between atoms: C_10  and  C_12
REMARK    6  A    between atoms: C_15  and  C_16
REMARK                            x       y       z     vdW  Elec       q    Type
REMARK                         _______ _______ _______ _____ _____    ______ ____
ROOT
ATOM      1  C   UNL     1       3.188   3.524  20.026  0.00  0.00    +0.000 C 
ATOM      2  C   UNL     1       2.006   2.545  20.152  0.00  0.00    +0.000 C 
ATOM      3  C   UNL     1       0.941   3.349  20.859  0.00  0.00    +0.000 C 
ATOM      4  C   UNL     1       1.176   4.768  20.378  0.00  0.00    +0.000 C 
ATOM      5  N   UNL     1       2.480   4.796  19.721  0.00  0.00    +0.000 N 
ATOM      6  C   UNL     1       3.010   5.915  19.060  0.00  0.00    +0.000 C 
ATOM      7  O   UNL     1       4.039   5.874  18.384  0.00  0.00    +0.000 OA
ENDROOT
BRANCH   6   8
ATOM      8  C   UNL     1       2.296   7.251  19.102  0.00  0.00    +0.000 A 
ATOM      9  C   UNL     1       1.814   7.833  20.280  0.00  0.00    +0.000 A 
ATOM     10  C   UNL     1       1.176   9.079  20.283  0.00  0.00    +0.000 A 
ATOM     11  C   UNL     1       1.103   9.851  19.122  0.00  0.00    +0.000 A 
ATOM     12  C   UNL     1       1.624   9.309  17.939  0.00  0.00    +0.000 A 
ATOM     13  C   UNL     1       2.204   8.021  17.931  0.00  0.00    +0.000 A 
BRANCH  11  14
ATOM     14  C   UNL     1       0.583  11.214  19.215  0.00  0.00    +0.000 A 
ATOM     15  N   UNL     1       1.320  12.230  19.797  0.00  0.00    +0.000 NA
ATOM     16  C   UNL     1       0.574  13.280  19.584  0.00  0.00    +0.000 A 
ATOM     17  O   UNL     1      -0.583  13.005  18.931  0.00  0.00    +0.000 OA
ATOM     18  N   UNL     1      -0.584  11.629  18.689  0.00  0.00    +0.000 NA
ENDBRANCH  11  14
ENDBRANCH   6   8
BRANCH   1  20
ATOM     19  C   UNL     1       4.021   2.716  17.692  0.00  0.00    +0.000 C 
ATOM     20  C   UNL     1       4.354   2.918  19.173  0.00  0.00    +0.000 C 
ATOM     21  C   UNL     1       4.763   1.552  19.770  0.00  0.00    +0.000 C 
BRANCH  20  22
ATOM     22  O   UNL     1       5.531   3.717  19.326  0.00  0.00    +0.000 OA
ATOM     23  H   UNL     1       5.927   3.852  18.450  0.00  0.00    +0.000 HD
ENDBRANCH  20  22
ENDBRANCH   1  20
TORSDOF 4
ENDMDL
MODEL 2
REMARK VINA RESULT:      -7.3      0.618      1.352
REMARK  Name = 
REMARK  6 active torsions:
REMARK  status: ('A' for Active; 'I' for Inactive)
REMARK    1  A    between atoms: C_1  and  C_2
REMARK    2  A    between atoms: C_2  and  C_3
REMARK    3  A    between atoms: C_2  and  O_4
REMARK    4  A    between atoms: C_2  and  C_5
REMARK    5  A    between atoms: C_10  and  C_12
REMARK    6  A    between atoms: C_15  and  C_16
REMARK                            x       y       z     vdW  Elec       q    Type
REMARK                         _______ _______ _______ _____ _____    ______ ____
ROOT
ATOM      1  C   UNL     1       3.221   3.574  20.012  0.00  0.00    +0.000 C 
ATOM      2  C   UNL     1       2.023   2.624  20.203  0.00  0.00    +0.000 C 
ATOM      3  C   UNL     1       1.003   3.467  20.931  0.00  0.00    +0.000 C 
ATOM      4  C   UNL     1       1.250   4.869  20.411  0.00  0.00    +0.000 C 
ATOM      5  N   UNL     1       2.530   4.855  19.706  0.00  0.00    +0.000 N 
ATOM      6  C   UNL     1       3.058   5.947  19.002  0.00  0.00    +0.000 C 
ATOM      7  O   UNL     1       4.060   5.870  18.289  0.00  0.00    +0.000 OA
ENDROOT
BRANCH   6   8
ATOM      8  C   UNL     1       2.376   7.300  19.041  0.00  0.00    +0.000 A 
ATOM      9  C   UNL     1       2.128   8.074  17.902  0.00  0.00    +0.000 A 
ATOM     10  C   UNL     1       1.478   9.312  17.975  0.00  0.00    +0.000 A 
ATOM     11  C   UNL     1       0.939   9.770  19.178  0.00  0.00    +0.000 A 
ATOM     12  C   UNL     1       1.132   8.987  20.324  0.00  0.00    +0.000 A 
ATOM     13  C   UNL     1       1.850   7.772  20.256  0.00  0.00    +0.000 A 
BRANCH  11  14
ATOM     14  C   UNL     1       0.122  10.982  19.167  0.00  0.00    +0.000 A 
ATOM     15  N   UNL     1      -1.260  10.921  19.217  0.00  0.00    +0.000 NA
ATOM     16  C   UNL     1      -1.596  12.180  19.301  0.00  0.00    +0.000 A 
ATOM     17  O   UNL     1      -0.539  13.031  19.288  0.00  0.00    +0.000 OA
ATOM     18  N   UNL     1       0.607  12.236  19.192  0.00  0.00    +0.000 NA
ENDBRANCH  11  14
ENDBRANCH   6   8
BRANCH   1  20
ATOM     19  C   UNL     1       3.952   2.707  17.665  0.00  0.00    +0.000 C 
ATOM     20  C   UNL     1       4.340   2.925  19.131  0.00  0.00    +0.000 C 
ATOM     21  C   UNL     1       4.735   1.558  19.736  0.00  0.00    +0.000 C 
BRANCH  20  22
ATOM     22  O   UNL     1       5.542   3.695  19.230  0.00  0.00    +0.000 OA
ATOM     23  H   UNL     1       6.168   3.376  18.559  0.00  0.00    +0.000 HD
ENDBRANCH  20  22
ENDBRANCH   1  20
TORSDOF 4
ENDMDL
MODEL 3
REMARK VINA RESULT:      -7.0      2.262      2.739
REMARK  Name = 
REMARK  6 active torsions:
REMARK  status: ('A' for Active; 'I' for Inactive)
REMARK    1  A    between atoms: C_1  and  C_2
REMARK    2  A    between atoms: C_2  and  C_3
REMARK    3  A    between atoms: C_2  and  O_4
REMARK    4  A    between atoms: C_2  and  C_5
REMARK    5  A    between atoms: C_10  and  C_12
REMARK    6  A    between atoms: C_15  and  C_16
REMARK                            x       y       z     vdW  Elec       q    Type
REMARK                         _______ _______ _______ _____ _____    ______ ____
ROOT
ATOM      1  C   UNL     1       4.342   4.521  17.329  0.00  0.00    +0.000 C 
ATOM      2  C   UNL     1       3.463   3.364  16.818  0.00  0.00    +0.000 C 
ATOM      3  C   UNL     1       2.316   3.317  17.800  0.00  0.00    +0.000 C 
ATOM      4  C   UNL     1       2.135   4.763  18.218  0.00  0.00    +0.000 C 
ATOM      5  N   UNL     1       3.310   5.501  17.760  0.00  0.00    +0.000 N 
ATOM      6  C   UNL     1       3.468   6.890  17.876  0.00  0.00    +0.000 C 
ATOM      7  O   UNL     1       4.393   7.511  17.349  0.00  0.00    +0.000 OA
ENDROOT
BRANCH   6   8
ATOM      8  C   UNL     1       2.453   7.727  18.629  0.00  0.00    +0.000 A 
ATOM      9  C   UNL     1       2.134   7.527  19.977  0.00  0.00    +0.000 A 
ATOM     10  C   UNL     1       1.204   8.332  20.645  0.00  0.00    +0.000 A 
ATOM     11  C   UNL     1       0.645   9.450  20.025  0.00  0.00    +0.000 A 
ATOM     12  C   UNL     1       0.987   9.699  18.689  0.00  0.00    +0.000 A 
ATOM     13  C   UNL     1       1.873   8.841  17.999  0.00  0.00    +0.000 A 
BRANCH  11  14
ATOM     14  C   UNL     1      -0.185  10.354  20.818  0.00  0.00    +0.000 A 
ATOM     15  N   UNL     1      -0.166  10.324  22.202  0.00  0.00    +0.000 NA
ATOM     16  C   UNL     1      -0.934  11.332  22.517  0.00  0.00    +0.000 A 
ATOM     17  O   UNL     1      -1.451  11.983  21.446  0.00  0.00    +0.000 OA
ATOM     18  N   UNL     1      -0.959  11.331  20.312  0.00  0.00    +0.000 NA
ENDBRANCH  11  14
ENDBRANCH   6   8
BRANCH   1  20
ATOM     19  C   UNL     1       5.997   3.630  15.524  0.00  0.00    +0.000 C 
ATOM     20  C   UNL     1       5.520   4.831  16.345  0.00  0.00    +0.000 C 
ATOM     21  C   UNL     1       6.722   5.380  17.147  0.00  0.00    +0.000 C 
BRANCH  20  22
ATOM     22  O   UNL     1       5.162   5.922  15.490  0.00  0.00    +0.000 OA
ATOM     23  H   UNL     1       5.976   6.368  15.203  0.00  0.00    +0.000 HD
ENDBRANCH  20  22
ENDBRANCH   1  20
TORSDOF 4
ENDMDL
MODEL 4
REMARK VINA RESULT:      -7.0      2.066      2.578
REMARK  Name = 
REMARK  6 active torsions:
REMARK  status: ('A' for Active; 'I' for Inactive)
REMARK    1  A    between atoms: C_1  and  C_2
REMARK    2  A    between atoms: C_2  and  C_3
REMARK    3  A    between atoms: C_2  and  O_4
REMARK    4  A    between atoms: C_2  and  C_5
REMARK    5  A    between atoms: C_10  and  C_12
REMARK    6  A    between atoms: C_15  and  C_16
REMARK                            x       y       z     vdW  Elec       q    Type
REMARK                         _______ _______ _______ _____ _____    ______ ____
ROOT
ATOM      1  C   UNL     1       4.190   4.129  17.539  0.00  0.00    +0.000 C 
ATOM      2  C   UNL     1       3.228   3.076  16.957  0.00  0.00    +0.000 C 
ATOM      3  C   UNL     1       1.987   3.206  17.808  0.00  0.00    +0.000 C 
ATOM      4  C   UNL     1       1.950   4.676  18.176  0.00  0.00    +0.000 C 
ATOM      5  N   UNL     1       3.253   5.245  17.837  0.00  0.00    +0.000 N 
ATOM      6  C   UNL     1       3.574   6.606  17.943  0.00  0.00    +0.000 C 
ATOM      7  O   UNL     1       4.622   7.087  17.509  0.00  0.00    +0.000 OA
ENDROOT
BRANCH   6   8
ATOM      8  C   UNL     1       2.601   7.587  18.565  0.00  0.00    +0.000 A 
ATOM      9  C   UNL     1       2.205   7.538  19.906  0.00  0.00    +0.000 A 
ATOM     10  C   UNL     1       1.318   8.475  20.450  0.00  0.00    +0.000 A 
ATOM     11  C   UNL     1       0.885   9.572  19.705  0.00  0.00    +0.000 A 
ATOM     12  C   UNL     1       1.308   9.669  18.373  0.00  0.00    +0.000 A 
ATOM     13  C   UNL     1       2.149   8.682  17.809  0.00  0.00    +0.000 A 
BRANCH  11  14
ATOM     14  C   UNL     1       0.101  10.610  20.371  0.00  0.00    +0.000 A 
ATOM     15  N   UNL     1      -1.028  11.153  19.781  0.00  0.00    +0.000 NA
ATOM     16  C   UNL     1      -1.488  11.937  20.717  0.00  0.00    +0.000 A 
ATOM     17  O   UNL     1      -0.732  11.947  21.844  0.00  0.00    +0.000 OA
ATOM     18  N   UNL     1       0.331  11.069  21.614  0.00  0.00    +0.000 NA
ENDBRANCH  11  14
ENDBRANCH   6   8
BRANCH   1  20
ATOM     19  C   UNL     1       6.705   4.804  17.447  0.00  0.00    +0.000 C 
ATOM     20  C   UNL     1       5.496   4.256  16.684  0.00  0.00    +0.000 C 
ATOM     21  C   UNL     1       5.224   5.181  15.475  0.00  0.00    +0.000 C 
BRANCH  20  22
ATOM     22  O   UNL     1       5.803   2.996  16.080  0.00  0.00    +0.000 OA
ATOM     23  H   UNL     1       6.626   2.659  16.472  0.00  0.00    +0.000 HD
ENDBRANCH  20  22
ENDBRANCH   1  20
TORSDOF 4
ENDMDL
MODEL 5
REMARK VINA RESULT:      -6.9      0.913      1.160
REMARK  Name = 
REMARK  6 active torsions:
REMARK  status: ('A' for Active; 'I' for Inactive)
REMARK    1  A    between atoms: C_1  and  C_2
REMARK    2  A    between atoms: C_2  and  C_3
REMARK    3  A    between atoms: C_2  and  O_4
REMARK    4  A    between atoms: C_2  and  C_5
REMARK    5  A    between atoms: C_10  and  C_12
REMARK    6  A    between atoms: C_15  and  C_16
REMARK                            x       y       z     vdW  Elec       q    Type
REMARK                         _______ _______ _______ _____ _____    ______ ____
ROOT
ATOM      1  C   UNL     1       3.523   4.075  20.007  0.00  0.00    +0.000 C 
ATOM      2  C   UNL     1       2.482   2.956  20.204  0.00  0.00    +0.000 C 
ATOM      3  C   UNL     1       1.360   3.632  20.956  0.00  0.00    +0.000 C 
ATOM      4  C   UNL     1       1.389   5.060  20.449  0.00  0.00    +0.000 C 
ATOM      5  N   UNL     1       2.645   5.242  19.725  0.00  0.00    +0.000 N 
ATOM      6  C   UNL     1       2.995   6.407  19.027  0.00  0.00    +0.000 C 
ATOM      7  O   UNL     1       3.986   6.485  18.299  0.00  0.00    +0.000 OA
ENDROOT
BRANCH   6   8
ATOM      8  C   UNL     1       2.121   7.643  19.091  0.00  0.00    +0.000 A 
ATOM      9  C   UNL     1       1.655   8.198  20.287  0.00  0.00    +0.000 A 
ATOM     10  C   UNL     1       0.864   9.354  20.309  0.00  0.00    +0.000 A 
ATOM     11  C   UNL     1       0.608  10.071  19.139  0.00  0.00    +0.000 A 
ATOM     12  C   UNL     1       1.107   9.559  17.934  0.00  0.00    +0.000 A 
ATOM     13  C   UNL     1       1.846   8.355  17.911  0.00  0.00    +0.000 A 
BRANCH  11  14
ATOM     14  C   UNL     1      -0.075  11.359  19.239  0.00  0.00    +0.000 A 
ATOM     15  N   UNL     1       0.516  12.526  18.786  0.00  0.00    +0.000 NA
ATOM     16  C   UNL     1      -0.435  13.405  18.947  0.00  0.00    +0.000 A 
ATOM     17  O   UNL     1      -1.571  12.892  19.482  0.00  0.00    +0.000 OA
ATOM     18  N   UNL     1      -1.333  11.530  19.684  0.00  0.00    +0.000 NA
ENDBRANCH  11  14
ENDBRANCH   6   8
BRANCH   1  20
ATOM     19  C   UNL     1       5.888   4.586  19.038  0.00  0.00    +0.000 C 
ATOM     20  C   UNL     1       4.713   3.606  19.103  0.00  0.00    +0.000 C 
ATOM     21  C   UNL     1       4.196   3.373  17.664  0.00  0.00    +0.000 C 
BRANCH  20  22
ATOM     22  O   UNL     1       5.153   2.309  19.516  0.00  0.00    +0.000 OA
ATOM     23  H   UNL     1       4.613   1.642  19.061  0.00  0.00    +0.000 HD
ENDBRANCH  20  22
ENDBRANCH   1  20
TORSDOF 4
ENDMDL
MODEL 6
REMARK VINA RESULT:      -6.9      0.965      1.414
REMARK  Name = 
REMARK  6 active torsions:
REMARK  status: ('A' for Active; 'I' for Inactive)
REMARK    1  A    between atoms: C_1  and  C_2
REMARK    2  A    between atoms: C_2  and  C_3
REMARK    3  A    between atoms: C_2  and  O_4
REMARK    4  A    between atoms: C_2  and  C_5
REMARK    5  A    between atoms: C_10  and  C_12
REMARK    6  A    between atoms: C_15  and  C_16
REMARK                            x       y       z     vdW  Elec       q    Type
REMARK                         _______ _______ _______ _____ _____    ______ ____
ROOT
ATOM      1  C   UNL     1       2.945   3.392  19.463  0.00  0.00    +0.000 C 
ATOM      2  C   UNL     1       1.795   2.490  19.951  0.00  0.00    +0.000 C 
ATOM      3  C   UNL     1       1.148   3.292  21.056  0.00  0.00    +0.000 C 
ATOM      4  C   UNL     1       1.337   4.732  20.620  0.00  0.00    +0.000 C 
ATOM      5  N   UNL     1       2.310   4.735  19.530  0.00  0.00    +0.000 N 
ATOM      6  C   UNL     1       2.675   5.874  18.798  0.00  0.00    +0.000 C 
ATOM      7  O   UNL     1       3.378   5.830  17.787  0.00  0.00    +0.000 OA
ENDROOT
BRANCH   6   8
ATOM      8  C   UNL     1       2.167   7.246  19.192  0.00  0.00    +0.000 A 
ATOM      9  C   UNL     1       1.932   8.276  18.275  0.00  0.00    +0.000 A 
ATOM     10  C   UNL     1       1.444   9.527  18.674  0.00  0.00    +0.000 A 
ATOM     11  C   UNL     1       1.056   9.758  19.994  0.00  0.00    +0.000 A 
ATOM     12  C   UNL     1       1.237   8.723  20.922  0.00  0.00    +0.000 A 
ATOM     13  C   UNL     1       1.794   7.487  20.525  0.00  0.00    +0.000 A 
BRANCH  11  14
ATOM     14  C   UNL     1       0.394  11.018  20.323  0.00  0.00    +0.000 A 
ATOM     15  N   UNL     1       0.901  11.870  21.289  0.00  0.00    +0.000 NA
ATOM     16  C   UNL     1       0.107  12.903  21.201  0.00  0.00    +0.000 A 
ATOM     17  O   UNL     1      -0.871  12.764  20.271  0.00  0.00    +0.000 OA
ATOM     18  N   UNL     1      -0.687  11.507  19.689  0.00  0.00    +0.000 NA
ENDBRANCH  11  14
ENDBRANCH   6   8
BRANCH   1  20
ATOM     19  C   UNL     1       2.864   2.947  16.896  0.00  0.00    +0.000 C 
ATOM     20  C   UNL     1       3.653   2.794  18.200  0.00  0.00    +0.000 C 
ATOM     21  C   UNL     1       3.921   1.290  18.432  0.00  0.00    +0.000 C 
BRANCH  20  22
ATOM     22  O   UNL     1       4.964   3.353  18.071  0.00  0.00    +0.000 OA
ATOM     23  H   UNL     1       5.292   3.576  18.958  0.00  0.00    +0.000 HD
ENDBRANCH  20  22
ENDBRANCH   1  20
TORSDOF 4
ENDMDL
MODEL 7
REMARK VINA RESULT:      -6.9      3.052      7.479
REMARK  Name = 
REMARK  6 active torsions:
REMARK  status: ('A' for Active; 'I' for Inactive)
REMARK    1  A    between atoms: C_1  and  C_2
REMARK    2  A    between atoms: C_2  and  C_3
REMARK    3  A    between atoms: C_2  and  O_4
REMARK    4  A    between atoms: C_2  and  C_5
REMARK    5  A    between atoms: C_10  and  C_12
REMARK    6  A    between atoms: C_15  and  C_16
REMARK                            x       y       z     vdW  Elec       q    Type
REMARK                         _______ _______ _______ _____ _____    ______ ____
ROOT
ATOM      1  C   UNL     1       0.561  10.092  20.567  0.00  0.00    +0.000 C 
ATOM      2  C   UNL     1      -0.611  10.663  19.746  0.00  0.00    +0.000 C 
ATOM      3  C   UNL     1      -0.065  10.747  18.340  0.00  0.00    +0.000 C 
ATOM      4  C   UNL     1       0.901   9.582  18.255  0.00  0.00    +0.000 C 
ATOM      5  N   UNL     1       1.123   9.097  19.615  0.00  0.00    +0.000 N 
ATOM      6  C   UNL     1       1.885   7.964  19.937  0.00  0.00    +0.000 C 
ATOM      7  O   UNL     1       1.935   7.484  21.071  0.00  0.00    +0.000 OA
ENDROOT
BRANCH   6   8
ATOM      8  C   UNL     1       2.664   7.222  18.869  0.00  0.00    +0.000 A 
ATOM      9  C   UNL     1       3.433   7.860  17.890  0.00  0.00    +0.000 A 
ATOM     10  C   UNL     1       4.155   7.140  16.930  0.00  0.00    +0.000 A 
ATOM     11  C   UNL     1       4.234   5.748  16.986  0.00  0.00    +0.000 A 
ATOM     12  C   UNL     1       3.510   5.089  17.989  0.00  0.00    +0.000 A 
ATOM     13  C   UNL     1       2.728   5.819  18.912  0.00  0.00    +0.000 A 
BRANCH  11  14
ATOM     14  C   UNL     1       5.137   5.057  16.068  0.00  0.00    +0.000 A 
ATOM     15  N   UNL     1       5.906   5.753  15.151  0.00  0.00    +0.000 NA
ATOM     16  C   UNL     1       6.634   4.810  14.619  0.00  0.00    +0.000 A 
ATOM     17  O   UNL     1       6.374   3.573  15.111  0.00  0.00    +0.000 OA
ATOM     18  N   UNL     1       5.372   3.733  16.072  0.00  0.00    +0.000 NA
ENDBRANCH  11  14
ENDBRANCH   6   8
BRANCH   1  20
ATOM     19  C   UNL     1      -0.757   8.553  22.206  0.00  0.00    +0.000 C 
ATOM     20  C   UNL     1       0.139   9.784  22.043  0.00  0.00    +0.000 C 
ATOM     21  C   UNL     1      -0.607  11.008  22.624  0.00  0.00    +0.000 C 
BRANCH  20  22
ATOM     22  O   UNL     1       1.304   9.679  22.867  0.00  0.00    +0.000 OA
ATOM     23  H   UNL     1       1.491   8.737  23.015  0.00  0.00    +0.000 HD
ENDBRANCH  20  22
ENDBRANCH   1  20
TORSDOF 4
ENDMDL
MODEL 8
REMARK VINA RESULT:      -6.9      1.048      1.623
REMARK  Name = 
REMARK  6 active torsions:
REMARK  status: ('A' for Active; 'I' for Inactive)
REMARK    1  A    between atoms: C_1  and  C_2
REMARK    2  A    between atoms: C_2  and  C_3
REMARK    3  A    between atoms: C_2  and  O_4
REMARK    4  A    between atoms: C_2  and  C_5
REMARK    5  A    between atoms: C_10  and  C_12
REMARK    6  A    between atoms: C_15  and  C_16
REMARK                            x       y       z     vdW  Elec       q    Type
REMARK                         _______ _______ _______ _____ _____    ______ ____
ROOT
ATOM      1  C   UNL     1       3.394   3.935  19.887  0.00  0.00    +0.000 C 
ATOM      2  C   UNL     1       2.290   2.868  20.018  0.00  0.00    +0.000 C 
ATOM      3  C   UNL     1       1.196   3.569  20.788  0.00  0.00    +0.000 C 
ATOM      4  C   UNL     1       1.311   5.015  20.349  0.00  0.00    +0.000 C 
ATOM      5  N   UNL     1       2.586   5.161  19.651  0.00  0.00    +0.000 N 
ATOM      6  C   UNL     1       3.010   6.335  19.012  0.00  0.00    +0.000 C 
ATOM      7  O   UNL     1       4.014   6.392  18.301  0.00  0.00    +0.000 OA
ENDROOT
BRANCH   6   8
ATOM      8  C   UNL     1       2.204   7.614  19.124  0.00  0.00    +0.000 A 
ATOM      9  C   UNL     1       1.833   8.392  18.023  0.00  0.00    +0.000 A 
ATOM     10  C   UNL     1       1.071   9.559  18.163  0.00  0.00    +0.000 A 
ATOM     11  C   UNL     1       0.547   9.930  19.402  0.00  0.00    +0.000 A 
ATOM     12  C   UNL     1       0.866   9.137  20.513  0.00  0.00    +0.000 A 
ATOM     13  C   UNL     1       1.692   8.000  20.375  0.00  0.00    +0.000 A 
BRANCH  11  14
ATOM     14  C   UNL     1      -0.381  11.056  19.466  0.00  0.00    +0.000 A 
ATOM     15  N   UNL     1      -0.873  11.521  20.673  0.00  0.00    +0.000 NA
ATOM     16  C   UNL     1      -1.556  12.574  20.315  0.00  0.00    +0.000 A 
ATOM     17  O   UNL     1      -1.552  12.801  18.978  0.00  0.00    +0.000 OA
ATOM     18  N   UNL     1      -0.775  11.788  18.408  0.00  0.00    +0.000 NA
ENDBRANCH  11  14
ENDBRANCH   6   8
BRANCH   1  20
ATOM     19  C   UNL     1       5.763   4.399  18.907  0.00  0.00    +0.000 C 
ATOM     20  C   UNL     1       4.569   3.443  18.976  0.00  0.00    +0.000 C 
ATOM     21  C   UNL     1       4.041   3.221  17.540  0.00  0.00    +0.000 C 
BRANCH  20  22
ATOM     22  O   UNL     1       4.985   2.137  19.386  0.00  0.00    +0.000 OA
ATOM     23  H   UNL     1       4.467   1.480  18.892  0.00  0.00    +0.000 HD
ENDBRANCH  20  22
ENDBRANCH   1  20
TORSDOF 4
ENDMDL
MODEL 9
REMARK VINA RESULT:      -6.8      2.054      2.634
REMARK  Name = 
REMARK  6 active torsions:
REMARK  status: ('A' for Active; 'I' for Inactive)
REMARK    1  A    between atoms: C_1  and  C_2
REMARK    2  A    between atoms: C_2  and  C_3
REMARK    3  A    between atoms: C_2  and  O_4
REMARK    4  A    between atoms: C_2  and  C_5
REMARK    5  A    between atoms: C_10  and  C_12
REMARK    6  A    between atoms: C_15  and  C_16
REMARK                            x       y       z     vdW  Elec       q    Type
REMARK                         _______ _______ _______ _____ _____    ______ ____
ROOT
ATOM      1  C   UNL     1       4.080   4.258  17.619  0.00  0.00    +0.000 C 
ATOM      2  C   UNL     1       3.102   3.226  17.026  0.00  0.00    +0.000 C 
ATOM      3  C   UNL     1       1.833   3.430  17.818  0.00  0.00    +0.000 C 
ATOM      4  C   UNL     1       1.839   4.911  18.142  0.00  0.00    +0.000 C 
ATOM      5  N   UNL     1       3.177   5.418  17.843  0.00  0.00    +0.000 N 
ATOM      6  C   UNL     1       3.548   6.768  17.923  0.00  0.00    +0.000 C 
ATOM      7  O   UNL     1       4.631   7.195  17.521  0.00  0.00    +0.000 OA
ENDROOT
BRANCH   6   8
ATOM      8  C   UNL     1       2.590   7.806  18.473  0.00  0.00    +0.000 A 
ATOM      9  C   UNL     1       1.987   8.795  17.688  0.00  0.00    +0.000 A 
ATOM     10  C   UNL     1       1.091   9.725  18.228  0.00  0.00    +0.000 A 
ATOM     11  C   UNL     1       0.668   9.629  19.554  0.00  0.00    +0.000 A 
ATOM     12  C   UNL     1       1.222   8.616  20.348  0.00  0.00    +0.000 A 
ATOM     13  C   UNL     1       2.178   7.722  19.814  0.00  0.00    +0.000 A 
BRANCH  11  14
ATOM     14  C   UNL     1      -0.395  10.517  20.020  0.00  0.00    +0.000 A 
ATOM     15  N   UNL     1      -0.450  10.950  21.333  0.00  0.00    +0.000 NA
ATOM     16  C   UNL     1      -1.450  11.789  21.313  0.00  0.00    +0.000 A 
ATOM     17  O   UNL     1      -2.043  11.906  20.098  0.00  0.00    +0.000 OA
ATOM     18  N   UNL     1      -1.347  11.054  19.236  0.00  0.00    +0.000 NA
ENDBRANCH  11  14
ENDBRANCH   6   8
BRANCH   1  20
ATOM     19  C   UNL     1       6.625   4.819  17.620  0.00  0.00    +0.000 C 
ATOM     20  C   UNL     1       5.425   4.308  16.818  0.00  0.00    +0.000 C 
ATOM     21  C   UNL     1       5.246   5.217  15.580  0.00  0.00    +0.000 C 
BRANCH  20  22
ATOM     22  O   UNL     1       5.700   3.022  16.254  0.00  0.00    +0.000 OA
ATOM     23  H   UNL     1       5.932   2.413  16.974  0.00  0.00    +0.000 HD
ENDBRANCH  20  22
ENDBRANCH   1  20
TORSDOF 4
ENDMDL
