MODEL 1
REMARK VINA RESULT:      -7.5      0.000      0.000
REMARK  Name = 
REMARK  7 active torsions:
REMARK  status: ('A' for Active; 'I' for Inactive)
REMARK    1  A    between atoms: N_1  and  C_2
REMARK    2  A    between atoms: N_10  and  C_11
REMARK    3  A    between atoms: C_11  and  C_12
REMARK    4  A    between atoms: C_14  and  O_15
REMARK    5  A    between atoms: C_16  and  O_17
REMARK    6  A    between atoms: C_18  and  C_19
REMARK    7  A    between atoms: C_19  and  O_21
REMARK                            x       y       z     vdW  Elec       q    Type
REMARK                         _______ _______ _______ _____ _____    ______ ____
ROOT
ATOM      1  C   UNK A   0       3.957   3.285  17.697  0.00  0.00    +0.000 A 
ATOM      2  N   UNK A   1       2.783   3.655  17.147  0.00  0.00    +0.000 NA
ATOM      3  C   UNK A   1       1.731   3.655  17.978  0.00  0.00    +0.000 A 
ATOM      4  C   UNK A   1       1.743   3.312  19.306  0.00  0.00    +0.000 A 
ATOM      5  C   UNK A   1       2.984   2.958  19.772  0.00  0.00    +0.000 A 
ATOM      6  N   UNK A   1       4.112   2.945  18.992  0.00  0.00    +0.000 NA
ENDROOT
BRANCH   3   7
ATOM      7  O   UNK A   1       0.556   4.036  17.400  0.00  0.00    +0.000 OA
ATOM      8  H   UNK A   1       0.866   4.644  16.705  0.00  0.00    +0.000 HD
ENDBRANCH   3   7
BRANCH   4   9
ATOM      9  O   UNK A   1       0.605   3.337  20.044  0.00  0.00    +0.000 OA
ATOM     10  H   UNK A   1      -0.005   3.973  19.618  0.00  0.00    +0.000 HD
ENDBRANCH   4   9
BRANCH   5  11
ATOM     11  C   UNK A   1       3.221   2.539  21.190  0.00  0.00    +0.000 C 
ATOM     12  O   UNK A   1       2.472   2.695  22.137  0.00  0.00    +0.000 OA
BRANCH  11  13
ATOM     13  O   UNK A   1       4.436   1.938  21.300  0.00  0.00    +0.000 OA
ATOM     14  H   UNK A   1       4.400   1.240  21.995  0.00  0.00    +0.000 HD
ENDBRANCH  11  13
ENDBRANCH   5  11
BRANCH   1  15
ATOM     15  C   UNK A   0       5.165   3.242  16.799  0.00  0.00    +0.000 C 
BRANCH  15  24
ATOM     16  C   UNK A   0       7.558   7.340  17.733  0.00  0.00    +0.000 A 
ATOM     17  N   UNK A   0       8.194   6.861  18.827  0.00  0.00    +0.000 NA
ATOM     18  C   UNK A   0       7.985   5.573  19.180  0.00  0.00    +0.000 A 
ATOM     19  N   UNK A   0       7.202   4.653  18.576  0.00  0.00    +0.000 NA
ATOM     20  C   UNK A   0       6.611   5.174  17.488  0.00  0.00    +0.000 A 
ATOM     21  C   UNK A   0       6.739   6.464  16.999  0.00  0.00    +0.000 A 
ATOM     22  N   UNK A   0       5.994   6.626  15.848  0.00  0.00    +0.000 NA
ATOM     23  C   UNK A   0       5.404   5.464  15.661  0.00  0.00    +0.000 A 
ATOM     24  N   UNK A   0       5.734   4.562  16.636  0.00  0.00    +0.000 N 
BRANCH  16  25
ATOM     25  N   UNK A   0       7.747   8.673  17.394  0.00  0.00    +0.000 N 
ATOM     26  H   UNK A   0       8.699   8.872  17.119  0.00  0.00    +0.000 HD
ATOM     27  H   UNK A   0       6.998   9.065  16.835  0.00  0.00    +0.000 HD
ENDBRANCH  16  25
ENDBRANCH  15  24
ENDBRANCH   1  15
TORSDOF 7
ENDMDL
MODEL 2
REMARK VINA RESULT:      -7.5      1.564      1.885
REMARK  Name = 
REMARK  7 active torsions:
REMARK  status: ('A' for Active; 'I' for Inactive)
REMARK    1  A    between atoms: N_1  and  C_2
REMARK    2  A    between atoms: N_10  and  C_11
REMARK    3  A    between atoms: C_11  and  C_12
REMARK    4  A    between atoms: C_14  and  O_15
REMARK    5  A    between atoms: C_16  and  O_17
REMARK    6  A    between atoms: C_18  and  C_19
REMARK    7  A    between atoms: C_19  and  O_21
REMARK                            x       y       z     vdW  Elec       q    Type
REMARK                         _______ _______ _______ _____ _____    ______ ____
ROOT
ATOM      1  C   UNK A   0       3.656   3.491  17.663  0.00  0.00    +0.000 A 
ATOM      2  N   UNK A   1       2.814   2.439  17.717  0.00  0.00    +0.000 NA
ATOM      3  C   UNK A   1       1.774   2.575  18.551  0.00  0.00    +0.000 A 
ATOM      4  C   UNK A   1       1.501   3.662  19.341  0.00  0.00    +0.000 A 
ATOM      5  C   UNK A   1       2.410   4.682  19.208  0.00  0.00    +0.000 A 
ATOM      6  N   UNK A   1       3.492   4.628  18.368  0.00  0.00    +0.000 NA
ENDROOT
BRANCH   3   7
ATOM      7  O   UNK A   1       0.935   1.500  18.587  0.00  0.00    +0.000 OA
ATOM      8  H   UNK A   1       1.016   1.218  19.516  0.00  0.00    +0.000 HD
ENDBRANCH   3   7
BRANCH   4   9
ATOM      9  O   UNK A   1       0.419   3.677  20.159  0.00  0.00    +0.000 OA
ATOM     10  H   UNK A   1       0.183   2.747  20.347  0.00  0.00    +0.000 HD
ENDBRANCH   4   9
BRANCH   5  11
ATOM     11  C   UNK A   1       2.307   5.958  19.985  0.00  0.00    +0.000 C 
ATOM     12  O   UNK A   1       2.254   7.089  19.536  0.00  0.00    +0.000 OA
BRANCH  11  13
ATOM     13  O   UNK A   1       2.282   5.690  21.317  0.00  0.00    +0.000 OA
ATOM     14  H   UNK A   1       2.058   6.509  21.818  0.00  0.00    +0.000 HD
ENDBRANCH  11  13
ENDBRANCH   5  11
BRANCH   1  15
ATOM     15  C   UNK A   0       4.856   3.377  16.760  0.00  0.00    +0.000 C 
BRANCH  15  24
ATOM     16  C   UNK A   0       7.527   7.295  17.711  0.00  0.00    +0.000 A 
ATOM     17  N   UNK A   0       8.144   6.761  18.789  0.00  0.00    +0.000 NA
ATOM     18  C   UNK A   0       7.856   5.485  19.129  0.00  0.00    +0.000 A 
ATOM     19  N   UNK A   0       7.005   4.627  18.525  0.00  0.00    +0.000 NA
ATOM     20  C   UNK A   0       6.436   5.200  17.453  0.00  0.00    +0.000 A 
ATOM     21  C   UNK A   0       6.642   6.485  16.978  0.00  0.00    +0.000 A 
ATOM     22  N   UNK A   0       5.894   6.711  15.839  0.00  0.00    +0.000 NA
ATOM     23  C   UNK A   0       5.226   5.593  15.646  0.00  0.00    +0.000 A 
ATOM     24  N   UNK A   0       5.509   4.659  16.606  0.00  0.00    +0.000 N 
BRANCH  16  25
ATOM     25  N   UNK A   0       7.799   8.617  17.385  0.00  0.00    +0.000 N 
ATOM     26  H   UNK A   0       7.006   9.225  17.536  0.00  0.00    +0.000 HD
ATOM     27  H   UNK A   0       8.710   8.937  17.692  0.00  0.00    +0.000 HD
ENDBRANCH  16  25
ENDBRANCH  15  24
ENDBRANCH   1  15
TORSDOF 7
ENDMDL
MODEL 3
REMARK VINA RESULT:      -7.1      4.603      5.711
REMARK  Name = 
REMARK  7 active torsions:
REMARK  status: ('A' for Active; 'I' for Inactive)
REMARK    1  A    between atoms: N_1  and  C_2
REMARK    2  A    between atoms: N_10  and  C_11
REMARK    3  A    between atoms: C_11  and  C_12
REMARK    4  A    between atoms: C_14  and  O_15
REMARK    5  A    between atoms: C_16  and  O_17
REMARK    6  A    between atoms: C_18  and  C_19
REMARK    7  A    between atoms: C_19  and  O_21
REMARK                            x       y       z     vdW  Elec       q    Type
REMARK                         _______ _______ _______ _____ _____    ______ ____
ROOT
ATOM      1  C   UNK A   0       4.328   5.186  18.561  0.00  0.00    +0.000 A 
ATOM      2  N   UNK A   1       4.421   4.487  17.412  0.00  0.00    +0.000 NA
ATOM      3  C   UNK A   1       5.667   4.188  17.018  0.00  0.00    +0.000 A 
ATOM      4  C   UNK A   1       6.828   4.529  17.663  0.00  0.00    +0.000 A 
ATOM      5  C   UNK A   1       6.628   5.232  18.825  0.00  0.00    +0.000 A 
ATOM      6  N   UNK A   1       5.387   5.566  19.304  0.00  0.00    +0.000 NA
ENDROOT
BRANCH   3   7
ATOM      7  O   UNK A   1       5.736   3.478  15.856  0.00  0.00    +0.000 OA
ATOM      8  H   UNK A   1       5.485   4.152  15.198  0.00  0.00    +0.000 HD
ENDBRANCH   3   7
BRANCH   4   9
ATOM      9  O   UNK A   1       8.037   4.180  17.157  0.00  0.00    +0.000 OA
ATOM     10  H   UNK A   1       8.287   3.325  17.561  0.00  0.00    +0.000 HD
ENDBRANCH   4   9
BRANCH   5  11
ATOM     11  C   UNK A   1       7.758   5.712  19.681  0.00  0.00    +0.000 C 
ATOM     12  O   UNK A   1       8.093   5.276  20.768  0.00  0.00    +0.000 OA
BRANCH  11  13
ATOM     13  O   UNK A   1       8.398   6.745  19.070  0.00  0.00    +0.000 OA
ATOM     14  H   UNK A   1       7.778   7.505  18.967  0.00  0.00    +0.000 HD
ENDBRANCH  11  13
ENDBRANCH   5  11
BRANCH   1  15
ATOM     15  C   UNK A   0       2.951   5.571  19.032  0.00  0.00    +0.000 C 
BRANCH  15  24
ATOM     16  C   UNK A   0       1.041  10.012  19.190  0.00  0.00    +0.000 A 
ATOM     17  N   UNK A   0       0.562   9.892  20.449  0.00  0.00    +0.000 NA
ATOM     18  C   UNK A   0       0.801   8.744  21.122  0.00  0.00    +0.000 A 
ATOM     19  N   UNK A   0       1.477   7.651  20.705  0.00  0.00    +0.000 NA
ATOM     20  C   UNK A   0       1.946   7.831  19.460  0.00  0.00    +0.000 A 
ATOM     21  C   UNK A   0       1.793   8.950  18.657  0.00  0.00    +0.000 A 
ATOM     22  N   UNK A   0       2.432   8.774  17.445  0.00  0.00    +0.000 NA
ATOM     23  C   UNK A   0       2.938   7.559  17.504  0.00  0.00    +0.000 A 
ATOM     24  N   UNK A   0       2.655   6.946  18.695  0.00  0.00    +0.000 N 
BRANCH  16  25
ATOM     25  N   UNK A   0       0.765  11.178  18.489  0.00  0.00    +0.000 N 
ATOM     26  H   UNK A   0       1.020  12.010  19.004  0.00  0.00    +0.000 HD
ATOM     27  H   UNK A   0       1.006  11.134  17.506  0.00  0.00    +0.000 HD
ENDBRANCH  16  25
ENDBRANCH  15  24
ENDBRANCH   1  15
TORSDOF 7
ENDMDL
MODEL 4
REMARK VINA RESULT:      -7.0      1.000      2.407
REMARK  Name = 
REMARK  7 active torsions:
REMARK  status: ('A' for Active; 'I' for Inactive)
REMARK    1  A    between atoms: N_1  and  C_2
REMARK    2  A    between atoms: N_10  and  C_11
REMARK    3  A    between atoms: C_11  and  C_12
REMARK    4  A    between atoms: C_14  and  O_15
REMARK    5  A    between atoms: C_16  and  O_17
REMARK    6  A    between atoms: C_18  and  C_19
REMARK    7  A    between atoms: C_19  and  O_21
REMARK                            x       y       z     vdW  Elec       q    Type
REMARK                         _______ _______ _______ _____ _____    ______ ____
ROOT
ATOM      1  C   UNK A   0       4.225   3.323  18.306  0.00  0.00    +0.000 A 
ATOM      2  N   UNK A   1       4.882   2.479  19.127  0.00  0.00    +0.000 NA
ATOM      3  C   UNK A   1       4.358   2.341  20.352  0.00  0.00    +0.000 A 
ATOM      4  C   UNK A   1       3.242   2.975  20.836  0.00  0.00    +0.000 A 
ATOM      5  C   UNK A   1       2.641   3.806  19.924  0.00  0.00    +0.000 A 
ATOM      6  N   UNK A   1       3.105   3.991  18.647  0.00  0.00    +0.000 NA
ENDROOT
BRANCH   3   7
ATOM      7  O   UNK A   1       5.038   1.481  21.163  0.00  0.00    +0.000 OA
ATOM      8  H   UNK A   1       4.400   1.346  21.887  0.00  0.00    +0.000 HD
ENDBRANCH   3   7
BRANCH   4   9
ATOM      9  O   UNK A   1       2.815   2.764  22.106  0.00  0.00    +0.000 OA
ATOM     10  H   UNK A   1       2.872   1.803  22.278  0.00  0.00    +0.000 HD
ENDBRANCH   4   9
BRANCH   5  11
ATOM     11  C   UNK A   1       1.414   4.601  20.246  0.00  0.00    +0.000 C 
ATOM     12  O   UNK A   1       1.349   5.799  20.455  0.00  0.00    +0.000 OA
BRANCH  11  13
ATOM     13  O   UNK A   1       0.327   3.784  20.282  0.00  0.00    +0.000 OA
ATOM     14  H   UNK A   1       0.322   3.274  21.125  0.00  0.00    +0.000 HD
ENDBRANCH  11  13
ENDBRANCH   5  11
BRANCH   1  15
ATOM     15  C   UNK A   0       4.788   3.533  16.926  0.00  0.00    +0.000 C 
BRANCH  15  24
ATOM     16  C   UNK A   0       7.515   7.406  17.903  0.00  0.00    +0.000 A 
ATOM     17  N   UNK A   0       8.267   6.789  18.844  0.00  0.00    +0.000 NA
ATOM     18  C   UNK A   0       8.036   5.482  19.096  0.00  0.00    +0.000 A 
ATOM     19  N   UNK A   0       7.126   4.664  18.524  0.00  0.00    +0.000 NA
ATOM     20  C   UNK A   0       6.423   5.319  17.586  0.00  0.00    +0.000 A 
ATOM     21  C   UNK A   0       6.555   6.647  17.211  0.00  0.00    +0.000 A 
ATOM     22  N   UNK A   0       5.670   6.959  16.199  0.00  0.00    +0.000 NA
ATOM     23  C   UNK A   0       4.995   5.849  15.985  0.00  0.00    +0.000 A 
ATOM     24  N   UNK A   0       5.404   4.838  16.812  0.00  0.00    +0.000 N 
BRANCH  16  25
ATOM     25  N   UNK A   0       7.732   8.758  17.670  0.00  0.00    +0.000 N 
ATOM     26  H   UNK A   0       7.996   9.258  18.508  0.00  0.00    +0.000 HD
ATOM     27  H   UNK A   0       8.243   8.951  16.818  0.00  0.00    +0.000 HD
ENDBRANCH  16  25
ENDBRANCH  15  24
ENDBRANCH   1  15
TORSDOF 7
ENDMDL
MODEL 5
REMARK VINA RESULT:      -6.9      4.736      6.120
REMARK  Name = 
REMARK  7 active torsions:
REMARK  status: ('A' for Active; 'I' for Inactive)
REMARK    1  A    between atoms: N_1  and  C_2
REMARK    2  A    between atoms: N_10  and  C_11
REMARK    3  A    between atoms: C_11  and  C_12
REMARK    4  A    between atoms: C_14  and  O_15
REMARK    5  A    between atoms: C_16  and  O_17
REMARK    6  A    between atoms: C_18  and  C_19
REMARK    7  A    between atoms: C_19  and  O_21
REMARK                            x       y       z     vdW  Elec       q    Type
REMARK                         _______ _______ _______ _____ _____    ______ ____
ROOT
ATOM      1  C   UNK A   0       4.244   5.467  18.702  0.00  0.00    +0.000 A 
ATOM      2  N   UNK A   1       5.266   5.556  19.576  0.00  0.00    +0.000 NA
ATOM      3  C   UNK A   1       6.463   5.183  19.103  0.00  0.00    +0.000 A 
ATOM      4  C   UNK A   1       6.731   4.722  17.839  0.00  0.00    +0.000 A 
ATOM      5  C   UNK A   1       5.628   4.676  17.024  0.00  0.00    +0.000 A 
ATOM      6  N   UNK A   1       4.372   5.053  17.426  0.00  0.00    +0.000 NA
ENDROOT
BRANCH   3   7
ATOM      7  O   UNK A   1       7.483   5.284  20.004  0.00  0.00    +0.000 OA
ATOM      8  H   UNK A   1       7.483   6.239  20.194  0.00  0.00    +0.000 HD
ENDBRANCH   3   7
BRANCH   4   9
ATOM      9  O   UNK A   1       7.987   4.359  17.480  0.00  0.00    +0.000 OA
ATOM     10  H   UNK A   1       8.161   3.480  17.875  0.00  0.00    +0.000 HD
ENDBRANCH   4   9
BRANCH   5  11
ATOM     11  C   UNK A   1       5.693   4.196  15.607  0.00  0.00    +0.000 C 
ATOM     12  O   UNK A   1       5.440   4.836  14.603  0.00  0.00    +0.000 OA
BRANCH  11  13
ATOM     13  O   UNK A   1       6.087   2.894  15.576  0.00  0.00    +0.000 OA
ATOM     14  H   UNK A   1       6.850   2.792  14.960  0.00  0.00    +0.000 HD
ENDBRANCH  11  13
ENDBRANCH   5  11
BRANCH   1  15
ATOM     15  C   UNK A   0       2.872   5.850  19.193  0.00  0.00    +0.000 C 
BRANCH  15  24
ATOM     16  C   UNK A   0       0.893  10.263  19.232  0.00  0.00    +0.000 A 
ATOM     17  N   UNK A   0       0.434  10.177  20.502  0.00  0.00    +0.000 NA
ATOM     18  C   UNK A   0       0.702   9.057  21.209  0.00  0.00    +0.000 A 
ATOM     19  N   UNK A   0       1.389   7.961  20.818  0.00  0.00    +0.000 NA
ATOM     20  C   UNK A   0       1.837   8.107  19.561  0.00  0.00    +0.000 A 
ATOM     21  C   UNK A   0       1.654   9.196  18.724  0.00  0.00    +0.000 A 
ATOM     22  N   UNK A   0       2.278   8.989  17.509  0.00  0.00    +0.000 NA
ATOM     23  C   UNK A   0       2.805   7.786  17.600  0.00  0.00    +0.000 A 
ATOM     24  N   UNK A   0       2.549   7.208  18.815  0.00  0.00    +0.000 N 
BRANCH  16  25
ATOM     25  N   UNK A   0       0.587  11.400  18.497  0.00  0.00    +0.000 N 
ATOM     26  H   UNK A   0      -0.346  11.371  18.108  0.00  0.00    +0.000 HD
ATOM     27  H   UNK A   0       0.897  12.264  18.928  0.00  0.00    +0.000 HD
ENDBRANCH  16  25
ENDBRANCH  15  24
ENDBRANCH   1  15
TORSDOF 7
ENDMDL
MODEL 6
REMARK VINA RESULT:      -6.7      3.803      5.578
REMARK  Name = 
REMARK  7 active torsions:
REMARK  status: ('A' for Active; 'I' for Inactive)
REMARK    1  A    between atoms: N_1  and  C_2
REMARK    2  A    between atoms: N_10  and  C_11
REMARK    3  A    between atoms: C_11  and  C_12
REMARK    4  A    between atoms: C_14  and  O_15
REMARK    5  A    between atoms: C_16  and  O_17
REMARK    6  A    between atoms: C_18  and  C_19
REMARK    7  A    between atoms: C_19  and  O_21
REMARK                            x       y       z     vdW  Elec       q    Type
REMARK                         _______ _______ _______ _____ _____    ______ ____
ROOT
ATOM      1  C   UNK A   0       4.585   4.082  17.661  0.00  0.00    +0.000 A 
ATOM      2  N   UNK A   1       4.662   4.012  16.317  0.00  0.00    +0.000 NA
ATOM      3  C   UNK A   1       5.716   4.629  15.767  0.00  0.00    +0.000 A 
ATOM      4  C   UNK A   1       6.697   5.317  16.436  0.00  0.00    +0.000 A 
ATOM      5  C   UNK A   1       6.533   5.324  17.799  0.00  0.00    +0.000 A 
ATOM      6  N   UNK A   1       5.492   4.705  18.440  0.00  0.00    +0.000 NA
ENDROOT
BRANCH   3   7
ATOM      7  O   UNK A   1       5.775   4.543  14.407  0.00  0.00    +0.000 OA
ATOM      8  H   UNK A   1       5.259   3.733  14.239  0.00  0.00    +0.000 HD
ENDBRANCH   3   7
BRANCH   4   9
ATOM      9  O   UNK A   1       7.711   5.916  15.764  0.00  0.00    +0.000 OA
ATOM     10  H   UNK A   1       7.677   6.871  15.975  0.00  0.00    +0.000 HD
ENDBRANCH   4   9
BRANCH   5  11
ATOM     11  C   UNK A   1       7.484   6.024  18.719  0.00  0.00    +0.000 C 
ATOM     12  O   UNK A   1       8.159   7.007  18.470  0.00  0.00    +0.000 OA
BRANCH  11  13
ATOM     13  O   UNK A   1       7.507   5.399  19.926  0.00  0.00    +0.000 OA
ATOM     14  H   UNK A   1       8.307   4.825  19.989  0.00  0.00    +0.000 HD
ENDBRANCH  11  13
ENDBRANCH   5  11
BRANCH   1  15
ATOM     15  C   UNK A   0       3.404   3.426  18.327  0.00  0.00    +0.000 C 
BRANCH  15  24
ATOM     16  C   UNK A   0       1.777   7.484  20.395  0.00  0.00    +0.000 A 
ATOM     17  N   UNK A   0       1.906   8.245  19.283  0.00  0.00    +0.000 NA
ATOM     18  C   UNK A   0       2.342   7.656  18.148  0.00  0.00    +0.000 A 
ATOM     19  N   UNK A   0       2.684   6.364  17.949  0.00  0.00    +0.000 NA
ATOM     20  C   UNK A   0       2.519   5.652  19.075  0.00  0.00    +0.000 A 
ATOM     21  C   UNK A   0       2.071   6.112  20.303  0.00  0.00    +0.000 A 
ATOM     22  N   UNK A   0       2.015   5.081  21.220  0.00  0.00    +0.000 NA
ATOM     23  C   UNK A   0       2.447   4.023  20.567  0.00  0.00    +0.000 A 
ATOM     24  N   UNK A   0       2.780   4.324  19.274  0.00  0.00    +0.000 N 
BRANCH  16  25
ATOM     25  N   UNK A   0       1.362   8.099  21.569  0.00  0.00    +0.000 N 
ATOM     26  H   UNK A   0       1.270   9.101  21.470  0.00  0.00    +0.000 HD
ATOM     27  H   UNK A   0       0.629   7.599  22.057  0.00  0.00    +0.000 HD
ENDBRANCH  16  25
ENDBRANCH  15  24
ENDBRANCH   1  15
TORSDOF 7
ENDMDL
MODEL 7
REMARK VINA RESULT:      -6.7      3.164      6.114
REMARK  Name = 
REMARK  7 active torsions:
REMARK  status: ('A' for Active; 'I' for Inactive)
REMARK    1  A    between atoms: N_1  and  C_2
REMARK    2  A    between atoms: N_10  and  C_11
REMARK    3  A    between atoms: C_11  and  C_12
REMARK    4  A    between atoms: C_14  and  O_15
REMARK    5  A    between atoms: C_16  and  O_17
REMARK    6  A    between atoms: C_18  and  C_19
REMARK    7  A    between atoms: C_19  and  O_21
REMARK                            x       y       z     vdW  Elec       q    Type
REMARK                         _______ _______ _______ _____ _____    ______ ____
ROOT
ATOM      1  C   UNK A   0       5.281   4.150  17.255  0.00  0.00    +0.000 A 
ATOM      2  N   UNK A   1       4.956   4.986  16.249  0.00  0.00    +0.000 NA
ATOM      3  C   UNK A   1       5.578   6.173  16.261  0.00  0.00    +0.000 A 
ATOM      4  C   UNK A   1       6.489   6.605  17.191  0.00  0.00    +0.000 A 
ATOM      5  C   UNK A   1       6.758   5.680  18.170  0.00  0.00    +0.000 A 
ATOM      6  N   UNK A   1       6.176   4.440  18.220  0.00  0.00    +0.000 NA
ENDROOT
BRANCH   3   7
ATOM      7  O   UNK A   1       5.235   7.001  15.232  0.00  0.00    +0.000 OA
ATOM      8  H   UNK A   1       5.395   7.878  15.625  0.00  0.00    +0.000 HD
ENDBRANCH   3   7
BRANCH   4   9
ATOM      9  O   UNK A   1       7.042   7.840  17.106  0.00  0.00    +0.000 OA
ATOM     10  H   UNK A   1       7.664   7.830  16.351  0.00  0.00    +0.000 HD
ENDBRANCH   4   9
BRANCH   5  11
ATOM     11  C   UNK A   1       7.716   5.948  19.288  0.00  0.00    +0.000 C 
ATOM     12  O   UNK A   1       7.811   5.336  20.337  0.00  0.00    +0.000 OA
BRANCH  11  13
ATOM     13  O   UNK A   1       8.505   7.012  18.978  0.00  0.00    +0.000 OA
ATOM     14  H   UNK A   1       8.584   7.607  19.761  0.00  0.00    +0.000 HD
ENDBRANCH  11  13
ENDBRANCH   5  11
BRANCH   1  15
ATOM     15  C   UNK A   0       4.590   2.813  17.301  0.00  0.00    +0.000 C 
BRANCH  15  24
ATOM     16  C   UNK A   0       1.502   2.803  21.023  0.00  0.00    +0.000 A 
ATOM     17  N   UNK A   0       0.433   3.194  20.293  0.00  0.00    +0.000 NA
ATOM     18  C   UNK A   0       0.594   3.377  18.964  0.00  0.00    +0.000 A 
ATOM     19  N   UNK A   0       1.713   3.219  18.223  0.00  0.00    +0.000 NA
ATOM     20  C   UNK A   0       2.735   2.812  18.992  0.00  0.00    +0.000 A 
ATOM     21  C   UNK A   0       2.718   2.571  20.357  0.00  0.00    +0.000 A 
ATOM     22  N   UNK A   0       3.957   2.146  20.794  0.00  0.00    +0.000 NA
ATOM     23  C   UNK A   0       4.717   2.157  19.718  0.00  0.00    +0.000 A 
ATOM     24  N   UNK A   0       4.026   2.568  18.611  0.00  0.00    +0.000 N 
BRANCH  16  25
ATOM     25  N   UNK A   0       1.342   2.650  22.394  0.00  0.00    +0.000 N 
ATOM     26  H   UNK A   0       0.686   1.917  22.629  0.00  0.00    +0.000 HD
ATOM     27  H   UNK A   0       2.209   2.698  22.917  0.00  0.00    +0.000 HD
ENDBRANCH  16  25
ENDBRANCH  15  24
ENDBRANCH   1  15
TORSDOF 7
ENDMDL
MODEL 8
REMARK VINA RESULT:      -6.7      3.446      6.511
REMARK  Name = 
REMARK  7 active torsions:
REMARK  status: ('A' for Active; 'I' for Inactive)
REMARK    1  A    between atoms: N_1  and  C_2
REMARK    2  A    between atoms: N_10  and  C_11
REMARK    3  A    between atoms: C_11  and  C_12
REMARK    4  A    between atoms: C_14  and  O_15
REMARK    5  A    between atoms: C_16  and  O_17
REMARK    6  A    between atoms: C_18  and  C_19
REMARK    7  A    between atoms: C_19  and  O_21
REMARK                            x       y       z     vdW  Elec       q    Type
REMARK                         _______ _______ _______ _____ _____    ______ ____
ROOT
ATOM      1  C   UNK A   0       4.768   5.811  17.574  0.00  0.00    +0.000 A 
ATOM      2  N   UNK A   1       5.600   5.645  18.621  0.00  0.00    +0.000 NA
ATOM      3  C   UNK A   1       6.801   5.127  18.327  0.00  0.00    +0.000 A 
ATOM      4  C   UNK A   1       7.243   4.751  17.084  0.00  0.00    +0.000 A 
ATOM      5  C   UNK A   1       6.327   4.966  16.085  0.00  0.00    +0.000 A 
ATOM      6  N   UNK A   1       5.084   5.505  16.300  0.00  0.00    +0.000 NA
ENDROOT
BRANCH   3   7
ATOM      7  O   UNK A   1       7.627   4.971  19.402  0.00  0.00    +0.000 OA
ATOM      8  H   UNK A   1       7.107   4.369  19.964  0.00  0.00    +0.000 HD
ENDBRANCH   3   7
BRANCH   4   9
ATOM      9  O   UNK A   1       8.480   4.222  16.914  0.00  0.00    +0.000 OA
ATOM     10  H   UNK A   1       9.089   4.708  17.505  0.00  0.00    +0.000 HD
ENDBRANCH   4   9
BRANCH   5  11
ATOM     11  C   UNK A   1       6.600   4.620  14.654  0.00  0.00    +0.000 C 
ATOM     12  O   UNK A   1       5.992   3.825  13.962  0.00  0.00    +0.000 OA
BRANCH  11  13
ATOM     13  O   UNK A   1       7.665   5.334  14.200  0.00  0.00    +0.000 OA
ATOM     14  H   UNK A   1       7.752   6.168  14.719  0.00  0.00    +0.000 HD
ENDBRANCH  11  13
ENDBRANCH   5  11
BRANCH   1  15
ATOM     15  C   UNK A   0       3.396   6.366  17.855  0.00  0.00    +0.000 C 
BRANCH  15  24
ATOM     16  C   UNK A   0       1.421   2.931  20.628  0.00  0.00    +0.000 A 
ATOM     17  N   UNK A   0       1.793   1.904  19.830  0.00  0.00    +0.000 NA
ATOM     18  C   UNK A   0       2.519   2.179  18.724  0.00  0.00    +0.000 A 
ATOM     19  N   UNK A   0       2.948   3.380  18.277  0.00  0.00    +0.000 NA
ATOM     20  C   UNK A   0       2.569   4.359  19.114  0.00  0.00    +0.000 A 
ATOM     21  C   UNK A   0       1.838   4.228  20.285  0.00  0.00    +0.000 A 
ATOM     22  N   UNK A   0       1.658   5.458  20.887  0.00  0.00    +0.000 NA
ATOM     23  C   UNK A   0       2.245   6.318  20.082  0.00  0.00    +0.000 A 
ATOM     24  N   UNK A   0       2.793   5.702  18.990  0.00  0.00    +0.000 N 
BRANCH  16  25
ATOM     25  N   UNK A   0       0.645   2.649  21.744  0.00  0.00    +0.000 N 
ATOM     26  H   UNK A   0       0.962   1.825  22.238  0.00  0.00    +0.000 HD
ATOM     27  H   UNK A   0       0.397   3.466  22.289  0.00  0.00    +0.000 HD
ENDBRANCH  16  25
ENDBRANCH  15  24
ENDBRANCH   1  15
TORSDOF 7
ENDMDL
MODEL 9
REMARK VINA RESULT:      -6.7      2.377      3.419
REMARK  Name = 
REMARK  7 active torsions:
REMARK  status: ('A' for Active; 'I' for Inactive)
REMARK    1  A    between atoms: N_1  and  C_2
REMARK    2  A    between atoms: N_10  and  C_11
REMARK    3  A    between atoms: C_11  and  C_12
REMARK    4  A    between atoms: C_14  and  O_15
REMARK    5  A    between atoms: C_16  and  O_17
REMARK    6  A    between atoms: C_18  and  C_19
REMARK    7  A    between atoms: C_19  and  O_21
REMARK                            x       y       z     vdW  Elec       q    Type
REMARK                         _______ _______ _______ _____ _____    ______ ____
ROOT
ATOM      1  C   UNK A   0       3.961   4.075  17.997  0.00  0.00    +0.000 A 
ATOM      2  N   UNK A   1       3.817   5.402  17.805  0.00  0.00    +0.000 NA
ATOM      3  C   UNK A   1       3.099   6.044  18.736  0.00  0.00    +0.000 A 
ATOM      4  C   UNK A   1       2.504   5.483  19.837  0.00  0.00    +0.000 A 
ATOM      5  C   UNK A   1       2.715   4.130  19.947  0.00  0.00    +0.000 A 
ATOM      6  N   UNK A   1       3.449   3.402  19.047  0.00  0.00    +0.000 NA
ENDROOT
BRANCH   3   7
ATOM      7  O   UNK A   1       2.969   7.385  18.522  0.00  0.00    +0.000 OA
ATOM      8  H   UNK A   1       2.945   7.428  17.549  0.00  0.00    +0.000 HD
ENDBRANCH   3   7
BRANCH   4   9
ATOM      9  O   UNK A   1       1.786   6.238  20.705  0.00  0.00    +0.000 OA
ATOM     10  H   UNK A   1       2.291   6.280  21.542  0.00  0.00    +0.000 HD
ENDBRANCH   4   9
BRANCH   5  11
ATOM     11  C   UNK A   1       2.149   3.317  21.069  0.00  0.00    +0.000 C 
ATOM     12  O   UNK A   1       2.767   2.771  21.965  0.00  0.00    +0.000 OA
BRANCH  11  13
ATOM     13  O   UNK A   1       0.795   3.255  20.961  0.00  0.00    +0.000 OA
ATOM     14  H   UNK A   1       0.408   4.150  21.107  0.00  0.00    +0.000 HD
ENDBRANCH  11  13
ENDBRANCH   5  11
BRANCH   1  15
ATOM     15  C   UNK A   0       4.738   3.302  16.964  0.00  0.00    +0.000 C 
BRANCH  15  24
ATOM     16  C   UNK A   0       7.623   5.124  13.537  0.00  0.00    +0.000 A 
ATOM     17  N   UNK A   0       7.068   4.418  12.525  0.00  0.00    +0.000 NA
ATOM     18  C   UNK A   0       6.024   3.607  12.804  0.00  0.00    +0.000 A 
ATOM     19  N   UNK A   0       5.426   3.386  13.995  0.00  0.00    +0.000 NA
ATOM     20  C   UNK A   0       6.002   4.124  14.958  0.00  0.00    +0.000 A 
ATOM     21  C   UNK A   0       7.064   5.004  14.821  0.00  0.00    +0.000 A 
ATOM     22  N   UNK A   0       7.368   5.595  16.032  0.00  0.00    +0.000 NA
ATOM     23  C   UNK A   0       6.523   5.062  16.890  0.00  0.00    +0.000 A 
ATOM     24  N   UNK A   0       5.691   4.155  16.289  0.00  0.00    +0.000 N 
BRANCH  16  25
ATOM     25  N   UNK A   0       8.718   5.930  13.254  0.00  0.00    +0.000 N 
ATOM     26  H   UNK A   0       8.692   6.303  12.315  0.00  0.00    +0.000 HD
ATOM     27  H   UNK A   0       8.974   6.555  14.009  0.00  0.00    +0.000 HD
ENDBRANCH  16  25
ENDBRANCH  15  24
ENDBRANCH   1  15
TORSDOF 7
ENDMDL
