MODEL 1
REMARK VINA RESULT:      -6.8      0.000      0.000
REMARK  Name = 
REMARK  4 active torsions:
REMARK  status: ('A' for Active; 'I' for Inactive)
REMARK    1  A    between atoms: C_2  and  C_3
REMARK    2  A    between atoms: C_8  and  C_10
REMARK    3  A    between atoms: N_18  and  C_19
REMARK    4  A    between atoms: C_19  and  C_20
REMARK                            x       y       z     vdW  Elec       q    Type
REMARK                         _______ _______ _______ _____ _____    ______ ____
ROOT
ATOM      1  O   UNL     1       1.689  13.347  21.590  0.00  0.00    +0.000 OA
ATOM      2  C   UNL     1       1.687  13.001  20.408  0.00  0.00    +0.000 C 
ATOM      3  N   UNL     1       1.305  11.709  20.017  0.00  0.00    +0.000 N 
ATOM      4  C   UNL     1       1.065  10.707  21.066  0.00  0.00    +0.000 C 
ATOM      5  C   UNL     1       0.298   9.449  20.589  0.00  0.00    +0.000 C 
ATOM      6  N   UNL     1       0.746   8.880  19.296  0.00  0.00    +0.000 NA
ATOM      7  C   UNL     1       0.702   9.964  18.302  0.00  0.00    +0.000 C 
ATOM      8  C   UNL     1       1.554  11.185  18.665  0.00  0.00    +0.000 C 
ENDROOT
BRANCH   2   9
ATOM      9  C   UNL     1       2.019  13.988  19.267  0.00  0.00    +0.000 C 
ATOM     10  C   UNL     1       3.487  14.435  19.332  0.00  0.00    +0.000 C 
ATOM     11  C   UNL     1       3.552  15.464  18.210  0.00  0.00    +0.000 C 
ATOM     12  C   UNL     1       2.176  16.122  18.237  0.00  0.00    +0.000 C 
ATOM     13  N   UNL     1       1.353  15.299  19.118  0.00  0.00    +0.000 N 
ATOM     14  C   UNL     1      -0.023  15.558  19.103  0.00  0.00    +0.000 C 
ATOM     15  O   UNL     1      -0.483  16.337  18.266  0.00  0.00    +0.000 OA
BRANCH  14  16
ATOM     16  C   UNL     1      -0.863  14.959  20.133  0.00  0.00    +0.000 A 
ATOM     17  C   UNL     1      -1.610  13.794  20.123  0.00  0.00    +0.000 A 
ATOM     18  C   UNL     1      -2.364  13.614  21.322  0.00  0.00    +0.000 A 
ATOM     19  C   UNL     1      -2.081  14.584  22.255  0.00  0.00    +0.000 A 
ATOM     20  S   UNL     1      -0.899  15.683  21.693  0.00  0.00    +0.000 S 
ENDBRANCH  14  16
ENDBRANCH   2   9
BRANCH   6  21
ATOM     21  C   UNL     1       2.076   8.263  19.426  0.00  0.00    +0.000 C 
BRANCH  21  22
ATOM     22  C   UNL     1       2.073   6.746  19.415  0.00  0.00    +0.000 A 
ATOM     23  C   UNL     1       1.753   6.017  20.584  0.00  0.00    +0.000 A 
ATOM     24  C   UNL     1       1.789   4.618  20.593  0.00  0.00    +0.000 A 
ATOM     25  C   UNL     1       2.140   3.977  19.424  0.00  0.00    +0.000 A 
ATOM     26  C   UNL     1       2.433   4.675  18.278  0.00  0.00    +0.000 A 
ATOM     27  C   UNL     1       2.407   6.053  18.239  0.00  0.00    +0.000 A 
ATOM     28  O   UNL     1       2.748   3.859  17.236  0.00  0.00    +0.000 OA
ATOM     29  C   UNL     1       2.649   2.566  17.869  0.00  0.00    +0.000 C 
ATOM     30  O   UNL     1       2.244   2.632  19.252  0.00  0.00    +0.000 OA
ENDBRANCH  21  22
ENDBRANCH   6  21
TORSDOF 4
ENDMDL
MODEL 2
REMARK VINA RESULT:      -6.8      3.543      7.825
REMARK  Name = 
REMARK  4 active torsions:
REMARK  status: ('A' for Active; 'I' for Inactive)
REMARK    1  A    between atoms: C_2  and  C_3
REMARK    2  A    between atoms: C_8  and  C_10
REMARK    3  A    between atoms: N_18  and  C_19
REMARK    4  A    between atoms: C_19  and  C_20
REMARK                            x       y       z     vdW  Elec       q    Type
REMARK                         _______ _______ _______ _____ _____    ______ ____
ROOT
ATOM      1  O   UNL     1      -1.082  12.046  18.761  0.00  0.00    +0.000 OA
ATOM      2  C   UNL     1      -0.012  12.137  19.365  0.00  0.00    +0.000 C 
ATOM      3  N   UNL     1       0.691  13.349  19.444  0.00  0.00    +0.000 N 
ATOM      4  C   UNL     1       0.210  14.485  18.645  0.00  0.00    +0.000 C 
ATOM      5  C   UNL     1       0.791  15.857  19.066  0.00  0.00    +0.000 C 
ATOM      6  N   UNL     1       2.247  15.878  19.338  0.00  0.00    +0.000 NA
ATOM      7  C   UNL     1       2.522  14.832  20.336  0.00  0.00    +0.000 C 
ATOM      8  C   UNL     1       2.084  13.427  19.911  0.00  0.00    +0.000 C 
ENDROOT
BRANCH   2   9
ATOM      9  C   UNL     1       0.588  10.948  20.149  0.00  0.00    +0.000 C 
ATOM     10  C   UNL     1       0.747   9.715  19.247  0.00  0.00    +0.000 C 
ATOM     11  C   UNL     1       1.236   8.664  20.237  0.00  0.00    +0.000 C 
ATOM     12  C   UNL     1       0.516   9.021  21.533  0.00  0.00    +0.000 C 
ATOM     13  N   UNL     1      -0.081  10.335  21.315  0.00  0.00    +0.000 N 
ATOM     14  C   UNL     1      -0.582  10.986  22.449  0.00  0.00    +0.000 C 
ATOM     15  O   UNL     1      -0.368  10.507  23.565  0.00  0.00    +0.000 OA
BRANCH  14  16
ATOM     16  C   UNL     1      -1.412  12.170  22.272  0.00  0.00    +0.000 A 
ATOM     17  C   UNL     1      -2.733  12.296  21.878  0.00  0.00    +0.000 A 
ATOM     18  C   UNL     1      -3.141  13.658  21.750  0.00  0.00    +0.000 A 
ATOM     19  C   UNL     1      -2.158  14.528  22.162  0.00  0.00    +0.000 A 
ATOM     20  S   UNL     1      -0.769  13.702  22.718  0.00  0.00    +0.000 S 
ENDBRANCH  14  16
ENDBRANCH   2   9
BRANCH   6  21
ATOM     21  C   UNL     1       3.017  15.711  18.094  0.00  0.00    +0.000 C 
BRANCH  21  22
ATOM     22  C   UNL     1       4.523  15.758  18.271  0.00  0.00    +0.000 A 
ATOM     23  C   UNL     1       5.150  16.903  18.815  0.00  0.00    +0.000 A 
ATOM     24  C   UNL     1       6.542  16.970  18.942  0.00  0.00    +0.000 A 
ATOM     25  C   UNL     1       7.279  15.881  18.526  0.00  0.00    +0.000 A 
ATOM     26  C   UNL     1       6.678  14.757  18.015  0.00  0.00    +0.000 A 
ATOM     27  C   UNL     1       5.310  14.662  17.876  0.00  0.00    +0.000 A 
ATOM     28  O   UNL     1       7.577  13.796  17.670  0.00  0.00    +0.000 OA
ATOM     29  C   UNL     1       8.816  14.460  17.994  0.00  0.00    +0.000 C 
ATOM     30  O   UNL     1       8.634  15.776  18.557  0.00  0.00    +0.000 OA
ENDBRANCH  21  22
ENDBRANCH   6  21
TORSDOF 4
ENDMDL
MODEL 3
REMARK VINA RESULT:      -6.8      0.608      1.311
REMARK  Name = 
REMARK  4 active torsions:
REMARK  status: ('A' for Active; 'I' for Inactive)
REMARK    1  A    between atoms: C_2  and  C_3
REMARK    2  A    between atoms: C_8  and  C_10
REMARK    3  A    between atoms: N_18  and  C_19
REMARK    4  A    between atoms: C_19  and  C_20
REMARK                            x       y       z     vdW  Elec       q    Type
REMARK                         _______ _______ _______ _____ _____    ______ ____
ROOT
ATOM      1  O   UNL     1       1.754  13.418  21.590  0.00  0.00    +0.000 OA
ATOM      2  C   UNL     1       1.720  13.073  20.409  0.00  0.00    +0.000 C 
ATOM      3  N   UNL     1       1.332  11.779  20.028  0.00  0.00    +0.000 N 
ATOM      4  C   UNL     1       1.125  10.777  21.083  0.00  0.00    +0.000 C 
ATOM      5  C   UNL     1       0.349   9.516  20.627  0.00  0.00    +0.000 C 
ATOM      6  N   UNL     1       0.762   8.949  19.322  0.00  0.00    +0.000 NA
ATOM      7  C   UNL     1       0.687  10.033  18.329  0.00  0.00    +0.000 C 
ATOM      8  C   UNL     1       1.544  11.257  18.669  0.00  0.00    +0.000 C 
ENDROOT
BRANCH   2   9
ATOM      9  C   UNL     1       2.017  14.061  19.259  0.00  0.00    +0.000 C 
ATOM     10  C   UNL     1       3.483  14.518  19.288  0.00  0.00    +0.000 C 
ATOM     11  C   UNL     1       3.513  15.547  18.163  0.00  0.00    +0.000 C 
ATOM     12  C   UNL     1       2.134  16.195  18.225  0.00  0.00    +0.000 C 
ATOM     13  N   UNL     1       1.339  15.368  19.127  0.00  0.00    +0.000 N 
ATOM     14  C   UNL     1      -0.039  15.618  19.146  0.00  0.00    +0.000 C 
ATOM     15  O   UNL     1      -0.525  16.394  18.320  0.00  0.00    +0.000 OA
BRANCH  14  16
ATOM     16  C   UNL     1      -0.849  15.014  20.197  0.00  0.00    +0.000 A 
ATOM     17  C   UNL     1      -1.605  13.854  20.199  0.00  0.00    +0.000 A 
ATOM     18  C   UNL     1      -2.320  13.667  21.421  0.00  0.00    +0.000 A 
ATOM     19  C   UNL     1      -1.998  14.625  22.355  0.00  0.00    +0.000 A 
ATOM     20  S   UNL     1      -0.827  15.721  21.765  0.00  0.00    +0.000 S 
ENDBRANCH  14  16
ENDBRANCH   2   9
BRANCH   6  21
ATOM     21  C   UNL     1       2.097   8.337  19.414  0.00  0.00    +0.000 C 
BRANCH  21  22
ATOM     22  C   UNL     1       2.104   6.822  19.342  0.00  0.00    +0.000 A 
ATOM     23  C   UNL     1       2.333   6.158  18.115  0.00  0.00    +0.000 A 
ATOM     24  C   UNL     1       2.299   4.761  18.033  0.00  0.00    +0.000 A 
ATOM     25  C   UNL     1       2.042   4.056  19.190  0.00  0.00    +0.000 A 
ATOM     26  C   UNL     1       1.839   4.690  20.391  0.00  0.00    +0.000 A 
ATOM     27  C   UNL     1       1.864   6.064  20.502  0.00  0.00    +0.000 A 
ATOM     28  O   UNL     1       1.608   3.818  21.409  0.00  0.00    +0.000 OA
ATOM     29  C   UNL     1       1.659   2.561  20.701  0.00  0.00    +0.000 C 
ATOM     30  O   UNL     1       1.955   2.704  19.297  0.00  0.00    +0.000 OA
ENDBRANCH  21  22
ENDBRANCH   6  21
TORSDOF 4
ENDMDL
MODEL 4
REMARK VINA RESULT:      -6.7      3.508      8.297
REMARK  Name = 
REMARK  4 active torsions:
REMARK  status: ('A' for Active; 'I' for Inactive)
REMARK    1  A    between atoms: C_2  and  C_3
REMARK    2  A    between atoms: C_8  and  C_10
REMARK    3  A    between atoms: N_18  and  C_19
REMARK    4  A    between atoms: C_19  and  C_20
REMARK                            x       y       z     vdW  Elec       q    Type
REMARK                         _______ _______ _______ _____ _____    ______ ____
ROOT
ATOM      1  O   UNL     1      -1.007  11.942  18.780  0.00  0.00    +0.000 OA
ATOM      2  C   UNL     1       0.065  12.025  19.380  0.00  0.00    +0.000 C 
ATOM      3  N   UNL     1       0.785  13.228  19.443  0.00  0.00    +0.000 N 
ATOM      4  C   UNL     1       0.319  14.361  18.630  0.00  0.00    +0.000 C 
ATOM      5  C   UNL     1       0.922  15.730  19.033  0.00  0.00    +0.000 C 
ATOM      6  N   UNL     1       2.379  15.732  19.301  0.00  0.00    +0.000 NA
ATOM      7  C   UNL     1       2.640  14.695  20.312  0.00  0.00    +0.000 C 
ATOM      8  C   UNL     1       2.181  13.291  19.906  0.00  0.00    +0.000 C 
ENDROOT
BRANCH   2   9
ATOM      9  C   UNL     1       0.649  10.838  20.179  0.00  0.00    +0.000 C 
ATOM     10  C   UNL     1       0.804   9.596  19.288  0.00  0.00    +0.000 C 
ATOM     11  C   UNL     1       1.276   8.549  20.290  0.00  0.00    +0.000 C 
ATOM     12  C   UNL     1       0.551   8.923  21.578  0.00  0.00    +0.000 C 
ATOM     13  N   UNL     1      -0.033  10.240  21.345  0.00  0.00    +0.000 N 
ATOM     14  C   UNL     1      -0.536  10.905  22.470  0.00  0.00    +0.000 C 
ATOM     15  O   UNL     1      -0.334  10.434  23.592  0.00  0.00    +0.000 OA
BRANCH  14  16
ATOM     16  C   UNL     1      -1.354  12.095  22.278  0.00  0.00    +0.000 A 
ATOM     17  C   UNL     1      -2.674  12.228  21.884  0.00  0.00    +0.000 A 
ATOM     18  C   UNL     1      -3.069  13.592  21.737  0.00  0.00    +0.000 A 
ATOM     19  C   UNL     1      -2.077  14.458  22.135  0.00  0.00    +0.000 A 
ATOM     20  S   UNL     1      -0.696  13.627  22.701  0.00  0.00    +0.000 S 
ENDBRANCH  14  16
ENDBRANCH   2   9
BRANCH   6  21
ATOM     21  C   UNL     1       3.143  15.538  18.058  0.00  0.00    +0.000 C 
BRANCH  21  22
ATOM     22  C   UNL     1       4.641  15.726  18.201  0.00  0.00    +0.000 A 
ATOM     23  C   UNL     1       5.538  14.704  17.810  0.00  0.00    +0.000 A 
ATOM     24  C   UNL     1       6.919  14.854  17.978  0.00  0.00    +0.000 A 
ATOM     25  C   UNL     1       7.375  16.033  18.529  0.00  0.00    +0.000 A 
ATOM     26  C   UNL     1       6.515  17.039  18.893  0.00  0.00    +0.000 A 
ATOM     27  C   UNL     1       5.150  16.920  18.742  0.00  0.00    +0.000 A 
ATOM     28  O   UNL     1       7.163  18.118  19.410  0.00  0.00    +0.000 OA
ATOM     29  C   UNL     1       8.530  17.660  19.358  0.00  0.00    +0.000 C 
ATOM     30  O   UNL     1       8.674  16.345  18.781  0.00  0.00    +0.000 OA
ENDBRANCH  21  22
ENDBRANCH   6  21
TORSDOF 4
ENDMDL
MODEL 5
REMARK VINA RESULT:      -6.6      2.163      3.924
REMARK  Name = 
REMARK  4 active torsions:
REMARK  status: ('A' for Active; 'I' for Inactive)
REMARK    1  A    between atoms: C_2  and  C_3
REMARK    2  A    between atoms: C_8  and  C_10
REMARK    3  A    between atoms: N_18  and  C_19
REMARK    4  A    between atoms: C_19  and  C_20
REMARK                            x       y       z     vdW  Elec       q    Type
REMARK                         _______ _______ _______ _____ _____    ______ ____
ROOT
ATOM      1  O   UNL     1      -2.488  12.115  19.984  0.00  0.00    +0.000 OA
ATOM      2  C   UNL     1      -1.747  11.840  20.928  0.00  0.00    +0.000 C 
ATOM      3  N   UNL     1      -0.623  11.016  20.769  0.00  0.00    +0.000 N 
ATOM      4  C   UNL     1      -0.433  10.341  19.477  0.00  0.00    +0.000 C 
ATOM      5  C   UNL     1       0.990   9.770  19.255  0.00  0.00    +0.000 C 
ATOM      6  N   UNL     1       1.577   9.051  20.409  0.00  0.00    +0.000 NA
ATOM      7  C   UNL     1       1.522   9.959  21.566  0.00  0.00    +0.000 C 
ATOM      8  C   UNL     1       0.112  10.450  21.912  0.00  0.00    +0.000 C 
ENDROOT
BRANCH   2   9
ATOM      9  C   UNL     1      -1.951  12.451  22.333  0.00  0.00    +0.000 C 
ATOM     10  C   UNL     1      -3.435  12.438  22.730  0.00  0.00    +0.000 C 
ATOM     11  C   UNL     1      -3.408  13.172  24.066  0.00  0.00    +0.000 C 
ATOM     12  C   UNL     1      -2.302  14.207  23.892  0.00  0.00    +0.000 C 
ATOM     13  N   UNL     1      -1.605  13.849  22.659  0.00  0.00    +0.000 N 
ATOM     14  C   UNL     1      -0.390  14.504  22.421  0.00  0.00    +0.000 C 
ATOM     15  O   UNL     1       0.097  15.216  23.302  0.00  0.00    +0.000 OA
BRANCH  14  16
ATOM     16  C   UNL     1       0.224  14.389  21.104  0.00  0.00    +0.000 A 
ATOM     17  C   UNL     1      -0.214  14.819  19.864  0.00  0.00    +0.000 A 
ATOM     18  C   UNL     1       0.661  14.427  18.806  0.00  0.00    +0.000 A 
ATOM     19  C   UNL     1       1.796  13.812  19.281  0.00  0.00    +0.000 A 
ATOM     20  S   UNL     1       1.810  13.734  20.988  0.00  0.00    +0.000 S 
ENDBRANCH  14  16
ENDBRANCH   2   9
BRANCH   6  21
ATOM     21  C   UNL     1       0.886   7.772  20.640  0.00  0.00    +0.000 C 
BRANCH  21  22
ATOM     22  C   UNL     1       1.714   6.540  20.328  0.00  0.00    +0.000 A 
ATOM     23  C   UNL     1       1.358   5.278  20.858  0.00  0.00    +0.000 A 
ATOM     24  C   UNL     1       2.140   4.145  20.608  0.00  0.00    +0.000 A 
ATOM     25  C   UNL     1       3.264   4.299  19.824  0.00  0.00    +0.000 A 
ATOM     26  C   UNL     1       3.607   5.517  19.288  0.00  0.00    +0.000 A 
ATOM     27  C   UNL     1       2.857   6.650  19.517  0.00  0.00    +0.000 A 
ATOM     28  O   UNL     1       4.743   5.456  18.542  0.00  0.00    +0.000 OA
ATOM     29  C   UNL     1       5.092   4.065  18.697  0.00  0.00    +0.000 C 
ATOM     30  O   UNL     1       4.146   3.320  19.493  0.00  0.00    +0.000 OA
ENDBRANCH  21  22
ENDBRANCH   6  21
TORSDOF 4
ENDMDL
MODEL 6
REMARK VINA RESULT:      -6.6      2.617      3.731
REMARK  Name = 
REMARK  4 active torsions:
REMARK  status: ('A' for Active; 'I' for Inactive)
REMARK    1  A    between atoms: C_2  and  C_3
REMARK    2  A    between atoms: C_8  and  C_10
REMARK    3  A    between atoms: N_18  and  C_19
REMARK    4  A    between atoms: C_19  and  C_20
REMARK                            x       y       z     vdW  Elec       q    Type
REMARK                         _______ _______ _______ _____ _____    ______ ____
ROOT
ATOM      1  O   UNL     1      -0.601  12.907  19.279  0.00  0.00    +0.000 OA
ATOM      2  C   UNL     1      -1.087  11.783  19.404  0.00  0.00    +0.000 C 
ATOM      3  N   UNL     1      -0.392  10.745  20.044  0.00  0.00    +0.000 N 
ATOM      4  C   UNL     1       1.011  10.975  20.420  0.00  0.00    +0.000 C 
ATOM      5  C   UNL     1       1.579   9.952  21.435  0.00  0.00    +0.000 C 
ATOM      6  N   UNL     1       1.246   8.534  21.168  0.00  0.00    +0.000 NA
ATOM      7  C   UNL     1      -0.218   8.442  21.052  0.00  0.00    +0.000 C 
ATOM      8  C   UNL     1      -0.821   9.339  19.967  0.00  0.00    +0.000 C 
ENDROOT
BRANCH   2   9
ATOM      9  C   UNL     1      -2.526  11.458  18.947  0.00  0.00    +0.000 C 
ATOM     10  C   UNL     1      -2.655  11.555  17.419  0.00  0.00    +0.000 C 
ATOM     11  C   UNL     1      -4.146  11.313  17.214  0.00  0.00    +0.000 C 
ATOM     12  C   UNL     1      -4.792  11.954  18.438  0.00  0.00    +0.000 C 
ATOM     13  N   UNL     1      -3.700  12.255  19.359  0.00  0.00    +0.000 N 
ATOM     14  C   UNL     1      -4.068  12.617  20.661  0.00  0.00    +0.000 C 
ATOM     15  O   UNL     1      -5.249  12.523  21.005  0.00  0.00    +0.000 OA
BRANCH  14  16
ATOM     16  C   UNL     1      -3.056  13.174  21.549  0.00  0.00    +0.000 A 
ATOM     17  C   UNL     1      -2.525  14.450  21.625  0.00  0.00    +0.000 A 
ATOM     18  C   UNL     1      -1.482  14.555  22.594  0.00  0.00    +0.000 A 
ATOM     19  C   UNL     1      -1.328  13.389  23.309  0.00  0.00    +0.000 A 
ATOM     20  S   UNL     1      -2.449  12.194  22.826  0.00  0.00    +0.000 S 
ENDBRANCH  14  16
ENDBRANCH   2   9
BRANCH   6  21
ATOM     21  C   UNL     1       1.955   8.043  19.975  0.00  0.00    +0.000 C 
BRANCH  21  22
ATOM     22  C   UNL     1       1.959   6.534  19.818  0.00  0.00    +0.000 A 
ATOM     23  C   UNL     1       1.667   5.693  20.917  0.00  0.00    +0.000 A 
ATOM     24  C   UNL     1       1.710   4.300  20.790  0.00  0.00    +0.000 A 
ATOM     25  C   UNL     1       2.038   3.777  19.557  0.00  0.00    +0.000 A 
ATOM     26  C   UNL     1       2.304   4.585  18.479  0.00  0.00    +0.000 A 
ATOM     27  C   UNL     1       2.271   5.959  18.574  0.00  0.00    +0.000 A 
ATOM     28  O   UNL     1       2.600   3.875  17.357  0.00  0.00    +0.000 OA
ATOM     29  C   UNL     1       2.521   2.527  17.863  0.00  0.00    +0.000 C 
ATOM     30  O   UNL     1       2.145   2.456  19.254  0.00  0.00    +0.000 OA
ENDBRANCH  21  22
ENDBRANCH   6  21
TORSDOF 4
ENDMDL
MODEL 7
REMARK VINA RESULT:      -6.6      2.070      3.922
REMARK  Name = 
REMARK  4 active torsions:
REMARK  status: ('A' for Active; 'I' for Inactive)
REMARK    1  A    between atoms: C_2  and  C_3
REMARK    2  A    between atoms: C_8  and  C_10
REMARK    3  A    between atoms: N_18  and  C_19
REMARK    4  A    between atoms: C_19  and  C_20
REMARK                            x       y       z     vdW  Elec       q    Type
REMARK                         _______ _______ _______ _____ _____    ______ ____
ROOT
ATOM      1  O   UNL     1      -2.200  11.942  19.889  0.00  0.00    +0.000 OA
ATOM      2  C   UNL     1      -1.499  11.672  20.864  0.00  0.00    +0.000 C 
ATOM      3  N   UNL     1      -0.404  10.799  20.768  0.00  0.00    +0.000 N 
ATOM      4  C   UNL     1      -0.204  10.071  19.507  0.00  0.00    +0.000 C 
ATOM      5  C   UNL     1       1.200   9.437  19.348  0.00  0.00    +0.000 C 
ATOM      6  N   UNL     1       1.724   8.738  20.544  0.00  0.00    +0.000 NA
ATOM      7  C   UNL     1       1.671   9.688  21.667  0.00  0.00    +0.000 C 
ATOM      8  C   UNL     1       0.273  10.246  21.952  0.00  0.00    +0.000 C 
ENDROOT
BRANCH   2   9
ATOM      9  C   UNL     1      -1.719  12.340  22.240  0.00  0.00    +0.000 C 
ATOM     10  C   UNL     1      -3.210  12.365  22.609  0.00  0.00    +0.000 C 
ATOM     11  C   UNL     1      -3.197  13.150  23.916  0.00  0.00    +0.000 C 
ATOM     12  C   UNL     1      -2.071  14.161  23.722  0.00  0.00    +0.000 C 
ATOM     13  N   UNL     1      -1.358  13.745  22.518  0.00  0.00    +0.000 N 
ATOM     14  C   UNL     1      -0.128  14.372  22.278  0.00  0.00    +0.000 C 
ATOM     15  O   UNL     1       0.354  15.110  23.140  0.00  0.00    +0.000 OA
BRANCH  14  16
ATOM     16  C   UNL     1       0.508  14.196  20.979  0.00  0.00    +0.000 A 
ATOM     17  C   UNL     1       0.120  14.619  19.719  0.00  0.00    +0.000 A 
ATOM     18  C   UNL     1       0.997  14.159  18.691  0.00  0.00    +0.000 A 
ATOM     19  C   UNL     1       2.089  13.500  19.206  0.00  0.00    +0.000 A 
ATOM     20  S   UNL     1       2.062  13.461  20.914  0.00  0.00    +0.000 S 
ENDBRANCH  14  16
ENDBRANCH   2   9
BRANCH   6  21
ATOM     21  C   UNL     1       0.975   7.496  20.798  0.00  0.00    +0.000 C 
BRANCH  21  22
ATOM     22  C   UNL     1       1.646   6.236  20.285  0.00  0.00    +0.000 A 
ATOM     23  C   UNL     1       2.832   6.312  19.517  0.00  0.00    +0.000 A 
ATOM     24  C   UNL     1       3.434   5.156  19.006  0.00  0.00    +0.000 A 
ATOM     25  C   UNL     1       2.836   3.944  19.280  0.00  0.00    +0.000 A 
ATOM     26  C   UNL     1       1.696   3.859  20.041  0.00  0.00    +0.000 A 
ATOM     27  C   UNL     1       1.080   4.979  20.557  0.00  0.00    +0.000 A 
ATOM     28  O   UNL     1       1.270   2.577  20.201  0.00  0.00    +0.000 OA
ATOM     29  C   UNL     1       2.258   1.868  19.424  0.00  0.00    +0.000 C 
ATOM     30  O   UNL     1       3.267   2.728  18.854  0.00  0.00    +0.000 OA
ENDBRANCH  21  22
ENDBRANCH   6  21
TORSDOF 4
ENDMDL
MODEL 8
REMARK VINA RESULT:      -6.6      4.207      9.155
REMARK  Name = 
REMARK  4 active torsions:
REMARK  status: ('A' for Active; 'I' for Inactive)
REMARK    1  A    between atoms: C_2  and  C_3
REMARK    2  A    between atoms: C_8  and  C_10
REMARK    3  A    between atoms: N_18  and  C_19
REMARK    4  A    between atoms: C_19  and  C_20
REMARK                            x       y       z     vdW  Elec       q    Type
REMARK                         _______ _______ _______ _____ _____    ______ ____
ROOT
ATOM      1  O   UNL     1       2.956   5.787  20.376  0.00  0.00    +0.000 OA
ATOM      2  C   UNL     1       3.126   6.447  19.351  0.00  0.00    +0.000 C 
ATOM      3  N   UNL     1       2.477   7.675  19.147  0.00  0.00    +0.000 N 
ATOM      4  C   UNL     1       1.449   8.086  20.113  0.00  0.00    +0.000 C 
ATOM      5  C   UNL     1       1.060   9.584  20.037  0.00  0.00    +0.000 C 
ATOM      6  N   UNL     1       0.864  10.125  18.672  0.00  0.00    +0.000 NA
ATOM      7  C   UNL     1       2.085   9.832  17.905  0.00  0.00    +0.000 C 
ATOM      8  C   UNL     1       2.443   8.344  17.836  0.00  0.00    +0.000 C 
ENDROOT
BRANCH   2   9
ATOM      9  C   UNL     1       4.130   6.017  18.258  0.00  0.00    +0.000 C 
ATOM     10  C   UNL     1       4.276   7.105  17.183  0.00  0.00    +0.000 C 
ATOM     11  C   UNL     1       5.203   6.431  16.178  0.00  0.00    +0.000 C 
ATOM     12  C   UNL     1       4.801   4.961  16.240  0.00  0.00    +0.000 C 
ATOM     13  N   UNL     1       3.927   4.830  17.402  0.00  0.00    +0.000 N 
ATOM     14  C   UNL     1       3.634   3.524  17.814  0.00  0.00    +0.000 C 
ATOM     15  O   UNL     1       4.225   2.577  17.291  0.00  0.00    +0.000 OA
BRANCH  14  16
ATOM     16  C   UNL     1       2.576   3.317  18.794  0.00  0.00    +0.000 A 
ATOM     17  C   UNL     1       1.209   3.514  18.702  0.00  0.00    +0.000 A 
ATOM     18  C   UNL     1       0.533   3.265  19.935  0.00  0.00    +0.000 A 
ATOM     19  C   UNL     1       1.386   2.775  20.897  0.00  0.00    +0.000 A 
ATOM     20  S   UNL     1       2.979   2.596  20.303  0.00  0.00    +0.000 S 
ENDBRANCH  14  16
ENDBRANCH   2   9
BRANCH   6  21
ATOM     21  C   UNL     1      -0.355   9.574  18.058  0.00  0.00    +0.000 C 
BRANCH  21  22
ATOM     22  C   UNL     1      -1.604  10.408  18.272  0.00  0.00    +0.000 A 
ATOM     23  C   UNL     1      -1.629  11.433  19.246  0.00  0.00    +0.000 A 
ATOM     24  C   UNL     1      -2.790  12.179  19.478  0.00  0.00    +0.000 A 
ATOM     25  C   UNL     1      -3.905  11.885  18.721  0.00  0.00    +0.000 A 
ATOM     26  C   UNL     1      -3.885  10.904  17.760  0.00  0.00    +0.000 A 
ATOM     27  C   UNL     1      -2.757  10.153  17.510  0.00  0.00    +0.000 A 
ATOM     28  O   UNL     1      -5.080  10.775  17.122  0.00  0.00    +0.000 OA
ATOM     29  C   UNL     1      -5.863  11.767  17.818  0.00  0.00    +0.000 C 
ATOM     30  O   UNL     1      -5.118  12.490  18.820  0.00  0.00    +0.000 OA
ENDBRANCH  21  22
ENDBRANCH   6  21
TORSDOF 4
ENDMDL
MODEL 9
REMARK VINA RESULT:      -6.5      2.643      4.138
REMARK  Name = 
REMARK  4 active torsions:
REMARK  status: ('A' for Active; 'I' for Inactive)
REMARK    1  A    between atoms: C_2  and  C_3
REMARK    2  A    between atoms: C_8  and  C_10
REMARK    3  A    between atoms: N_18  and  C_19
REMARK    4  A    between atoms: C_19  and  C_20
REMARK                            x       y       z     vdW  Elec       q    Type
REMARK                         _______ _______ _______ _____ _____    ______ ____
ROOT
ATOM      1  O   UNL     1      -1.084  13.180  18.907  0.00  0.00    +0.000 OA
ATOM      2  C   UNL     1      -1.478  12.035  19.130  0.00  0.00    +0.000 C 
ATOM      3  N   UNL     1      -0.651  11.073  19.730  0.00  0.00    +0.000 N 
ATOM      4  C   UNL     1       0.766  11.407  19.939  0.00  0.00    +0.000 C 
ATOM      5  C   UNL     1       1.507  10.470  20.925  0.00  0.00    +0.000 C 
ATOM      6  N   UNL     1       1.242   9.023  20.752  0.00  0.00    +0.000 NA
ATOM      7  C   UNL     1      -0.216   8.835  20.803  0.00  0.00    +0.000 C 
ATOM      8  C   UNL     1      -0.991   9.642  19.756  0.00  0.00    +0.000 C 
ENDROOT
BRANCH   2   9
ATOM      9  C   UNL     1      -2.933  11.601  18.848  0.00  0.00    +0.000 C 
ATOM     10  C   UNL     1      -3.273  11.745  17.356  0.00  0.00    +0.000 C 
ATOM     11  C   UNL     1      -4.752  11.379  17.334  0.00  0.00    +0.000 C 
ATOM     12  C   UNL     1      -5.280  11.912  18.662  0.00  0.00    +0.000 C 
ATOM     13  N   UNL     1      -4.104  12.274  19.448  0.00  0.00    +0.000 N 
ATOM     14  C   UNL     1      -4.324  12.552  20.803  0.00  0.00    +0.000 C 
ATOM     15  O   UNL     1      -5.436  12.339  21.291  0.00  0.00    +0.000 OA
BRANCH  14  16
ATOM     16  C   UNL     1      -3.252  13.162  21.579  0.00  0.00    +0.000 A 
ATOM     17  C   UNL     1      -2.807  14.472  21.628  0.00  0.00    +0.000 A 
ATOM     18  C   UNL     1      -1.663  14.632  22.467  0.00  0.00    +0.000 A 
ATOM     19  C   UNL     1      -1.341  13.466  23.123  0.00  0.00    +0.000 A 
ATOM     20  S   UNL     1      -2.427  12.203  22.744  0.00  0.00    +0.000 S 
ENDBRANCH  14  16
ENDBRANCH   2   9
BRANCH   6  21
ATOM     21  C   UNL     1       1.850   8.522  19.509  0.00  0.00    +0.000 C 
BRANCH  21  22
ATOM     22  C   UNL     1       2.086   7.024  19.479  0.00  0.00    +0.000 A 
ATOM     23  C   UNL     1       2.326   6.355  18.257  0.00  0.00    +0.000 A 
ATOM     24  C   UNL     1       2.503   4.967  18.217  0.00  0.00    +0.000 A 
ATOM     25  C   UNL     1       2.442   4.277  19.409  0.00  0.00    +0.000 A 
ATOM     26  C   UNL     1       2.229   4.920  20.604  0.00  0.00    +0.000 A 
ATOM     27  C   UNL     1       2.050   6.284  20.675  0.00  0.00    +0.000 A 
ATOM     28  O   UNL     1       2.210   4.063  21.661  0.00  0.00    +0.000 OA
ATOM     29  C   UNL     1       2.404   2.802  20.987  0.00  0.00    +0.000 C 
ATOM     30  O   UNL     1       2.573   2.932  19.560  0.00  0.00    +0.000 OA
ENDBRANCH  21  22
ENDBRANCH   6  21
TORSDOF 4
ENDMDL
