MODEL 1
REMARK VINA RESULT:      -7.6      0.000      0.000
REMARK  Name = 
REMARK  3 active torsions:
REMARK  status: ('A' for Active; 'I' for Inactive)
REMARK    1  A    between atoms: C_1  and  N_2
REMARK    2  A    between atoms: C_8  and  C_9
REMARK    3  A    between atoms: C_11  and  N_12
REMARK                            x       y       z     vdW  Elec       q    Type
REMARK                         _______ _______ _______ _____ _____    ______ ____
ROOT
ATOM      1  C   UNL     1       5.284   4.346  16.890  0.00  0.00    +0.000 A 
ATOM      2  C   UNL     1       5.514   3.901  15.583  0.00  0.00    +0.000 A 
ATOM      3  C   UNL     1       6.479   4.522  14.803  0.00  0.00    +0.000 A 
ATOM      4  N   UNL     1       7.219   5.554  15.240  0.00  0.00    +0.000 NA
ATOM      5  C   UNL     1       6.997   5.994  16.487  0.00  0.00    +0.000 A 
ATOM      6  N   UNL     1       7.725   7.108  16.901  0.00  0.00    +0.000 N 
ATOM      7  C   UNL     1       6.051   5.432  17.331  0.00  0.00    +0.000 A 
ATOM      8  H   UNL     1       8.385   7.330  16.159  0.00  0.00    +0.000 HD
ATOM      9  H   UNL     1       8.182   6.962  17.792  0.00  0.00    +0.000 HD
ENDROOT
BRANCH   1  17
ATOM     10  C   UNL     1       1.824   5.963  20.601  0.00  0.00    +0.000 C 
ATOM     11  N   UNL     1       1.867   4.561  20.286  0.00  0.00    +0.000 N 
ATOM     12  C   UNL     1       1.119   3.573  20.863  0.00  0.00    +0.000 A 
ATOM     13  N   UNL     1       1.390   2.390  20.353  0.00  0.00    +0.000 NA
ATOM     14  C   UNL     1       2.357   2.628  19.410  0.00  0.00    +0.000 A 
ATOM     15  C   UNL     1       3.036   1.765  18.548  0.00  0.00    +0.000 A 
ATOM     16  C   UNL     1       3.994   2.339  17.703  0.00  0.00    +0.000 A 
ATOM     17  C   UNL     1       4.246   3.722  17.740  0.00  0.00    +0.000 A 
ATOM     18  N   UNL     1       3.577   4.582  18.553  0.00  0.00    +0.000 NA
ATOM     19  C   UNL     1       2.674   3.979  19.349  0.00  0.00    +0.000 A 
ENDBRANCH   1  17
BRANCH   3  20
ATOM     20  N   UNL     1       6.678   4.127  13.481  0.00  0.00    +0.000 N 
ATOM     21  H   UNL     1       7.017   4.884  12.901  0.00  0.00    +0.000 HD
ATOM     22  H   UNL     1       5.798   3.741  13.145  0.00  0.00    +0.000 HD
ENDBRANCH   3  20
TORSDOF 2
ENDMDL
MODEL 2
REMARK VINA RESULT:      -7.5      0.173      1.910
REMARK  Name = 
REMARK  3 active torsions:
REMARK  status: ('A' for Active; 'I' for Inactive)
REMARK    1  A    between atoms: C_1  and  N_2
REMARK    2  A    between atoms: C_8  and  C_9
REMARK    3  A    between atoms: C_11  and  N_12
REMARK                            x       y       z     vdW  Elec       q    Type
REMARK                         _______ _______ _______ _____ _____    ______ ____
ROOT
ATOM      1  C   UNL     1       5.157   4.275  16.791  0.00  0.00    +0.000 A 
ATOM      2  C   UNL     1       5.924   5.378  17.186  0.00  0.00    +0.000 A 
ATOM      3  C   UNL     1       6.882   5.895  16.326  0.00  0.00    +0.000 A 
ATOM      4  N   UNL     1       7.125   5.383  15.109  0.00  0.00    +0.000 NA
ATOM      5  C   UNL     1       6.402   4.319  14.728  0.00  0.00    +0.000 A 
ATOM      6  N   UNL     1       6.714   3.758  13.490  0.00  0.00    +0.000 N 
ATOM      7  C   UNL     1       5.428   3.740  15.526  0.00  0.00    +0.000 A 
ATOM      8  H   UNL     1       7.414   4.355  13.055  0.00  0.00    +0.000 HD
ATOM      9  H   UNL     1       5.897   3.633  12.905  0.00  0.00    +0.000 HD
ENDROOT
BRANCH   1  17
ATOM     10  C   UNL     1       1.867   6.020  20.597  0.00  0.00    +0.000 C 
ATOM     11  N   UNL     1       1.878   4.612  20.310  0.00  0.00    +0.000 N 
ATOM     12  C   UNL     1       1.139   3.648  20.937  0.00  0.00    +0.000 A 
ATOM     13  N   UNL     1       1.373   2.450  20.442  0.00  0.00    +0.000 NA
ATOM     14  C   UNL     1       2.306   2.654  19.458  0.00  0.00    +0.000 A 
ATOM     15  C   UNL     1       2.939   1.764  18.589  0.00  0.00    +0.000 A 
ATOM     16  C   UNL     1       3.871   2.306  17.696  0.00  0.00    +0.000 A 
ATOM     17  C   UNL     1       4.144   3.685  17.694  0.00  0.00    +0.000 A 
ATOM     18  N   UNL     1       3.519   4.572  18.513  0.00  0.00    +0.000 NA
ATOM     19  C   UNL     1       2.640   3.999  19.356  0.00  0.00    +0.000 A 
ENDBRANCH   1  17
BRANCH   3  20
ATOM     20  N   UNL     1       7.692   6.955  16.730  0.00  0.00    +0.000 N 
ATOM     21  H   UNL     1       7.263   7.511  17.459  0.00  0.00    +0.000 HD
ATOM     22  H   UNL     1       7.912   7.501  15.900  0.00  0.00    +0.000 HD
ENDBRANCH   3  20
TORSDOF 2
ENDMDL
MODEL 3
REMARK VINA RESULT:      -7.4      3.355      6.099
REMARK  Name = 
REMARK  3 active torsions:
REMARK  status: ('A' for Active; 'I' for Inactive)
REMARK    1  A    between atoms: C_1  and  N_2
REMARK    2  A    between atoms: C_8  and  C_9
REMARK    3  A    between atoms: C_11  and  N_12
REMARK                            x       y       z     vdW  Elec       q    Type
REMARK                         _______ _______ _______ _____ _____    ______ ____
ROOT
ATOM      1  C   UNL     1       2.635   5.552  19.858  0.00  0.00    +0.000 A 
ATOM      2  C   UNL     1       3.769   4.987  19.263  0.00  0.00    +0.000 A 
ATOM      3  C   UNL     1       4.141   3.689  19.582  0.00  0.00    +0.000 A 
ATOM      4  N   UNL     1       3.462   2.927  20.454  0.00  0.00    +0.000 NA
ATOM      5  C   UNL     1       2.380   3.464  21.037  0.00  0.00    +0.000 A 
ATOM      6  N   UNL     1       1.726   2.684  21.990  0.00  0.00    +0.000 N 
ATOM      7  C   UNL     1       1.942   4.754  20.777  0.00  0.00    +0.000 A 
ATOM      8  H   UNL     1       2.175   1.771  21.994  0.00  0.00    +0.000 HD
ATOM      9  H   UNL     1       0.730   2.623  21.822  0.00  0.00    +0.000 HD
ENDROOT
BRANCH   1  17
ATOM     10  C   UNL     1       0.271   9.544  22.472  0.00  0.00    +0.000 C 
ATOM     11  N   UNL     1       0.617   9.754  21.092  0.00  0.00    +0.000 N 
ATOM     12  C   UNL     1       0.379  10.880  20.356  0.00  0.00    +0.000 A 
ATOM     13  N   UNL     1       0.820  10.761  19.120  0.00  0.00    +0.000 NA
ATOM     14  C   UNL     1       1.359   9.502  19.061  0.00  0.00    +0.000 A 
ATOM     15  C   UNL     1       1.974   8.812  18.015  0.00  0.00    +0.000 A 
ATOM     16  C   UNL     1       2.410   7.509  18.286  0.00  0.00    +0.000 A 
ATOM     17  C   UNL     1       2.224   6.942  19.559  0.00  0.00    +0.000 A 
ATOM     18  N   UNL     1       1.652   7.607  20.598  0.00  0.00    +0.000 NA
ATOM     19  C   UNL     1       1.245   8.850  20.282  0.00  0.00    +0.000 A 
ENDBRANCH   1  17
BRANCH   3  20
ATOM     20  N   UNL     1       5.301   3.136  19.041  0.00  0.00    +0.000 N 
ATOM     21  H   UNL     1       6.076   3.155  19.692  0.00  0.00    +0.000 HD
ATOM     22  H   UNL     1       5.502   3.637  18.179  0.00  0.00    +0.000 HD
ENDBRANCH   3  20
TORSDOF 2
ENDMDL
MODEL 4
REMARK VINA RESULT:      -7.4      2.143      2.897
REMARK  Name = 
REMARK  3 active torsions:
REMARK  status: ('A' for Active; 'I' for Inactive)
REMARK    1  A    between atoms: C_1  and  N_2
REMARK    2  A    between atoms: C_8  and  C_9
REMARK    3  A    between atoms: C_11  and  N_12
REMARK                            x       y       z     vdW  Elec       q    Type
REMARK                         _______ _______ _______ _____ _____    ______ ____
ROOT
ATOM      1  C   UNL     1       5.595   5.308  18.468  0.00  0.00    +0.000 A 
ATOM      2  C   UNL     1       6.524   4.922  19.443  0.00  0.00    +0.000 A 
ATOM      3  C   UNL     1       7.735   5.592  19.545  0.00  0.00    +0.000 A 
ATOM      4  N   UNL     1       8.077   6.610  18.740  0.00  0.00    +0.000 NA
ATOM      5  C   UNL     1       7.198   6.978  17.796  0.00  0.00    +0.000 A 
ATOM      6  N   UNL     1       7.598   7.991  16.925  0.00  0.00    +0.000 N 
ATOM      7  C   UNL     1       5.968   6.361  17.625  0.00  0.00    +0.000 A 
ATOM      8  H   UNL     1       8.499   8.332  17.251  0.00  0.00    +0.000 HD
ATOM      9  H   UNL     1       6.911   8.730  16.851  0.00  0.00    +0.000 HD
ENDROOT
BRANCH   1  17
ATOM     10  C   UNL     1       1.901   3.245  21.702  0.00  0.00    +0.000 C 
ATOM     11  N   UNL     1       1.709   3.105  20.284  0.00  0.00    +0.000 N 
ATOM     12  C   UNL     1       0.673   2.466  19.663  0.00  0.00    +0.000 A 
ATOM     13  N   UNL     1       0.783   2.513  18.351  0.00  0.00    +0.000 NA
ATOM     14  C   UNL     1       1.943   3.209  18.122  0.00  0.00    +0.000 A 
ATOM     15  C   UNL     1       2.578   3.574  16.934  0.00  0.00    +0.000 A 
ATOM     16  C   UNL     1       3.780   4.283  17.051  0.00  0.00    +0.000 A 
ATOM     17  C   UNL     1       4.305   4.599  18.317  0.00  0.00    +0.000 A 
ATOM     18  N   UNL     1       3.687   4.277  19.485  0.00  0.00    +0.000 NA
ATOM     19  C   UNL     1       2.542   3.590  19.315  0.00  0.00    +0.000 A 
ENDBRANCH   1  17
BRANCH   3  20
ATOM     20  N   UNL     1       8.691   5.180  20.472  0.00  0.00    +0.000 N 
ATOM     21  H   UNL     1       8.420   5.394  21.424  0.00  0.00    +0.000 HD
ATOM     22  H   UNL     1       9.573   5.614  20.210  0.00  0.00    +0.000 HD
ENDBRANCH   3  20
TORSDOF 2
ENDMDL
MODEL 5
REMARK VINA RESULT:      -7.4      3.413      6.181
REMARK  Name = 
REMARK  3 active torsions:
REMARK  status: ('A' for Active; 'I' for Inactive)
REMARK    1  A    between atoms: C_1  and  N_2
REMARK    2  A    between atoms: C_8  and  C_9
REMARK    3  A    between atoms: C_11  and  N_12
REMARK                            x       y       z     vdW  Elec       q    Type
REMARK                         _______ _______ _______ _____ _____    ______ ____
ROOT
ATOM      1  C   UNL     1       2.664   5.507  19.903  0.00  0.00    +0.000 A 
ATOM      2  C   UNL     1       1.926   4.752  20.823  0.00  0.00    +0.000 A 
ATOM      3  C   UNL     1       2.321   3.457  21.127  0.00  0.00    +0.000 A 
ATOM      4  N   UNL     1       3.392   2.870  20.571  0.00  0.00    +0.000 NA
ATOM      5  C   UNL     1       4.097   3.581  19.679  0.00  0.00    +0.000 A 
ATOM      6  N   UNL     1       5.166   2.934  19.061  0.00  0.00    +0.000 N 
ATOM      7  C   UNL     1       3.771   4.880  19.318  0.00  0.00    +0.000 A 
ATOM      8  H   UNL     1       5.259   2.019  19.497  0.00  0.00    +0.000 HD
ATOM      9  H   UNL     1       6.023   3.471  19.106  0.00  0.00    +0.000 HD
ENDROOT
BRANCH   1  17
ATOM     10  C   UNL     1       0.322   9.627  22.330  0.00  0.00    +0.000 C 
ATOM     11  N   UNL     1       0.664   9.770  20.941  0.00  0.00    +0.000 N 
ATOM     12  C   UNL     1       0.427  10.860  20.152  0.00  0.00    +0.000 A 
ATOM     13  N   UNL     1       0.863  10.681  18.922  0.00  0.00    +0.000 NA
ATOM     14  C   UNL     1       1.398   9.418  18.921  0.00  0.00    +0.000 A 
ATOM     15  C   UNL     1       2.007   8.677  17.907  0.00  0.00    +0.000 A 
ATOM     16  C   UNL     1       2.440   7.387  18.239  0.00  0.00    +0.000 A 
ATOM     17  C   UNL     1       2.257   6.882  19.538  0.00  0.00    +0.000 A 
ATOM     18  N   UNL     1       1.690   7.598  20.547  0.00  0.00    +0.000 NA
ATOM     19  C   UNL     1       1.286   8.826  20.172  0.00  0.00    +0.000 A 
ENDBRANCH   1  17
BRANCH   3  20
ATOM     20  N   UNL     1       1.562   2.675  21.997  0.00  0.00    +0.000 N 
ATOM     21  H   UNL     1       2.133   2.041  22.541  0.00  0.00    +0.000 HD
ATOM     22  H   UNL     1       0.864   2.191  21.438  0.00  0.00    +0.000 HD
ENDBRANCH   3  20
TORSDOF 2
ENDMDL
MODEL 6
REMARK VINA RESULT:      -7.4      2.172      2.753
REMARK  Name = 
REMARK  3 active torsions:
REMARK  status: ('A' for Active; 'I' for Inactive)
REMARK    1  A    between atoms: C_1  and  N_2
REMARK    2  A    between atoms: C_8  and  C_9
REMARK    3  A    between atoms: C_11  and  N_12
REMARK                            x       y       z     vdW  Elec       q    Type
REMARK                         _______ _______ _______ _____ _____    ______ ____
ROOT
ATOM      1  C   UNL     1       5.644   5.251  18.428  0.00  0.00    +0.000 A 
ATOM      2  C   UNL     1       5.978   6.345  17.620  0.00  0.00    +0.000 A 
ATOM      3  C   UNL     1       7.199   6.982  17.791  0.00  0.00    +0.000 A 
ATOM      4  N   UNL     1       8.099   6.603  18.712  0.00  0.00    +0.000 NA
ATOM      5  C   UNL     1       7.782   5.563  19.498  0.00  0.00    +0.000 A 
ATOM      6  N   UNL     1       8.698   5.225  20.494  0.00  0.00    +0.000 N 
ATOM      7  C   UNL     1       6.584   4.874  19.396  0.00  0.00    +0.000 A 
ATOM      8  H   UNL     1       9.516   5.817  20.366  0.00  0.00    +0.000 HD
ATOM      9  H   UNL     1       8.930   4.241  20.488  0.00  0.00    +0.000 HD
ENDROOT
BRANCH   1  17
ATOM     10  C   UNL     1       1.930   3.286  21.698  0.00  0.00    +0.000 C 
ATOM     11  N   UNL     1       1.728   3.137  20.283  0.00  0.00    +0.000 N 
ATOM     12  C   UNL     1       0.678   2.510  19.673  0.00  0.00    +0.000 A 
ATOM     13  N   UNL     1       0.782   2.544  18.360  0.00  0.00    +0.000 NA
ATOM     14  C   UNL     1       1.953   3.217  18.118  0.00  0.00    +0.000 A 
ATOM     15  C   UNL     1       2.589   3.559  16.925  0.00  0.00    +0.000 A 
ATOM     16  C   UNL     1       3.804   4.247  17.030  0.00  0.00    +0.000 A 
ATOM     17  C   UNL     1       4.341   4.565  18.289  0.00  0.00    +0.000 A 
ATOM     18  N   UNL     1       3.723   4.265  19.463  0.00  0.00    +0.000 NA
ATOM     19  C   UNL     1       2.565   3.598  19.306  0.00  0.00    +0.000 A 
ENDBRANCH   1  17
BRANCH   3  20
ATOM     20  N   UNL     1       7.518   8.107  17.033  0.00  0.00    +0.000 N 
ATOM     21  H   UNL     1       7.029   8.125  16.147  0.00  0.00    +0.000 HD
ATOM     22  H   UNL     1       8.529   8.120  16.921  0.00  0.00    +0.000 HD
ENDBRANCH   3  20
TORSDOF 2
ENDMDL
MODEL 7
REMARK VINA RESULT:      -7.3      3.671      6.018
REMARK  Name = 
REMARK  3 active torsions:
REMARK  status: ('A' for Active; 'I' for Inactive)
REMARK    1  A    between atoms: C_1  and  N_2
REMARK    2  A    between atoms: C_8  and  C_9
REMARK    3  A    between atoms: C_11  and  N_12
REMARK                            x       y       z     vdW  Elec       q    Type
REMARK                         _______ _______ _______ _____ _____    ______ ____
ROOT
ATOM      1  C   UNL     1       3.037   4.760  19.933  0.00  0.00    +0.000 A 
ATOM      2  C   UNL     1       2.112   4.332  20.893  0.00  0.00    +0.000 A 
ATOM      3  C   UNL     1       2.267   3.092  21.497  0.00  0.00    +0.000 A 
ATOM      4  N   UNL     1       3.276   2.257  21.203  0.00  0.00    +0.000 NA
ATOM      5  C   UNL     1       4.160   2.654  20.276  0.00  0.00    +0.000 A 
ATOM      6  N   UNL     1       5.162   1.748  19.933  0.00  0.00    +0.000 N 
ATOM      7  C   UNL     1       4.077   3.875  19.623  0.00  0.00    +0.000 A 
ATOM      8  H   UNL     1       5.071   0.946  20.553  0.00  0.00    +0.000 HD
ATOM      9  H   UNL     1       6.086   2.159  19.970  0.00  0.00    +0.000 HD
ENDROOT
BRANCH   1  17
ATOM     10  C   UNL     1       0.388   9.298  20.794  0.00  0.00    +0.000 C 
ATOM     11  N   UNL     1       1.173   9.194  19.594  0.00  0.00    +0.000 N 
ATOM     12  C   UNL     1       1.297  10.143  18.618  0.00  0.00    +0.000 A 
ATOM     13  N   UNL     1       2.093   9.745  17.646  0.00  0.00    +0.000 NA
ATOM     14  C   UNL     1       2.492   8.485  18.013  0.00  0.00    +0.000 A 
ATOM     15  C   UNL     1       3.332   7.566  17.384  0.00  0.00    +0.000 A 
ATOM     16  C   UNL     1       3.524   6.338  18.030  0.00  0.00    +0.000 A 
ATOM     17  C   UNL     1       2.887   6.065  19.253  0.00  0.00    +0.000 A 
ATOM     18  N   UNL     1       2.086   6.957  19.895  0.00  0.00    +0.000 NA
ATOM     19  C   UNL     1       1.929   8.116  19.228  0.00  0.00    +0.000 A 
ENDBRANCH   1  17
BRANCH   3  20
ATOM     20  N   UNL     1       1.321   2.631  22.411  0.00  0.00    +0.000 N 
ATOM     21  H   UNL     1       0.590   3.310  22.583  0.00  0.00    +0.000 HD
ATOM     22  H   UNL     1       1.820   2.370  23.257  0.00  0.00    +0.000 HD
ENDBRANCH   3  20
TORSDOF 2
ENDMDL
MODEL 8
REMARK VINA RESULT:      -7.2      3.654      5.922
REMARK  Name = 
REMARK  3 active torsions:
REMARK  status: ('A' for Active; 'I' for Inactive)
REMARK    1  A    between atoms: C_1  and  N_2
REMARK    2  A    between atoms: C_8  and  C_9
REMARK    3  A    between atoms: C_11  and  N_12
REMARK                            x       y       z     vdW  Elec       q    Type
REMARK                         _______ _______ _______ _____ _____    ______ ____
ROOT
ATOM      1  C   UNL     1       2.935   4.786  19.820  0.00  0.00    +0.000 A 
ATOM      2  C   UNL     1       3.992   3.925  19.499  0.00  0.00    +0.000 A 
ATOM      3  C   UNL     1       4.094   2.693  20.128  0.00  0.00    +0.000 A 
ATOM      4  N   UNL     1       3.218   2.270  21.053  0.00  0.00    +0.000 NA
ATOM      5  C   UNL     1       2.209   3.093  21.376  0.00  0.00    +0.000 A 
ATOM      6  N   UNL     1       1.348   2.667  22.386  0.00  0.00    +0.000 N 
ATOM      7  C   UNL     1       2.035   4.341  20.797  0.00  0.00    +0.000 A 
ATOM      8  H   UNL     1       1.621   1.719  22.638  0.00  0.00    +0.000 HD
ATOM      9  H   UNL     1       0.374   2.728  22.117  0.00  0.00    +0.000 HD
ENDROOT
BRANCH   1  17
ATOM     10  C   UNL     1       0.365   9.337  20.835  0.00  0.00    +0.000 C 
ATOM     11  N   UNL     1       1.152   9.262  19.634  0.00  0.00    +0.000 N 
ATOM     12  C   UNL     1       1.295  10.242  18.692  0.00  0.00    +0.000 A 
ATOM     13  N   UNL     1       2.086   9.865  17.708  0.00  0.00    +0.000 NA
ATOM     14  C   UNL     1       2.462   8.585  18.031  0.00  0.00    +0.000 A 
ATOM     15  C   UNL     1       3.287   7.674  17.372  0.00  0.00    +0.000 A 
ATOM     16  C   UNL     1       3.455   6.421  17.975  0.00  0.00    +0.000 A 
ATOM     17  C   UNL     1       2.810   6.117  19.186  0.00  0.00    +0.000 A 
ATOM     18  N   UNL     1       2.023   7.000  19.857  0.00  0.00    +0.000 NA
ATOM     19  C   UNL     1       1.889   8.184  19.231  0.00  0.00    +0.000 A 
ENDBRANCH   1  17
BRANCH   3  20
ATOM     20  N   UNL     1       5.173   1.853  19.860  0.00  0.00    +0.000 N 
ATOM     21  H   UNL     1       6.044   2.361  19.778  0.00  0.00    +0.000 HD
ATOM     22  H   UNL     1       4.946   1.327  19.019  0.00  0.00    +0.000 HD
ENDBRANCH   3  20
TORSDOF 2
ENDMDL
MODEL 9
REMARK VINA RESULT:      -7.2      1.859      3.569
REMARK  Name = 
REMARK  3 active torsions:
REMARK  status: ('A' for Active; 'I' for Inactive)
REMARK    1  A    between atoms: C_1  and  N_2
REMARK    2  A    between atoms: C_8  and  C_9
REMARK    3  A    between atoms: C_11  and  N_12
REMARK                            x       y       z     vdW  Elec       q    Type
REMARK                         _______ _______ _______ _____ _____    ______ ____
ROOT
ATOM      1  C   UNL     1       5.891   4.645  14.839  0.00  0.00    +0.000 A 
ATOM      2  C   UNL     1       7.017   5.412  14.515  0.00  0.00    +0.000 A 
ATOM      3  C   UNL     1       7.682   5.189  13.317  0.00  0.00    +0.000 A 
ATOM      4  N   UNL     1       7.301   4.254  12.433  0.00  0.00    +0.000 NA
ATOM      5  C   UNL     1       6.230   3.507  12.741  0.00  0.00    +0.000 A 
ATOM      6  N   UNL     1       5.889   2.496  11.843  0.00  0.00    +0.000 N 
ATOM      7  C   UNL     1       5.511   3.663  13.916  0.00  0.00    +0.000 A 
ATOM      8  H   UNL     1       6.506   2.584  11.039  0.00  0.00    +0.000 HD
ATOM      9  H   UNL     1       4.911   2.524  11.583  0.00  0.00    +0.000 HD
ENDROOT
BRANCH   1  17
ATOM     10  C   UNL     1       3.521   1.551  18.466  0.00  0.00    +0.000 C 
ATOM     11  N   UNL     1       3.486   2.974  18.669  0.00  0.00    +0.000 N 
ATOM     12  C   UNL     1       2.877   3.634  19.699  0.00  0.00    +0.000 A 
ATOM     13  N   UNL     1       3.027   4.939  19.602  0.00  0.00    +0.000 NA
ATOM     14  C   UNL     1       3.759   5.124  18.457  0.00  0.00    +0.000 A 
ATOM     15  C   UNL     1       4.224   6.284  17.838  0.00  0.00    +0.000 A 
ATOM     16  C   UNL     1       4.944   6.123  16.648  0.00  0.00    +0.000 A 
ATOM     17  C   UNL     1       5.173   4.841  16.118  0.00  0.00    +0.000 A 
ATOM     18  N   UNL     1       4.751   3.696  16.719  0.00  0.00    +0.000 NA
ATOM     19  C   UNL     1       4.059   3.909  17.853  0.00  0.00    +0.000 A 
ENDBRANCH   1  17
BRANCH   3  20
ATOM     20  N   UNL     1       8.838   5.905  13.010  0.00  0.00    +0.000 N 
ATOM     21  H   UNL     1       9.665   5.495  13.425  0.00  0.00    +0.000 HD
ATOM     22  H   UNL     1       8.687   6.866  13.308  0.00  0.00    +0.000 HD
ENDBRANCH   3  20
TORSDOF 2
ENDMDL
