MODEL 1
REMARK VINA RESULT:      -9.0      0.000      0.000
REMARK  Name = 
REMARK  11 active torsions:
REMARK  status: ('A' for Active; 'I' for Inactive)
REMARK    1  A    between atoms: C_1  and  C_2
REMARK    2  A    between atoms: C_2  and  C_3
REMARK    3  A    between atoms: C_4  and  C_5
REMARK    4  A    between atoms: C_5  and  C_7
REMARK    5  A    between atoms: N_9  and  C_10
REMARK    6  A    between atoms: C_10  and  C_11
REMARK    7  A    between atoms: C_20  and  O_21
REMARK    8  A    between atoms: O_21  and  C_22
REMARK    9  A    between atoms: C_22  and  C_23
REMARK   10  A    between atoms: C_31  and  C_32
REMARK   11  A    between atoms: C_31  and  C_33
REMARK                            x       y       z     vdW  Elec       q    Type
REMARK                         _______ _______ _______ _____ _____    ______ ____
ROOT
ATOM      1  C   UNL     1       2.209   7.788  19.033  0.00  0.00    +0.000 A 
ATOM      2  C   UNL     1       1.791   7.065  20.134  0.00  0.00    +0.000 A 
ATOM      3  N   UNL     1       2.473   5.867  20.158  0.00  0.00    +0.000 N 
ATOM      4  C   UNL     1       3.384   5.820  19.124  0.00  0.00    +0.000 A 
ATOM      5  C   UNL     1       4.348   4.865  18.755  0.00  0.00    +0.000 A 
ATOM      6  C   UNL     1       5.183   5.157  17.666  0.00  0.00    +0.000 A 
ATOM      7  C   UNL     1       5.060   6.347  16.957  0.00  0.00    +0.000 A 
ATOM      8  C   UNL     1       4.044   7.241  17.283  0.00  0.00    +0.000 A 
ATOM      9  C   UNL     1       3.220   7.000  18.396  0.00  0.00    +0.000 A 
ENDROOT
BRANCH   1  10
ATOM     10  C   UNL     1       1.782   9.101  18.568  0.00  0.00    +0.000 C 
ATOM     11  O   UNL     1       1.981   9.465  17.414  0.00  0.00    +0.000 OA
BRANCH  10  15
ATOM     12  C   UNL     1      -0.907  10.553  18.055  0.00  0.00    +0.000 C 
ATOM     13  C   UNL     1      -0.161  10.738  19.363  0.00  0.00    +0.000 C 
ATOM     14  C   UNL     1      -1.109  10.866  20.535  0.00  0.00    +0.000 C 
ATOM     15  C   UNL     1       1.164  10.016  19.580  0.00  0.00    +0.000 C 
ATOM     16  C   UNL     1       1.157  11.538  19.395  0.00  0.00    +0.000 C 
ATOM     17  C   UNL     1       1.651  12.201  18.121  0.00  0.00    +0.000 C 
ATOM     18  C   UNL     1       1.553  12.352  20.611  0.00  0.00    +0.000 C 
ENDBRANCH  10  15
ENDBRANCH   1  10
BRANCH   3  19
ATOM     19  C   UNL     1       2.343   4.876  21.214  0.00  0.00    +0.000 C 
BRANCH  19  20
ATOM     20  C   UNL     1       1.878   3.477  20.752  0.00  0.00    +0.000 C 
ATOM     21  C   UNL     1       3.071   2.605  20.322  0.00  0.00    +0.000 C 
ATOM     22  C   UNL     1       2.688   1.453  19.407  0.00  0.00    +0.000 C 
ATOM     23  O   UNL     1       1.901   1.922  18.318  0.00  0.00    +0.000 OA
ATOM     24  C   UNL     1       0.645   2.415  18.770  0.00  0.00    +0.000 C 
ATOM     25  C   UNL     1       0.843   3.657  19.624  0.00  0.00    +0.000 C 
ENDBRANCH  19  20
ENDBRANCH   3  19
BRANCH   7  26
ATOM     26  O   UNL     1       5.978   6.571  15.966  0.00  0.00    +0.000 OA
BRANCH  26  27
ATOM     27  C   UNL     1       6.955   5.535  15.814  0.00  0.00    +0.000 C 
BRANCH  27  28
ATOM     28  C   UNL     1       6.785   4.919  14.453  0.00  0.00    +0.000 A 
ATOM     29  C   UNL     1       5.745   4.018  14.200  0.00  0.00    +0.000 A 
ATOM     30  C   UNL     1       5.618   3.428  12.942  0.00  0.00    +0.000 A 
ATOM     31  C   UNL     1       6.531   3.731  11.933  0.00  0.00    +0.000 A 
ATOM     32  C   UNL     1       7.572   4.629  12.175  0.00  0.00    +0.000 A 
ATOM     33  C   UNL     1       7.699   5.219  13.432  0.00  0.00    +0.000 A 
ENDBRANCH  27  28
ENDBRANCH  26  27
ENDBRANCH   7  26
TORSDOF 7
ENDMDL
MODEL 2
REMARK VINA RESULT:      -8.8      1.555      6.167
REMARK  Name = 
REMARK  11 active torsions:
REMARK  status: ('A' for Active; 'I' for Inactive)
REMARK    1  A    between atoms: C_1  and  C_2
REMARK    2  A    between atoms: C_2  and  C_3
REMARK    3  A    between atoms: C_4  and  C_5
REMARK    4  A    between atoms: C_5  and  C_7
REMARK    5  A    between atoms: N_9  and  C_10
REMARK    6  A    between atoms: C_10  and  C_11
REMARK    7  A    between atoms: C_20  and  O_21
REMARK    8  A    between atoms: O_21  and  C_22
REMARK    9  A    between atoms: C_22  and  C_23
REMARK   10  A    between atoms: C_31  and  C_32
REMARK   11  A    between atoms: C_31  and  C_33
REMARK                            x       y       z     vdW  Elec       q    Type
REMARK                         _______ _______ _______ _____ _____    ______ ____
ROOT
ATOM      1  C   UNL     1       2.576   6.220  19.365  0.00  0.00    +0.000 A 
ATOM      2  C   UNL     1       1.847   7.381  19.190  0.00  0.00    +0.000 A 
ATOM      3  N   UNL     1       2.458   8.140  18.214  0.00  0.00    +0.000 N 
ATOM      4  C   UNL     1       3.544   7.464  17.698  0.00  0.00    +0.000 A 
ATOM      5  C   UNL     1       4.443   7.770  16.662  0.00  0.00    +0.000 A 
ATOM      6  C   UNL     1       5.417   6.816  16.330  0.00  0.00    +0.000 A 
ATOM      7  C   UNL     1       5.507   5.606  17.011  0.00  0.00    +0.000 A 
ATOM      8  C   UNL     1       4.664   5.358  18.090  0.00  0.00    +0.000 A 
ATOM      9  C   UNL     1       3.648   6.273  18.418  0.00  0.00    +0.000 A 
ENDROOT
BRANCH   1  10
ATOM     10  C   UNL     1       2.347   5.110  20.281  0.00  0.00    +0.000 C 
ATOM     11  O   UNL     1       1.658   5.244  21.286  0.00  0.00    +0.000 OA
BRANCH  10  15
ATOM     12  C   UNL     1       0.924   2.721  18.913  0.00  0.00    +0.000 C 
ATOM     13  C   UNL     1       2.387   2.634  19.306  0.00  0.00    +0.000 C 
ATOM     14  C   UNL     1       3.189   1.837  18.300  0.00  0.00    +0.000 C 
ATOM     15  C   UNL     1       3.055   3.823  19.984  0.00  0.00    +0.000 C 
ATOM     16  C   UNL     1       2.785   2.549  20.793  0.00  0.00    +0.000 C 
ATOM     17  C   UNL     1       1.696   2.474  21.848  0.00  0.00    +0.000 C 
ATOM     18  C   UNL     1       4.013   1.777  21.235  0.00  0.00    +0.000 C 
ENDBRANCH  10  15
ENDBRANCH   1  10
BRANCH   3  19
ATOM     19  C   UNL     1       1.933   9.401  17.713  0.00  0.00    +0.000 C 
BRANCH  19  20
ATOM     20  C   UNL     1       0.934  10.117  18.649  0.00  0.00    +0.000 C 
ATOM     21  C   UNL     1      -0.496  10.068  18.083  0.00  0.00    +0.000 C 
ATOM     22  C   UNL     1      -1.414  11.141  18.646  0.00  0.00    +0.000 C 
ATOM     23  O   UNL     1      -0.802  12.422  18.546  0.00  0.00    +0.000 OA
ATOM     24  C   UNL     1       0.350  12.505  19.377  0.00  0.00    +0.000 C 
ATOM     25  C   UNL     1       1.429  11.559  18.877  0.00  0.00    +0.000 C 
ENDBRANCH  19  20
ENDBRANCH   3  19
BRANCH   7  26
ATOM     26  O   UNL     1       6.438   4.711  16.555  0.00  0.00    +0.000 OA
BRANCH  26  27
ATOM     27  C   UNL     1       5.915   3.696  15.690  0.00  0.00    +0.000 C 
BRANCH  27  28
ATOM     28  C   UNL     1       6.366   3.991  14.286  0.00  0.00    +0.000 A 
ATOM     29  C   UNL     1       5.798   3.323  13.196  0.00  0.00    +0.000 A 
ATOM     30  C   UNL     1       6.247   3.582  11.902  0.00  0.00    +0.000 A 
ATOM     31  C   UNL     1       7.269   4.507  11.689  0.00  0.00    +0.000 A 
ATOM     32  C   UNL     1       7.841   5.180  12.770  0.00  0.00    +0.000 A 
ATOM     33  C   UNL     1       7.392   4.921  14.064  0.00  0.00    +0.000 A 
ENDBRANCH  27  28
ENDBRANCH  26  27
ENDBRANCH   7  26
TORSDOF 7
ENDMDL
MODEL 3
REMARK VINA RESULT:      -8.7      0.569      1.144
REMARK  Name = 
REMARK  11 active torsions:
REMARK  status: ('A' for Active; 'I' for Inactive)
REMARK    1  A    between atoms: C_1  and  C_2
REMARK    2  A    between atoms: C_2  and  C_3
REMARK    3  A    between atoms: C_4  and  C_5
REMARK    4  A    between atoms: C_5  and  C_7
REMARK    5  A    between atoms: N_9  and  C_10
REMARK    6  A    between atoms: C_10  and  C_11
REMARK    7  A    between atoms: C_20  and  O_21
REMARK    8  A    between atoms: O_21  and  C_22
REMARK    9  A    between atoms: C_22  and  C_23
REMARK   10  A    between atoms: C_31  and  C_32
REMARK   11  A    between atoms: C_31  and  C_33
REMARK                            x       y       z     vdW  Elec       q    Type
REMARK                         _______ _______ _______ _____ _____    ______ ____
ROOT
ATOM      1  C   UNL     1       2.253   7.764  18.803  0.00  0.00    +0.000 A 
ATOM      2  C   UNL     1       1.796   7.080  19.914  0.00  0.00    +0.000 A 
ATOM      3  N   UNL     1       2.511   5.906  20.030  0.00  0.00    +0.000 N 
ATOM      4  C   UNL     1       3.477   5.840  19.048  0.00  0.00    +0.000 A 
ATOM      5  C   UNL     1       4.486   4.900  18.777  0.00  0.00    +0.000 A 
ATOM      6  C   UNL     1       5.370   5.167  17.721  0.00  0.00    +0.000 A 
ATOM      7  C   UNL     1       5.251   6.320  16.951  0.00  0.00    +0.000 A 
ATOM      8  C   UNL     1       4.195   7.195  17.180  0.00  0.00    +0.000 A 
ATOM      9  C   UNL     1       3.319   6.980  18.258  0.00  0.00    +0.000 A 
ENDROOT
BRANCH   1  10
ATOM     10  C   UNL     1       1.814   9.041  18.254  0.00  0.00    +0.000 C 
ATOM     11  O   UNL     1       2.528   9.689  17.497  0.00  0.00    +0.000 OA
BRANCH  10  15
ATOM     12  C   UNL     1       1.249  12.073  18.548  0.00  0.00    +0.000 C 
ATOM     13  C   UNL     1       0.177  11.048  18.866  0.00  0.00    +0.000 C 
ATOM     14  C   UNL     1      -1.198  11.536  18.465  0.00  0.00    +0.000 C 
ATOM     15  C   UNL     1       0.489   9.564  18.719  0.00  0.00    +0.000 C 
ATOM     16  C   UNL     1       0.303  10.160  20.119  0.00  0.00    +0.000 C 
ATOM     17  C   UNL     1       1.469  10.379  21.067  0.00  0.00    +0.000 C 
ATOM     18  C   UNL     1      -0.923   9.691  20.877  0.00  0.00    +0.000 C 
ENDBRANCH  10  15
ENDBRANCH   1  10
BRANCH   3  19
ATOM     19  C   UNL     1       2.351   4.961  21.124  0.00  0.00    +0.000 C 
BRANCH  19  20
ATOM     20  C   UNL     1       1.900   3.543  20.709  0.00  0.00    +0.000 C 
ATOM     21  C   UNL     1       3.097   2.680  20.272  0.00  0.00    +0.000 C 
ATOM     22  C   UNL     1       2.712   1.499  19.396  0.00  0.00    +0.000 C 
ATOM     23  O   UNL     1       1.890   1.926  18.315  0.00  0.00    +0.000 OA
ATOM     24  C   UNL     1       0.637   2.409  18.787  0.00  0.00    +0.000 C 
ATOM     25  C   UNL     1       0.834   3.676  19.603  0.00  0.00    +0.000 C 
ENDBRANCH  19  20
ENDBRANCH   3  19
BRANCH   7  26
ATOM     26  O   UNL     1       6.215   6.526  16.000  0.00  0.00    +0.000 OA
BRANCH  26  27
ATOM     27  C   UNL     1       7.109   5.423  15.808  0.00  0.00    +0.000 C 
BRANCH  27  28
ATOM     28  C   UNL     1       6.875   4.855  14.436  0.00  0.00    +0.000 A 
ATOM     29  C   UNL     1       5.838   3.945  14.206  0.00  0.00    +0.000 A 
ATOM     30  C   UNL     1       5.651   3.400  12.935  0.00  0.00    +0.000 A 
ATOM     31  C   UNL     1       6.501   3.758  11.890  0.00  0.00    +0.000 A 
ATOM     32  C   UNL     1       7.538   4.667  12.109  0.00  0.00    +0.000 A 
ATOM     33  C   UNL     1       7.725   5.211  13.379  0.00  0.00    +0.000 A 
ENDBRANCH  27  28
ENDBRANCH  26  27
ENDBRANCH   7  26
TORSDOF 7
ENDMDL
MODEL 4
REMARK VINA RESULT:      -8.6      1.573      6.178
REMARK  Name = 
REMARK  11 active torsions:
REMARK  status: ('A' for Active; 'I' for Inactive)
REMARK    1  A    between atoms: C_1  and  C_2
REMARK    2  A    between atoms: C_2  and  C_3
REMARK    3  A    between atoms: C_4  and  C_5
REMARK    4  A    between atoms: C_5  and  C_7
REMARK    5  A    between atoms: N_9  and  C_10
REMARK    6  A    between atoms: C_10  and  C_11
REMARK    7  A    between atoms: C_20  and  O_21
REMARK    8  A    between atoms: O_21  and  C_22
REMARK    9  A    between atoms: C_22  and  C_23
REMARK   10  A    between atoms: C_31  and  C_32
REMARK   11  A    between atoms: C_31  and  C_33
REMARK                            x       y       z     vdW  Elec       q    Type
REMARK                         _______ _______ _______ _____ _____    ______ ____
ROOT
ATOM      1  C   UNL     1       2.587   6.215  19.244  0.00  0.00    +0.000 A 
ATOM      2  C   UNL     1       1.914   7.417  19.128  0.00  0.00    +0.000 A 
ATOM      3  N   UNL     1       2.600   8.220  18.241  0.00  0.00    +0.000 N 
ATOM      4  C   UNL     1       3.680   7.537  17.721  0.00  0.00    +0.000 A 
ATOM      5  C   UNL     1       4.637   7.880  16.750  0.00  0.00    +0.000 A 
ATOM      6  C   UNL     1       5.586   6.912  16.388  0.00  0.00    +0.000 A 
ATOM      7  C   UNL     1       5.596   5.652  16.977  0.00  0.00    +0.000 A 
ATOM      8  C   UNL     1       4.695   5.361  17.996  0.00  0.00    +0.000 A 
ATOM      9  C   UNL     1       3.702   6.292  18.351  0.00  0.00    +0.000 A 
ENDROOT
BRANCH   1  10
ATOM     10  C   UNL     1       2.271   5.050  20.061  0.00  0.00    +0.000 C 
ATOM     11  O   UNL     1       2.307   5.102  21.285  0.00  0.00    +0.000 OA
BRANCH  10  15
ATOM     12  C   UNL     1       1.385   2.482  21.551  0.00  0.00    +0.000 C 
ATOM     13  C   UNL     1       1.537   2.492  20.042  0.00  0.00    +0.000 C 
ATOM     14  C   UNL     1       0.491   1.631  19.369  0.00  0.00    +0.000 C 
ATOM     15  C   UNL     1       1.983   3.769  19.340  0.00  0.00    +0.000 C 
ATOM     16  C   UNL     1       2.940   2.573  19.406  0.00  0.00    +0.000 C 
ATOM     17  C   UNL     1       4.162   2.562  20.307  0.00  0.00    +0.000 C 
ATOM     18  C   UNL     1       3.243   1.898  18.083  0.00  0.00    +0.000 C 
ENDBRANCH  10  15
ENDBRANCH   1  10
BRANCH   3  19
ATOM     19  C   UNL     1       2.150   9.536  17.817  0.00  0.00    +0.000 C 
BRANCH  19  20
ATOM     20  C   UNL     1       1.007  10.145  18.660  0.00  0.00    +0.000 C 
ATOM     21  C   UNL     1      -0.355   9.971  17.964  0.00  0.00    +0.000 C 
ATOM     22  C   UNL     1      -1.416  10.947  18.444  0.00  0.00    +0.000 C 
ATOM     23  O   UNL     1      -0.921  12.281  18.406  0.00  0.00    +0.000 OA
ATOM     24  C   UNL     1       0.139  12.460  19.340  0.00  0.00    +0.000 C 
ATOM     25  C   UNL     1       1.342  11.624  18.937  0.00  0.00    +0.000 C 
ENDBRANCH  19  20
ENDBRANCH   3  19
BRANCH   7  26
ATOM     26  O   UNL     1       6.510   4.754  16.493  0.00  0.00    +0.000 OA
BRANCH  26  27
ATOM     27  C   UNL     1       5.959   3.745  15.638  0.00  0.00    +0.000 C 
BRANCH  27  28
ATOM     28  C   UNL     1       6.438   3.999  14.236  0.00  0.00    +0.000 A 
ATOM     29  C   UNL     1       7.406   4.975  13.976  0.00  0.00    +0.000 A 
ATOM     30  C   UNL     1       7.818   5.224  12.667  0.00  0.00    +0.000 A 
ATOM     31  C   UNL     1       7.261   4.503  11.610  0.00  0.00    +0.000 A 
ATOM     32  C   UNL     1       6.296   3.526  11.859  0.00  0.00    +0.000 A 
ATOM     33  C   UNL     1       5.884   3.277  13.169  0.00  0.00    +0.000 A 
ENDBRANCH  27  28
ENDBRANCH  26  27
ENDBRANCH   7  26
TORSDOF 7
ENDMDL
MODEL 5
REMARK VINA RESULT:      -8.4      1.599      6.226
REMARK  Name = 
REMARK  11 active torsions:
REMARK  status: ('A' for Active; 'I' for Inactive)
REMARK    1  A    between atoms: C_1  and  C_2
REMARK    2  A    between atoms: C_2  and  C_3
REMARK    3  A    between atoms: C_4  and  C_5
REMARK    4  A    between atoms: C_5  and  C_7
REMARK    5  A    between atoms: N_9  and  C_10
REMARK    6  A    between atoms: C_10  and  C_11
REMARK    7  A    between atoms: C_20  and  O_21
REMARK    8  A    between atoms: O_21  and  C_22
REMARK    9  A    between atoms: C_22  and  C_23
REMARK   10  A    between atoms: C_31  and  C_32
REMARK   11  A    between atoms: C_31  and  C_33
REMARK                            x       y       z     vdW  Elec       q    Type
REMARK                         _______ _______ _______ _____ _____    ______ ____
ROOT
ATOM      1  C   UNL     1       2.699   6.143  19.159  0.00  0.00    +0.000 A 
ATOM      2  C   UNL     1       2.121   7.399  19.136  0.00  0.00    +0.000 A 
ATOM      3  N   UNL     1       2.713   8.136  18.132  0.00  0.00    +0.000 N 
ATOM      4  C   UNL     1       3.626   7.360  17.449  0.00  0.00    +0.000 A 
ATOM      5  C   UNL     1       4.431   7.615  16.325  0.00  0.00    +0.000 A 
ATOM      6  C   UNL     1       5.218   6.567  15.826  0.00  0.00    +0.000 A 
ATOM      7  C   UNL     1       5.219   5.312  16.426  0.00  0.00    +0.000 A 
ATOM      8  C   UNL     1       4.483   5.104  17.588  0.00  0.00    +0.000 A 
ATOM      9  C   UNL     1       3.649   6.119  18.088  0.00  0.00    +0.000 A 
ENDROOT
BRANCH   1  10
ATOM     10  C   UNL     1       2.428   5.013  20.038  0.00  0.00    +0.000 C 
ATOM     11  O   UNL     1       1.690   5.124  21.010  0.00  0.00    +0.000 OA
BRANCH  10  15
ATOM     12  C   UNL     1       0.973   2.500  18.954  0.00  0.00    +0.000 C 
ATOM     13  C   UNL     1       2.469   2.484  19.208  0.00  0.00    +0.000 C 
ATOM     14  C   UNL     1       3.202   1.655  18.176  0.00  0.00    +0.000 C 
ATOM     15  C   UNL     1       3.153   3.734  19.748  0.00  0.00    +0.000 C 
ATOM     16  C   UNL     1       3.010   2.503  20.652  0.00  0.00    +0.000 C 
ATOM     17  C   UNL     1       2.029   2.458  21.810  0.00  0.00    +0.000 C 
ATOM     18  C   UNL     1       4.302   1.800  21.017  0.00  0.00    +0.000 C 
ENDBRANCH  10  15
ENDBRANCH   1  10
BRANCH   3  19
ATOM     19  C   UNL     1       2.312   9.485  17.767  0.00  0.00    +0.000 C 
BRANCH  19  20
ATOM     20  C   UNL     1       1.165  10.084  18.612  0.00  0.00    +0.000 C 
ATOM     21  C   UNL     1      -0.204   9.829  17.957  0.00  0.00    +0.000 C 
ATOM     22  C   UNL     1      -1.292  10.782  18.423  0.00  0.00    +0.000 C 
ATOM     23  O   UNL     1      -0.851  12.131  18.320  0.00  0.00    +0.000 OA
ATOM     24  C   UNL     1       0.221  12.389  19.220  0.00  0.00    +0.000 C 
ATOM     25  C   UNL     1       1.448  11.584  18.822  0.00  0.00    +0.000 C 
ENDBRANCH  19  20
ENDBRANCH   3  19
BRANCH   7  26
ATOM     26  O   UNL     1       5.957   4.336  15.811  0.00  0.00    +0.000 OA
BRANCH  26  27
ATOM     27  C   UNL     1       6.711   4.784  14.678  0.00  0.00    +0.000 C 
BRANCH  27  28
ATOM     28  C   UNL     1       6.269   3.999  13.475  0.00  0.00    +0.000 A 
ATOM     29  C   UNL     1       7.206   3.395  12.630  0.00  0.00    +0.000 A 
ATOM     30  C   UNL     1       6.785   2.697  11.498  0.00  0.00    +0.000 A 
ATOM     31  C   UNL     1       5.425   2.603  11.201  0.00  0.00    +0.000 A 
ATOM     32  C   UNL     1       4.482   3.201  12.039  0.00  0.00    +0.000 A 
ATOM     33  C   UNL     1       4.904   3.899  13.171  0.00  0.00    +0.000 A 
ENDBRANCH  27  28
ENDBRANCH  26  27
ENDBRANCH   7  26
TORSDOF 7
ENDMDL
MODEL 6
REMARK VINA RESULT:      -8.4      1.999      7.173
REMARK  Name = 
REMARK  11 active torsions:
REMARK  status: ('A' for Active; 'I' for Inactive)
REMARK    1  A    between atoms: C_1  and  C_2
REMARK    2  A    between atoms: C_2  and  C_3
REMARK    3  A    between atoms: C_4  and  C_5
REMARK    4  A    between atoms: C_5  and  C_7
REMARK    5  A    between atoms: N_9  and  C_10
REMARK    6  A    between atoms: C_10  and  C_11
REMARK    7  A    between atoms: C_20  and  O_21
REMARK    8  A    between atoms: O_21  and  C_22
REMARK    9  A    between atoms: C_22  and  C_23
REMARK   10  A    between atoms: C_31  and  C_32
REMARK   11  A    between atoms: C_31  and  C_33
REMARK                            x       y       z     vdW  Elec       q    Type
REMARK                         _______ _______ _______ _____ _____    ______ ____
ROOT
ATOM      1  C   UNL     1       2.968   7.964  17.711  0.00  0.00    +0.000 A 
ATOM      2  C   UNL     1       2.440   9.237  17.605  0.00  0.00    +0.000 A 
ATOM      3  N   UNL     1       1.561   9.436  18.649  0.00  0.00    +0.000 N 
ATOM      4  C   UNL     1       1.553   8.334  19.478  0.00  0.00    +0.000 A 
ATOM      5  C   UNL     1       0.890   8.066  20.688  0.00  0.00    +0.000 A 
ATOM      6  C   UNL     1       1.157   6.848  21.331  0.00  0.00    +0.000 A 
ATOM      7  C   UNL     1       2.038   5.919  20.787  0.00  0.00    +0.000 A 
ATOM      8  C   UNL     1       2.618   6.165  19.546  0.00  0.00    +0.000 A 
ATOM      9  C   UNL     1       2.408   7.395  18.898  0.00  0.00    +0.000 A 
ENDROOT
BRANCH   1  10
ATOM     10  C   UNL     1       3.926   7.282  16.850  0.00  0.00    +0.000 C 
ATOM     11  O   UNL     1       4.140   7.666  15.705  0.00  0.00    +0.000 OA
BRANCH  10  15
ATOM     12  C   UNL     1       6.952   7.159  17.504  0.00  0.00    +0.000 C 
ATOM     13  C   UNL     1       6.057   5.956  17.734  0.00  0.00    +0.000 C 
ATOM     14  C   UNL     1       6.465   5.185  18.971  0.00  0.00    +0.000 C 
ATOM     15  C   UNL     1       4.575   6.046  17.395  0.00  0.00    +0.000 C 
ATOM     16  C   UNL     1       5.492   5.171  16.534  0.00  0.00    +0.000 C 
ATOM     17  C   UNL     1       5.907   5.568  15.128  0.00  0.00    +0.000 C 
ATOM     18  C   UNL     1       5.246   3.677  16.617  0.00  0.00    +0.000 C 
ENDBRANCH  10  15
ENDBRANCH   1  10
BRANCH   3  19
ATOM     19  C   UNL     1       0.867  10.688  18.902  0.00  0.00    +0.000 C 
BRANCH  19  20
ATOM     20  C   UNL     1      -0.668  10.574  19.045  0.00  0.00    +0.000 C 
ATOM     21  C   UNL     1      -1.311  10.037  17.754  0.00  0.00    +0.000 C 
ATOM     22  C   UNL     1      -2.789  10.366  17.624  0.00  0.00    +0.000 C 
ATOM     23  O   UNL     1      -3.012  11.755  17.840  0.00  0.00    +0.000 OA
ATOM     24  C   UNL     1      -2.709  12.119  19.182  0.00  0.00    +0.000 C 
ATOM     25  C   UNL     1      -1.222  11.954  19.450  0.00  0.00    +0.000 C 
ENDBRANCH  19  20
ENDBRANCH   3  19
BRANCH   7  26
ATOM     26  O   UNL     1       2.291   4.800  21.534  0.00  0.00    +0.000 OA
BRANCH  26  27
ATOM     27  C   UNL     1       1.504   3.657  21.181  0.00  0.00    +0.000 C 
BRANCH  27  28
ATOM     28  C   UNL     1       2.241   2.882  20.123  0.00  0.00    +0.000 A 
ATOM     29  C   UNL     1       1.616   2.544  18.918  0.00  0.00    +0.000 A 
ATOM     30  C   UNL     1       2.300   1.797  17.958  0.00  0.00    +0.000 A 
ATOM     31  C   UNL     1       3.609   1.381  18.199  0.00  0.00    +0.000 A 
ATOM     32  C   UNL     1       4.242   1.715  19.398  0.00  0.00    +0.000 A 
ATOM     33  C   UNL     1       3.558   2.461  20.358  0.00  0.00    +0.000 A 
ENDBRANCH  27  28
ENDBRANCH  26  27
ENDBRANCH   7  26
TORSDOF 7
ENDMDL
MODEL 7
REMARK VINA RESULT:      -8.4      1.525      6.121
REMARK  Name = 
REMARK  11 active torsions:
REMARK  status: ('A' for Active; 'I' for Inactive)
REMARK    1  A    between atoms: C_1  and  C_2
REMARK    2  A    between atoms: C_2  and  C_3
REMARK    3  A    between atoms: C_4  and  C_5
REMARK    4  A    between atoms: C_5  and  C_7
REMARK    5  A    between atoms: N_9  and  C_10
REMARK    6  A    between atoms: C_10  and  C_11
REMARK    7  A    between atoms: C_20  and  O_21
REMARK    8  A    between atoms: O_21  and  C_22
REMARK    9  A    between atoms: C_22  and  C_23
REMARK   10  A    between atoms: C_31  and  C_32
REMARK   11  A    between atoms: C_31  and  C_33
REMARK                            x       y       z     vdW  Elec       q    Type
REMARK                         _______ _______ _______ _____ _____    ______ ____
ROOT
ATOM      1  C   UNL     1       2.425   5.900  18.089  0.00  0.00    +0.000 A 
ATOM      2  C   UNL     1       1.726   7.090  18.168  0.00  0.00    +0.000 A 
ATOM      3  N   UNL     1       2.600   8.129  17.928  0.00  0.00    +0.000 N 
ATOM      4  C   UNL     1       3.853   7.636  17.628  0.00  0.00    +0.000 A 
ATOM      5  C   UNL     1       5.052   8.265  17.253  0.00  0.00    +0.000 A 
ATOM      6  C   UNL     1       6.154   7.454  16.942  0.00  0.00    +0.000 A 
ATOM      7  C   UNL     1       6.075   6.067  17.014  0.00  0.00    +0.000 A 
ATOM      8  C   UNL     1       4.906   5.466  17.469  0.00  0.00    +0.000 A 
ATOM      9  C   UNL     1       3.770   6.247  17.745  0.00  0.00    +0.000 A 
ENDROOT
BRANCH   1  10
ATOM     10  C   UNL     1       1.954   4.533  18.274  0.00  0.00    +0.000 C 
ATOM     11  O   UNL     1       1.139   4.031  17.509  0.00  0.00    +0.000 OA
BRANCH  10  15
ATOM     12  C   UNL     1       3.388   1.794  18.072  0.00  0.00    +0.000 C 
ATOM     13  C   UNL     1       3.163   2.456  19.418  0.00  0.00    +0.000 C 
ATOM     14  C   UNL     1       4.320   2.213  20.362  0.00  0.00    +0.000 C 
ATOM     15  C   UNL     1       2.447   3.800  19.485  0.00  0.00    +0.000 C 
ATOM     16  C   UNL     1       1.741   2.544  20.009  0.00  0.00    +0.000 C 
ATOM     17  C   UNL     1       0.589   1.892  19.266  0.00  0.00    +0.000 C 
ATOM     18  C   UNL     1       1.508   2.497  21.506  0.00  0.00    +0.000 C 
ENDBRANCH  10  15
ENDBRANCH   1  10
BRANCH   3  19
ATOM     19  C   UNL     1       2.205   9.527  17.860  0.00  0.00    +0.000 C 
BRANCH  19  20
ATOM     20  C   UNL     1       0.975   9.908  18.715  0.00  0.00    +0.000 C 
ATOM     21  C   UNL     1      -0.312   9.912  17.872  0.00  0.00    +0.000 C 
ATOM     22  C   UNL     1      -1.436  10.738  18.475  0.00  0.00    +0.000 C 
ATOM     23  O   UNL     1      -0.971  12.039  18.817  0.00  0.00    +0.000 OA
ATOM     24  C   UNL     1      -0.006  11.980  19.862  0.00  0.00    +0.000 C 
ATOM     25  C   UNL     1       1.249  11.271  19.381  0.00  0.00    +0.000 C 
ENDBRANCH  19  20
ENDBRANCH   3  19
BRANCH   7  26
ATOM     26  O   UNL     1       7.181   5.367  16.610  0.00  0.00    +0.000 OA
BRANCH  26  27
ATOM     27  C   UNL     1       6.895   4.099  16.005  0.00  0.00    +0.000 C 
BRANCH  27  28
ATOM     28  C   UNL     1       6.936   4.267  14.512  0.00  0.00    +0.000 A 
ATOM     29  C   UNL     1       6.146   3.466  13.680  0.00  0.00    +0.000 A 
ATOM     30  C   UNL     1       6.217   3.609  12.294  0.00  0.00    +0.000 A 
ATOM     31  C   UNL     1       7.080   4.548  11.732  0.00  0.00    +0.000 A 
ATOM     32  C   UNL     1       7.871   5.354  12.553  0.00  0.00    +0.000 A 
ATOM     33  C   UNL     1       7.800   5.211  13.939  0.00  0.00    +0.000 A 
ENDBRANCH  27  28
ENDBRANCH  26  27
ENDBRANCH   7  26
TORSDOF 7
ENDMDL
MODEL 8
REMARK VINA RESULT:      -8.2      4.261      9.843
REMARK  Name = 
REMARK  11 active torsions:
REMARK  status: ('A' for Active; 'I' for Inactive)
REMARK    1  A    between atoms: C_1  and  C_2
REMARK    2  A    between atoms: C_2  and  C_3
REMARK    3  A    between atoms: C_4  and  C_5
REMARK    4  A    between atoms: C_5  and  C_7
REMARK    5  A    between atoms: N_9  and  C_10
REMARK    6  A    between atoms: C_10  and  C_11
REMARK    7  A    between atoms: C_20  and  O_21
REMARK    8  A    between atoms: O_21  and  C_22
REMARK    9  A    between atoms: C_22  and  C_23
REMARK   10  A    between atoms: C_31  and  C_32
REMARK   11  A    between atoms: C_31  and  C_33
REMARK                            x       y       z     vdW  Elec       q    Type
REMARK                         _______ _______ _______ _____ _____    ______ ____
ROOT
ATOM      1  C   UNL     1      -0.660  12.566  19.701  0.00  0.00    +0.000 A 
ATOM      2  C   UNL     1       0.591  12.020  19.480  0.00  0.00    +0.000 A 
ATOM      3  N   UNL     1       0.450  10.917  18.666  0.00  0.00    +0.000 N 
ATOM      4  C   UNL     1      -0.870  10.767  18.293  0.00  0.00    +0.000 A 
ATOM      5  C   UNL     1      -1.513   9.856  17.437  0.00  0.00    +0.000 A 
ATOM      6  C   UNL     1      -2.888  10.022  17.211  0.00  0.00    +0.000 A 
ATOM      7  C   UNL     1      -3.604  11.046  17.822  0.00  0.00    +0.000 A 
ATOM      8  C   UNL     1      -2.968  11.884  18.732  0.00  0.00    +0.000 A 
ATOM      9  C   UNL     1      -1.583  11.774  18.946  0.00  0.00    +0.000 A 
ENDROOT
BRANCH   1  10
ATOM     10  C   UNL     1      -1.039  13.726  20.498  0.00  0.00    +0.000 C 
ATOM     11  O   UNL     1      -0.836  14.867  20.098  0.00  0.00    +0.000 OA
BRANCH  10  15
ATOM     12  C   UNL     1      -4.046  14.130  21.129  0.00  0.00    +0.000 C 
ATOM     13  C   UNL     1      -3.085  13.644  22.198  0.00  0.00    +0.000 C 
ATOM     14  C   UNL     1      -3.737  12.636  23.119  0.00  0.00    +0.000 C 
ATOM     15  C   UNL     1      -1.611  13.463  21.857  0.00  0.00    +0.000 C 
ATOM     16  C   UNL     1      -2.034  14.605  22.789  0.00  0.00    +0.000 C 
ATOM     17  C   UNL     1      -2.027  16.057  22.346  0.00  0.00    +0.000 C 
ATOM     18  C   UNL     1      -1.579  14.482  24.230  0.00  0.00    +0.000 C 
ENDBRANCH  10  15
ENDBRANCH   1  10
BRANCH   3  19
ATOM     19  C   UNL     1       1.564  10.127  18.164  0.00  0.00    +0.000 C 
BRANCH  19  20
ATOM     20  C   UNL     1       1.481   8.612  18.456  0.00  0.00    +0.000 C 
ATOM     21  C   UNL     1       1.522   8.331  19.968  0.00  0.00    +0.000 C 
ATOM     22  C   UNL     1       1.950   6.914  20.316  0.00  0.00    +0.000 C 
ATOM     23  O   UNL     1       3.156   6.577  19.639  0.00  0.00    +0.000 OA
ATOM     24  C   UNL     1       2.954   6.525  18.231  0.00  0.00    +0.000 C 
ATOM     25  C   UNL     1       2.622   7.908  17.695  0.00  0.00    +0.000 C 
ENDBRANCH  19  20
ENDBRANCH   3  19
BRANCH   7  26
ATOM     26  O   UNL     1      -4.922  11.170  17.469  0.00  0.00    +0.000 OA
BRANCH  26  27
ATOM     27  C   UNL     1      -5.841  10.526  18.360  0.00  0.00    +0.000 C 
BRANCH  27  28
ATOM     28  C   UNL     1      -6.576  11.587  19.130  0.00  0.00    +0.000 A 
ATOM     29  C   UNL     1      -7.131  12.693  18.476  0.00  0.00    +0.000 A 
ATOM     30  C   UNL     1      -7.782  13.687  19.206  0.00  0.00    +0.000 A 
ATOM     31  C   UNL     1      -7.879  13.585  20.593  0.00  0.00    +0.000 A 
ATOM     32  C   UNL     1      -7.330  12.485  21.255  0.00  0.00    +0.000 A 
ATOM     33  C   UNL     1      -6.679  11.491  20.526  0.00  0.00    +0.000 A 
ENDBRANCH  27  28
ENDBRANCH  26  27
ENDBRANCH   7  26
TORSDOF 7
ENDMDL
MODEL 9
REMARK VINA RESULT:      -8.2      4.436      9.714
REMARK  Name = 
REMARK  11 active torsions:
REMARK  status: ('A' for Active; 'I' for Inactive)
REMARK    1  A    between atoms: C_1  and  C_2
REMARK    2  A    between atoms: C_2  and  C_3
REMARK    3  A    between atoms: C_4  and  C_5
REMARK    4  A    between atoms: C_5  and  C_7
REMARK    5  A    between atoms: N_9  and  C_10
REMARK    6  A    between atoms: C_10  and  C_11
REMARK    7  A    between atoms: C_20  and  O_21
REMARK    8  A    between atoms: O_21  and  C_22
REMARK    9  A    between atoms: C_22  and  C_23
REMARK   10  A    between atoms: C_31  and  C_32
REMARK   11  A    between atoms: C_31  and  C_33
REMARK                            x       y       z     vdW  Elec       q    Type
REMARK                         _______ _______ _______ _____ _____    ______ ____
ROOT
ATOM      1  C   UNL     1      -0.906  12.340  19.509  0.00  0.00    +0.000 A 
ATOM      2  C   UNL     1       0.321  11.745  19.284  0.00  0.00    +0.000 A 
ATOM      3  N   UNL     1       0.136  10.658  18.456  0.00  0.00    +0.000 N 
ATOM      4  C   UNL     1      -1.188  10.567  18.080  0.00  0.00    +0.000 A 
ATOM      5  C   UNL     1      -1.867   9.694  17.214  0.00  0.00    +0.000 A 
ATOM      6  C   UNL     1      -3.234   9.918  16.989  0.00  0.00    +0.000 A 
ATOM      7  C   UNL     1      -3.908  10.964  17.611  0.00  0.00    +0.000 A 
ATOM      8  C   UNL     1      -3.239  11.764  18.531  0.00  0.00    +0.000 A 
ATOM      9  C   UNL     1      -1.860  11.595  18.745  0.00  0.00    +0.000 A 
ENDROOT
BRANCH   1  10
ATOM     10  C   UNL     1      -1.238  13.505  20.319  0.00  0.00    +0.000 C 
ATOM     11  O   UNL     1      -1.203  14.638  19.851  0.00  0.00    +0.000 OA
BRANCH  10  15
ATOM     12  C   UNL     1      -4.132  13.558  21.425  0.00  0.00    +0.000 C 
ATOM     13  C   UNL     1      -2.955  13.277  22.340  0.00  0.00    +0.000 C 
ATOM     14  C   UNL     1      -3.304  12.261  23.405  0.00  0.00    +0.000 C 
ATOM     15  C   UNL     1      -1.543  13.266  21.767  0.00  0.00    +0.000 C 
ATOM     16  C   UNL     1      -1.968  14.406  22.700  0.00  0.00    +0.000 C 
ATOM     17  C   UNL     1      -2.235  15.812  22.193  0.00  0.00    +0.000 C 
ATOM     18  C   UNL     1      -1.277  14.445  24.048  0.00  0.00    +0.000 C 
ENDBRANCH  10  15
ENDBRANCH   1  10
BRANCH   3  19
ATOM     19  C   UNL     1       1.217   9.829  17.946  0.00  0.00    +0.000 C 
BRANCH  19  20
ATOM     20  C   UNL     1       1.966   8.995  19.010  0.00  0.00    +0.000 C 
ATOM     21  C   UNL     1       2.350   7.608  18.464  0.00  0.00    +0.000 C 
ATOM     22  C   UNL     1       2.616   6.576  19.548  0.00  0.00    +0.000 C 
ATOM     23  O   UNL     1       1.542   6.546  20.482  0.00  0.00    +0.000 OA
ATOM     24  C   UNL     1       1.459   7.770  21.204  0.00  0.00    +0.000 C 
ATOM     25  C   UNL     1       1.083   8.909  20.270  0.00  0.00    +0.000 C 
ENDBRANCH  19  20
ENDBRANCH   3  19
BRANCH   7  26
ATOM     26  O   UNL     1      -5.219  11.146  17.259  0.00  0.00    +0.000 OA
BRANCH  26  27
ATOM     27  C   UNL     1      -5.889  12.191  17.974  0.00  0.00    +0.000 C 
BRANCH  27  28
ATOM     28  C   UNL     1      -6.619  11.577  19.136  0.00  0.00    +0.000 A 
ATOM     29  C   UNL     1      -7.061  12.367  20.203  0.00  0.00    +0.000 A 
ATOM     30  C   UNL     1      -7.708  11.781  21.290  0.00  0.00    +0.000 A 
ATOM     31  C   UNL     1      -7.913  10.402  21.321  0.00  0.00    +0.000 A 
ATOM     32  C   UNL     1      -7.477   9.604  20.261  0.00  0.00    +0.000 A 
ATOM     33  C   UNL     1      -6.830  10.191  19.174  0.00  0.00    +0.000 A 
ENDBRANCH  27  28
ENDBRANCH  26  27
ENDBRANCH   7  26
TORSDOF 7
ENDMDL
