MODEL 1
REMARK VINA RESULT:      -7.5      0.000      0.000
REMARK  Name = 
REMARK  13 active torsions:
REMARK  status: ('A' for Active; 'I' for Inactive)
REMARK    1  A    between atoms: C_2  and  O_3
REMARK    2  A    between atoms: C_2  and  C_4
REMARK    3  A    between atoms: C_4  and  C_5
REMARK    4  A    between atoms: C_5  and  C_6
REMARK    5  A    between atoms: C_6  and  C_7
REMARK    6  A    between atoms: C_7  and  C_8
REMARK    7  A    between atoms: C_8  and  C_9
REMARK    8  A    between atoms: C_9  and  C_10
REMARK    9  A    between atoms: N_16  and  C_17
REMARK   10  A    between atoms: C_17  and  C_18
REMARK   11  A    between atoms: C_18  and  C_19
REMARK   12  A    between atoms: C_19  and  O_20
REMARK   13  A    between atoms: C_19  and  C_21
REMARK                            x       y       z     vdW  Elec       q    Type
REMARK                         _______ _______ _______ _____ _____    ______ ____
ROOT
ATOM      1  C   UNL     1       2.446   4.196  20.296  0.00  0.00    +0.000 C 
ATOM      2  C   UNL     1       1.724   3.248  21.260  0.00  0.00    +0.000 C 
ATOM      3  O   UNL     1       1.908   3.156  22.465  0.00  0.00    +0.000 OA
ATOM      4  N   UNL     1       0.833   2.505  20.562  0.00  0.00    +0.000 N 
ATOM      5  C   UNL     1       0.937   2.734  19.231  0.00  0.00    +0.000 C 
ATOM      6  O   UNL     1       0.309   2.143  18.371  0.00  0.00    +0.000 OA
ATOM      7  N   UNL     1       1.883   3.725  19.036  0.00  0.00    +0.000 N 
ATOM      8  H   UNL     1       0.242   1.793  20.960  0.00  0.00    +0.000 HD
ENDROOT
BRANCH   1   9
ATOM      9  C   UNL     1       2.128   5.669  20.541  0.00  0.00    +0.000 C 
BRANCH   9  10
ATOM     10  C   UNL     1       2.817   6.600  19.546  0.00  0.00    +0.000 C 
BRANCH  10  11
ATOM     11  C   UNL     1       1.979   7.848  19.282  0.00  0.00    +0.000 C 
BRANCH  11  12
ATOM     12  C   UNL     1       2.377   8.488  17.952  0.00  0.00    +0.000 C 
BRANCH  12  13
ATOM     13  C   UNL     1       2.001   9.966  17.919  0.00  0.00    +0.000 C 
BRANCH  13  14
ATOM     14  C   UNL     1       0.955  10.298  18.982  0.00  0.00    +0.000 C 
BRANCH  14  16
ATOM     15  O   UNL     1      -0.814  11.922  18.604  0.00  0.00    +0.000 OA
ATOM     16  C   UNL     1      -0.316  10.833  18.365  0.00  0.00    +0.000 C 
BRANCH  16  17
ATOM     17  O   UNL     1      -0.871   9.960  17.495  0.00  0.00    +0.000 OA
ATOM     18  H   UNL     1      -0.991  10.324  16.596  0.00  0.00    +0.000 HD
ENDBRANCH  16  17
ENDBRANCH  14  16
ENDBRANCH  13  14
ENDBRANCH  12  13
ENDBRANCH  11  12
ENDBRANCH  10  11
ENDBRANCH   9  10
ENDBRANCH   1   9
BRANCH   7  19
ATOM     19  C   UNL     1       2.279   4.236  17.730  0.00  0.00    +0.000 C 
BRANCH  19  20
ATOM     20  C   UNL     1       3.534   3.532  17.219  0.00  0.00    +0.000 C 
BRANCH  20  21
ATOM     21  C   UNL     1       4.825   4.123  17.796  0.00  0.00    +0.000 C 
BRANCH  21  22
ATOM     22  C   UNL     1       5.863   4.450  16.686  0.00  0.00    +0.000 C 
ATOM     23  C   UNL     1       5.531   5.735  15.905  0.00  0.00    +0.000 C 
ATOM     24  C   UNL     1       5.660   6.982  16.776  0.00  0.00    +0.000 C 
ATOM     25  C   UNL     1       7.056   7.090  17.385  0.00  0.00    +0.000 C 
ATOM     26  C   UNL     1       7.486   5.813  18.106  0.00  0.00    +0.000 C 
ATOM     27  C   UNL     1       7.297   4.572  17.236  0.00  0.00    +0.000 C 
ENDBRANCH  21  22
BRANCH  21  28
ATOM     28  O   UNL     1       5.380   3.177  18.713  0.00  0.00    +0.000 OA
ATOM     29  H   UNL     1       6.203   3.547  19.076  0.00  0.00    +0.000 HD
ENDBRANCH  21  28
ENDBRANCH  20  21
ENDBRANCH  19  20
ENDBRANCH   7  19
TORSDOF 13
ENDMDL
MODEL 2
REMARK VINA RESULT:      -7.2      4.508      7.367
REMARK  Name = 
REMARK  13 active torsions:
REMARK  status: ('A' for Active; 'I' for Inactive)
REMARK    1  A    between atoms: C_2  and  O_3
REMARK    2  A    between atoms: C_2  and  C_4
REMARK    3  A    between atoms: C_4  and  C_5
REMARK    4  A    between atoms: C_5  and  C_6
REMARK    5  A    between atoms: C_6  and  C_7
REMARK    6  A    between atoms: C_7  and  C_8
REMARK    7  A    between atoms: C_8  and  C_9
REMARK    8  A    between atoms: C_9  and  C_10
REMARK    9  A    between atoms: N_16  and  C_17
REMARK   10  A    between atoms: C_17  and  C_18
REMARK   11  A    between atoms: C_18  and  C_19
REMARK   12  A    between atoms: C_19  and  O_20
REMARK   13  A    between atoms: C_19  and  C_21
REMARK                            x       y       z     vdW  Elec       q    Type
REMARK                         _______ _______ _______ _____ _____    ______ ____
ROOT
ATOM      1  C   UNL     1       6.535   6.406  16.979  0.00  0.00    +0.000 C 
ATOM      2  C   UNL     1       7.002   5.326  15.995  0.00  0.00    +0.000 C 
ATOM      3  O   UNL     1       7.661   5.503  14.981  0.00  0.00    +0.000 OA
ATOM      4  N   UNL     1       6.561   4.120  16.423  0.00  0.00    +0.000 N 
ATOM      5  C   UNL     1       5.752   4.246  17.503  0.00  0.00    +0.000 C 
ATOM      6  O   UNL     1       5.159   3.329  18.040  0.00  0.00    +0.000 OA
ATOM      7  N   UNL     1       5.711   5.583  17.858  0.00  0.00    +0.000 N 
ATOM      8  H   UNL     1       6.718   3.249  15.944  0.00  0.00    +0.000 HD
ENDROOT
BRANCH   1   9
ATOM      9  C   UNL     1       7.681   7.070  17.739  0.00  0.00    +0.000 C 
BRANCH   9  10
ATOM     10  C   UNL     1       7.624   8.595  17.687  0.00  0.00    +0.000 C 
BRANCH  10  11
ATOM     11  C   UNL     1       8.742   9.221  18.517  0.00  0.00    +0.000 C 
BRANCH  11  12
ATOM     12  C   UNL     1       8.956  10.680  18.113  0.00  0.00    +0.000 C 
BRANCH  12  13
ATOM     13  C   UNL     1       9.493  11.501  19.281  0.00  0.00    +0.000 C 
BRANCH  13  14
ATOM     14  C   UNL     1      11.019  11.576  19.253  0.00  0.00    +0.000 C 
BRANCH  14  16
ATOM     15  O   UNL     1      11.215  13.747  18.177  0.00  0.00    +0.000 OA
ATOM     16  C   UNL     1      11.509  12.563  18.220  0.00  0.00    +0.000 C 
BRANCH  16  17
ATOM     17  O   UNL     1      12.332  11.990  17.312  0.00  0.00    +0.000 OA
ATOM     18  H   UNL     1      12.446  11.028  17.437  0.00  0.00    +0.000 HD
ENDBRANCH  16  17
ENDBRANCH  14  16
ENDBRANCH  13  14
ENDBRANCH  12  13
ENDBRANCH  11  12
ENDBRANCH  10  11
ENDBRANCH   9  10
ENDBRANCH   1   9
BRANCH   7  19
ATOM     19  C   UNL     1       4.933   6.114  18.970  0.00  0.00    +0.000 C 
BRANCH  19  20
ATOM     20  C   UNL     1       3.435   6.010  18.696  0.00  0.00    +0.000 C 
BRANCH  20  21
ATOM     21  C   UNL     1       2.685   5.220  19.773  0.00  0.00    +0.000 C 
BRANCH  21  22
ATOM     22  C   UNL     1       1.326   4.672  19.255  0.00  0.00    +0.000 C 
ATOM     23  C   UNL     1       1.419   4.053  17.848  0.00  0.00    +0.000 C 
ATOM     24  C   UNL     1       2.250   2.771  17.842  0.00  0.00    +0.000 C 
ATOM     25  C   UNL     1       1.692   1.745  18.826  0.00  0.00    +0.000 C 
ATOM     26  C   UNL     1       1.494   2.320  20.228  0.00  0.00    +0.000 C 
ATOM     27  C   UNL     1       0.708   3.629  20.206  0.00  0.00    +0.000 C 
ENDBRANCH  21  22
BRANCH  21  28
ATOM     28  O   UNL     1       2.463   6.083  20.891  0.00  0.00    +0.000 OA
ATOM     29  H   UNL     1       2.878   6.943  20.702  0.00  0.00    +0.000 HD
ENDBRANCH  21  28
ENDBRANCH  20  21
ENDBRANCH  19  20
ENDBRANCH   7  19
TORSDOF 13
ENDMDL
MODEL 3
REMARK VINA RESULT:      -7.1      0.954      1.196
REMARK  Name = 
REMARK  13 active torsions:
REMARK  status: ('A' for Active; 'I' for Inactive)
REMARK    1  A    between atoms: C_2  and  O_3
REMARK    2  A    between atoms: C_2  and  C_4
REMARK    3  A    between atoms: C_4  and  C_5
REMARK    4  A    between atoms: C_5  and  C_6
REMARK    5  A    between atoms: C_6  and  C_7
REMARK    6  A    between atoms: C_7  and  C_8
REMARK    7  A    between atoms: C_8  and  C_9
REMARK    8  A    between atoms: C_9  and  C_10
REMARK    9  A    between atoms: N_16  and  C_17
REMARK   10  A    between atoms: C_17  and  C_18
REMARK   11  A    between atoms: C_18  and  C_19
REMARK   12  A    between atoms: C_19  and  O_20
REMARK   13  A    between atoms: C_19  and  C_21
REMARK                            x       y       z     vdW  Elec       q    Type
REMARK                         _______ _______ _______ _____ _____    ______ ____
ROOT
ATOM      1  C   UNL     1       2.501   4.155  20.227  0.00  0.00    +0.000 C 
ATOM      2  C   UNL     1       1.829   3.188  21.208  0.00  0.00    +0.000 C 
ATOM      3  O   UNL     1       2.076   3.071  22.399  0.00  0.00    +0.000 OA
ATOM      4  N   UNL     1       0.900   2.461  20.543  0.00  0.00    +0.000 N 
ATOM      5  C   UNL     1       0.934   2.717  19.213  0.00  0.00    +0.000 C 
ATOM      6  O   UNL     1       0.260   2.145  18.376  0.00  0.00    +0.000 OA
ATOM      7  N   UNL     1       1.871   3.711  18.989  0.00  0.00    +0.000 N 
ATOM      8  H   UNL     1       0.330   1.741  20.957  0.00  0.00    +0.000 HD
ENDROOT
BRANCH   1   9
ATOM      9  C   UNL     1       2.200   5.623  20.518  0.00  0.00    +0.000 C 
BRANCH   9  10
ATOM     10  C   UNL     1       2.836   6.573  19.507  0.00  0.00    +0.000 C 
BRANCH  10  11
ATOM     11  C   UNL     1       1.986   7.825  19.310  0.00  0.00    +0.000 C 
BRANCH  11  12
ATOM     12  C   UNL     1       2.320   8.495  17.977  0.00  0.00    +0.000 C 
BRANCH  12  13
ATOM     13  C   UNL     1       1.576   9.819  17.826  0.00  0.00    +0.000 C 
BRANCH  13  14
ATOM     14  C   UNL     1       2.542  11.002  17.826  0.00  0.00    +0.000 C 
BRANCH  14  16
ATOM     15  O   UNL     1       1.045  12.336  19.200  0.00  0.00    +0.000 OA
ATOM     16  C   UNL     1       1.873  12.268  18.305  0.00  0.00    +0.000 C 
BRANCH  16  17
ATOM     17  O   UNL     1       2.289  13.359  17.622  0.00  0.00    +0.000 OA
ATOM     18  H   UNL     1       2.848  13.962  18.149  0.00  0.00    +0.000 HD
ENDBRANCH  16  17
ENDBRANCH  14  16
ENDBRANCH  13  14
ENDBRANCH  12  13
ENDBRANCH  11  12
ENDBRANCH  10  11
ENDBRANCH   9  10
ENDBRANCH   1   9
BRANCH   7  19
ATOM     19  C   UNL     1       2.199   4.249  17.674  0.00  0.00    +0.000 C 
BRANCH  19  20
ATOM     20  C   UNL     1       3.453   3.590  17.106  0.00  0.00    +0.000 C 
BRANCH  20  21
ATOM     21  C   UNL     1       4.746   4.147  17.713  0.00  0.00    +0.000 C 
BRANCH  21  22
ATOM     22  C   UNL     1       5.791   4.514  16.622  0.00  0.00    +0.000 C 
ATOM     23  C   UNL     1       5.491   5.853  15.922  0.00  0.00    +0.000 C 
ATOM     24  C   UNL     1       5.654   7.041  16.868  0.00  0.00    +0.000 C 
ATOM     25  C   UNL     1       7.053   7.075  17.478  0.00  0.00    +0.000 C 
ATOM     26  C   UNL     1       7.450   5.746  18.118  0.00  0.00    +0.000 C 
ATOM     27  C   UNL     1       7.228   4.565  17.174  0.00  0.00    +0.000 C 
ENDBRANCH  21  22
BRANCH  21  28
ATOM     28  O   UNL     1       5.291   3.160  18.591  0.00  0.00    +0.000 OA
ATOM     29  H   UNL     1       5.329   3.533  19.488  0.00  0.00    +0.000 HD
ENDBRANCH  21  28
ENDBRANCH  20  21
ENDBRANCH  19  20
ENDBRANCH   7  19
TORSDOF 13
ENDMDL
MODEL 4
REMARK VINA RESULT:      -7.1      3.806      8.025
REMARK  Name = 
REMARK  13 active torsions:
REMARK  status: ('A' for Active; 'I' for Inactive)
REMARK    1  A    between atoms: C_2  and  O_3
REMARK    2  A    between atoms: C_2  and  C_4
REMARK    3  A    between atoms: C_4  and  C_5
REMARK    4  A    between atoms: C_5  and  C_6
REMARK    5  A    between atoms: C_6  and  C_7
REMARK    6  A    between atoms: C_7  and  C_8
REMARK    7  A    between atoms: C_8  and  C_9
REMARK    8  A    between atoms: C_9  and  C_10
REMARK    9  A    between atoms: N_16  and  C_17
REMARK   10  A    between atoms: C_17  and  C_18
REMARK   11  A    between atoms: C_18  and  C_19
REMARK   12  A    between atoms: C_19  and  O_20
REMARK   13  A    between atoms: C_19  and  C_21
REMARK                            x       y       z     vdW  Elec       q    Type
REMARK                         _______ _______ _______ _____ _____    ______ ____
ROOT
ATOM      1  C   UNL     1       5.932   4.741  17.586  0.00  0.00    +0.000 C 
ATOM      2  C   UNL     1       7.453   4.903  17.482  0.00  0.00    +0.000 C 
ATOM      3  O   UNL     1       8.287   4.016  17.585  0.00  0.00    +0.000 OA
ATOM      4  N   UNL     1       7.743   6.206  17.259  0.00  0.00    +0.000 N 
ATOM      5  C   UNL     1       6.629   6.975  17.317  0.00  0.00    +0.000 C 
ATOM      6  O   UNL     1       6.615   8.189  17.229  0.00  0.00    +0.000 OA
ATOM      7  N   UNL     1       5.540   6.144  17.513  0.00  0.00    +0.000 N 
ATOM      8  H   UNL     1       8.673   6.580  17.169  0.00  0.00    +0.000 HD
ENDROOT
BRANCH   1   9
ATOM      9  C   UNL     1       5.328   3.926  16.444  0.00  0.00    +0.000 C 
BRANCH   9  10
ATOM     10  C   UNL     1       5.521   4.581  15.079  0.00  0.00    +0.000 C 
BRANCH  10  11
ATOM     11  C   UNL     1       6.527   3.810  14.229  0.00  0.00    +0.000 C 
BRANCH  11  12
ATOM     12  C   UNL     1       6.198   3.956  12.744  0.00  0.00    +0.000 C 
BRANCH  12  13
ATOM     13  C   UNL     1       4.971   3.130  12.369  0.00  0.00    +0.000 C 
BRANCH  13  14
ATOM     14  C   UNL     1       5.207   2.335  11.086  0.00  0.00    +0.000 C 
BRANCH  14  16
ATOM     15  O   UNL     1       7.571   1.784  10.966  0.00  0.00    +0.000 OA
ATOM     16  C   UNL     1       6.422   1.445  11.198  0.00  0.00    +0.000 C 
BRANCH  16  17
ATOM     17  O   UNL     1       6.105   0.190  11.591  0.00  0.00    +0.000 OA
ATOM     18  H   UNL     1       5.145   0.045  11.704  0.00  0.00    +0.000 HD
ENDBRANCH  16  17
ENDBRANCH  14  16
ENDBRANCH  13  14
ENDBRANCH  12  13
ENDBRANCH  11  12
ENDBRANCH  10  11
ENDBRANCH   9  10
ENDBRANCH   1   9
BRANCH   7  19
ATOM     19  C   UNL     1       4.164   6.609  17.639  0.00  0.00    +0.000 C 
BRANCH  19  20
ATOM     20  C   UNL     1       3.560   6.186  18.975  0.00  0.00    +0.000 C 
BRANCH  20  21
ATOM     21  C   UNL     1       2.323   5.296  18.815  0.00  0.00    +0.000 C 
BRANCH  21  22
ATOM     22  C   UNL     1       2.679   3.785  18.883  0.00  0.00    +0.000 C 
ATOM     23  C   UNL     1       3.442   3.398  20.164  0.00  0.00    +0.000 C 
ATOM     24  C   UNL     1       2.568   3.528  21.410  0.00  0.00    +0.000 C 
ATOM     25  C   UNL     1       1.299   2.688  21.286  0.00  0.00    +0.000 C 
ATOM     26  C   UNL     1       0.535   2.960  19.992  0.00  0.00    +0.000 C 
ATOM     27  C   UNL     1       1.439   2.878  18.763  0.00  0.00    +0.000 C 
ENDBRANCH  21  22
BRANCH  21  28
ATOM     28  O   UNL     1       1.715   5.593  17.556  0.00  0.00    +0.000 OA
ATOM     29  H   UNL     1       1.242   4.801  17.248  0.00  0.00    +0.000 HD
ENDBRANCH  21  28
ENDBRANCH  20  21
ENDBRANCH  19  20
ENDBRANCH   7  19
TORSDOF 13
ENDMDL
MODEL 5
REMARK VINA RESULT:      -7.1      2.440      6.658
REMARK  Name = 
REMARK  13 active torsions:
REMARK  status: ('A' for Active; 'I' for Inactive)
REMARK    1  A    between atoms: C_2  and  O_3
REMARK    2  A    between atoms: C_2  and  C_4
REMARK    3  A    between atoms: C_4  and  C_5
REMARK    4  A    between atoms: C_5  and  C_6
REMARK    5  A    between atoms: C_6  and  C_7
REMARK    6  A    between atoms: C_7  and  C_8
REMARK    7  A    between atoms: C_8  and  C_9
REMARK    8  A    between atoms: C_9  and  C_10
REMARK    9  A    between atoms: N_16  and  C_17
REMARK   10  A    between atoms: C_17  and  C_18
REMARK   11  A    between atoms: C_18  and  C_19
REMARK   12  A    between atoms: C_19  and  O_20
REMARK   13  A    between atoms: C_19  and  C_21
REMARK                            x       y       z     vdW  Elec       q    Type
REMARK                         _______ _______ _______ _____ _____    ______ ____
ROOT
ATOM      1  C   UNL     1       5.200   5.116  18.593  0.00  0.00    +0.000 C 
ATOM      2  C   UNL     1       6.584   5.051  17.938  0.00  0.00    +0.000 C 
ATOM      3  O   UNL     1       7.595   4.561  18.421  0.00  0.00    +0.000 OA
ATOM      4  N   UNL     1       6.523   5.636  16.719  0.00  0.00    +0.000 N 
ATOM      5  C   UNL     1       5.311   6.200  16.504  0.00  0.00    +0.000 C 
ATOM      6  O   UNL     1       5.011   6.856  15.523  0.00  0.00    +0.000 OA
ATOM      7  N   UNL     1       4.503   5.916  17.592  0.00  0.00    +0.000 N 
ATOM      8  H   UNL     1       7.304   5.740  16.092  0.00  0.00    +0.000 HD
ENDROOT
BRANCH   1   9
ATOM      9  C   UNL     1       4.549   3.747  18.774  0.00  0.00    +0.000 C 
BRANCH   9  10
ATOM     10  C   UNL     1       4.078   3.133  17.458  0.00  0.00    +0.000 C 
BRANCH  10  11
ATOM     11  C   UNL     1       2.574   2.872  17.473  0.00  0.00    +0.000 C 
BRANCH  11  12
ATOM     12  C   UNL     1       2.193   2.006  18.673  0.00  0.00    +0.000 C 
BRANCH  12  13
ATOM     13  C   UNL     1       0.869   2.460  19.281  0.00  0.00    +0.000 C 
BRANCH  13  14
ATOM     14  C   UNL     1       0.997   3.840  19.923  0.00  0.00    +0.000 C 
BRANCH  14  16
ATOM     15  O   UNL     1       1.710   2.862  22.031  0.00  0.00    +0.000 OA
ATOM     16  C   UNL     1       1.757   3.780  21.227  0.00  0.00    +0.000 C 
BRANCH  16  17
ATOM     17  O   UNL     1       2.518   4.879  21.429  0.00  0.00    +0.000 OA
ATOM     18  H   UNL     1       3.477   4.713  21.346  0.00  0.00    +0.000 HD
ENDBRANCH  16  17
ENDBRANCH  14  16
ENDBRANCH  13  14
ENDBRANCH  12  13
ENDBRANCH  11  12
ENDBRANCH  10  11
ENDBRANCH   9  10
ENDBRANCH   1   9
BRANCH   7  19
ATOM     19  C   UNL     1       3.123   6.366  17.730  0.00  0.00    +0.000 C 
BRANCH  19  20
ATOM     20  C   UNL     1       3.060   7.839  18.125  0.00  0.00    +0.000 C 
BRANCH  20  21
ATOM     21  C   UNL     1       1.936   8.141  19.121  0.00  0.00    +0.000 C 
BRANCH  21  22
ATOM     22  C   UNL     1       1.752   9.668  19.346  0.00  0.00    +0.000 C 
ATOM     23  C   UNL     1       1.123  10.388  18.138  0.00  0.00    +0.000 C 
ATOM     24  C   UNL     1      -0.328   9.968  17.916  0.00  0.00    +0.000 C 
ATOM     25  C   UNL     1      -1.173  10.212  19.164  0.00  0.00    +0.000 C 
ATOM     26  C   UNL     1      -0.561   9.595  20.420  0.00  0.00    +0.000 C 
ATOM     27  C   UNL     1       0.906   9.984  20.595  0.00  0.00    +0.000 C 
ENDBRANCH  21  22
BRANCH  21  28
ATOM     28  O   UNL     1       2.251   7.505  20.362  0.00  0.00    +0.000 OA
ATOM     29  H   UNL     1       2.901   6.802  20.191  0.00  0.00    +0.000 HD
ENDBRANCH  21  28
ENDBRANCH  20  21
ENDBRANCH  19  20
ENDBRANCH   7  19
TORSDOF 13
ENDMDL
MODEL 6
REMARK VINA RESULT:      -7.0      2.704      5.278
REMARK  Name = 
REMARK  13 active torsions:
REMARK  status: ('A' for Active; 'I' for Inactive)
REMARK    1  A    between atoms: C_2  and  O_3
REMARK    2  A    between atoms: C_2  and  C_4
REMARK    3  A    between atoms: C_4  and  C_5
REMARK    4  A    between atoms: C_5  and  C_6
REMARK    5  A    between atoms: C_6  and  C_7
REMARK    6  A    between atoms: C_7  and  C_8
REMARK    7  A    between atoms: C_8  and  C_9
REMARK    8  A    between atoms: C_9  and  C_10
REMARK    9  A    between atoms: N_16  and  C_17
REMARK   10  A    between atoms: C_17  and  C_18
REMARK   11  A    between atoms: C_18  and  C_19
REMARK   12  A    between atoms: C_19  and  O_20
REMARK   13  A    between atoms: C_19  and  C_21
REMARK                            x       y       z     vdW  Elec       q    Type
REMARK                         _______ _______ _______ _____ _____    ______ ____
ROOT
ATOM      1  C   UNL     1       4.489   5.786  16.996  0.00  0.00    +0.000 C 
ATOM      2  C   UNL     1       5.382   6.397  15.910  0.00  0.00    +0.000 C 
ATOM      3  O   UNL     1       5.034   7.177  15.036  0.00  0.00    +0.000 OA
ATOM      4  N   UNL     1       6.644   5.931  16.064  0.00  0.00    +0.000 N 
ATOM      5  C   UNL     1       6.706   4.989  17.035  0.00  0.00    +0.000 C 
ATOM      6  O   UNL     1       7.702   4.352  17.326  0.00  0.00    +0.000 OA
ATOM      7  N   UNL     1       5.450   4.874  17.606  0.00  0.00    +0.000 N 
ATOM      8  H   UNL     1       7.420   6.167  15.467  0.00  0.00    +0.000 HD
ENDROOT
BRANCH   1   9
ATOM      9  C   UNL     1       3.967   6.810  18.001  0.00  0.00    +0.000 C 
BRANCH   9  10
ATOM     10  C   UNL     1       2.584   7.346  17.640  0.00  0.00    +0.000 C 
BRANCH  10  11
ATOM     11  C   UNL     1       2.411   8.791  18.099  0.00  0.00    +0.000 C 
BRANCH  11  12
ATOM     12  C   UNL     1       1.191   8.921  19.012  0.00  0.00    +0.000 C 
BRANCH  12  13
ATOM     13  C   UNL     1       1.519   8.476  20.434  0.00  0.00    +0.000 C 
BRANCH  13  14
ATOM     14  C   UNL     1       0.319   8.652  21.362  0.00  0.00    +0.000 C 
BRANCH  14  16
ATOM     15  O   UNL     1       0.459   9.636  23.580  0.00  0.00    +0.000 OA
ATOM     16  C   UNL     1       0.549   9.755  22.368  0.00  0.00    +0.000 C 
BRANCH  16  17
ATOM     17  O   UNL     1       0.872  10.928  21.779  0.00  0.00    +0.000 OA
ATOM     18  H   UNL     1       0.829  11.695  22.382  0.00  0.00    +0.000 HD
ENDBRANCH  16  17
ENDBRANCH  14  16
ENDBRANCH  13  14
ENDBRANCH  12  13
ENDBRANCH  11  12
ENDBRANCH  10  11
ENDBRANCH   9  10
ENDBRANCH   1   9
BRANCH   7  19
ATOM     19  C   UNL     1       5.119   3.949  18.683  0.00  0.00    +0.000 C 
BRANCH  19  20
ATOM     20  C   UNL     1       3.886   3.119  18.338  0.00  0.00    +0.000 C 
BRANCH  20  21
ATOM     21  C   UNL     1       3.594   2.025  19.370  0.00  0.00    +0.000 C 
BRANCH  21  22
ATOM     22  C   UNL     1       2.096   1.995  19.780  0.00  0.00    +0.000 C 
ATOM     23  C   UNL     1       1.850   2.487  21.219  0.00  0.00    +0.000 C 
ATOM     24  C   UNL     1       2.144   3.978  21.370  0.00  0.00    +0.000 C 
ATOM     25  C   UNL     1       1.318   4.807  20.388  0.00  0.00    +0.000 C 
ATOM     26  C   UNL     1       1.449   4.317  18.947  0.00  0.00    +0.000 C 
ATOM     27  C   UNL     1       1.205   2.814  18.827  0.00  0.00    +0.000 C 
ENDBRANCH  21  22
BRANCH  21  28
ATOM     28  O   UNL     1       4.405   2.268  20.522  0.00  0.00    +0.000 OA
ATOM     29  H   UNL     1       4.759   3.172  20.465  0.00  0.00    +0.000 HD
ENDBRANCH  21  28
ENDBRANCH  20  21
ENDBRANCH  19  20
ENDBRANCH   7  19
TORSDOF 13
ENDMDL
MODEL 7
REMARK VINA RESULT:      -7.0      1.329      1.986
REMARK  Name = 
REMARK  13 active torsions:
REMARK  status: ('A' for Active; 'I' for Inactive)
REMARK    1  A    between atoms: C_2  and  O_3
REMARK    2  A    between atoms: C_2  and  C_4
REMARK    3  A    between atoms: C_4  and  C_5
REMARK    4  A    between atoms: C_5  and  C_6
REMARK    5  A    between atoms: C_6  and  C_7
REMARK    6  A    between atoms: C_7  and  C_8
REMARK    7  A    between atoms: C_8  and  C_9
REMARK    8  A    between atoms: C_9  and  C_10
REMARK    9  A    between atoms: N_16  and  C_17
REMARK   10  A    between atoms: C_17  and  C_18
REMARK   11  A    between atoms: C_18  and  C_19
REMARK   12  A    between atoms: C_19  and  O_20
REMARK   13  A    between atoms: C_19  and  C_21
REMARK                            x       y       z     vdW  Elec       q    Type
REMARK                         _______ _______ _______ _____ _____    ______ ____
ROOT
ATOM      1  C   UNL     1       2.538   6.027  18.903  0.00  0.00    +0.000 C 
ATOM      2  C   UNL     1       1.856   6.161  20.269  0.00  0.00    +0.000 C 
ATOM      3  O   UNL     1       1.925   7.119  21.026  0.00  0.00    +0.000 OA
ATOM      4  N   UNL     1       1.151   5.034  20.522  0.00  0.00    +0.000 N 
ATOM      5  C   UNL     1       1.360   4.097  19.566  0.00  0.00    +0.000 C 
ATOM      6  O   UNL     1       0.910   2.966  19.588  0.00  0.00    +0.000 OA
ATOM      7  N   UNL     1       2.178   4.647  18.594  0.00  0.00    +0.000 N 
ATOM      8  H   UNL     1       0.625   4.862  21.364  0.00  0.00    +0.000 HD
ENDROOT
BRANCH   1   9
ATOM      9  C   UNL     1       1.999   6.999  17.856  0.00  0.00    +0.000 C 
BRANCH   9  10
ATOM     10  C   UNL     1       2.448   8.438  18.094  0.00  0.00    +0.000 C 
BRANCH  10  11
ATOM     11  C   UNL     1       1.317   9.426  17.818  0.00  0.00    +0.000 C 
BRANCH  11  12
ATOM     12  C   UNL     1       1.037  10.278  19.056  0.00  0.00    +0.000 C 
BRANCH  12  13
ATOM     13  C   UNL     1      -0.399  10.095  19.536  0.00  0.00    +0.000 C 
BRANCH  13  14
ATOM     14  C   UNL     1      -1.194  11.394  19.420  0.00  0.00    +0.000 C 
BRANCH  14  16
ATOM     15  O   UNL     1      -2.375  10.981  17.336  0.00  0.00    +0.000 OA
ATOM     16  C   UNL     1      -1.610  11.668  17.994  0.00  0.00    +0.000 C 
BRANCH  16  17
ATOM     17  O   UNL     1      -1.031  12.785  17.496  0.00  0.00    +0.000 OA
ATOM     18  H   UNL     1      -0.069  12.699  17.356  0.00  0.00    +0.000 HD
ENDBRANCH  16  17
ENDBRANCH  14  16
ENDBRANCH  13  14
ENDBRANCH  12  13
ENDBRANCH  11  12
ENDBRANCH  10  11
ENDBRANCH   9  10
ENDBRANCH   1   9
BRANCH   7  19
ATOM     19  C   UNL     1       2.634   3.937  17.406  0.00  0.00    +0.000 C 
BRANCH  19  20
ATOM     20  C   UNL     1       3.934   3.186  17.677  0.00  0.00    +0.000 C 
BRANCH  20  21
ATOM     21  C   UNL     1       5.068   4.106  18.142  0.00  0.00    +0.000 C 
BRANCH  21  22
ATOM     22  C   UNL     1       6.075   4.414  16.998  0.00  0.00    +0.000 C 
ATOM     23  C   UNL     1       5.667   5.628  16.142  0.00  0.00    +0.000 C 
ATOM     24  C   UNL     1       5.743   6.933  16.931  0.00  0.00    +0.000 C 
ATOM     25  C   UNL     1       7.138   7.150  17.511  0.00  0.00    +0.000 C 
ATOM     26  C   UNL     1       7.642   5.946  18.304  0.00  0.00    +0.000 C 
ATOM     27  C   UNL     1       7.507   4.643  17.517  0.00  0.00    +0.000 C 
ENDBRANCH  21  22
BRANCH  21  28
ATOM     28  O   UNL     1       5.749   3.468  19.225  0.00  0.00    +0.000 OA
ATOM     29  H   UNL     1       5.855   2.526  19.010  0.00  0.00    +0.000 HD
ENDBRANCH  21  28
ENDBRANCH  20  21
ENDBRANCH  19  20
ENDBRANCH   7  19
TORSDOF 13
ENDMDL
MODEL 8
REMARK VINA RESULT:      -7.0      2.603      5.355
REMARK  Name = 
REMARK  13 active torsions:
REMARK  status: ('A' for Active; 'I' for Inactive)
REMARK    1  A    between atoms: C_2  and  O_3
REMARK    2  A    between atoms: C_2  and  C_4
REMARK    3  A    between atoms: C_4  and  C_5
REMARK    4  A    between atoms: C_5  and  C_6
REMARK    5  A    between atoms: C_6  and  C_7
REMARK    6  A    between atoms: C_7  and  C_8
REMARK    7  A    between atoms: C_8  and  C_9
REMARK    8  A    between atoms: C_9  and  C_10
REMARK    9  A    between atoms: N_16  and  C_17
REMARK   10  A    between atoms: C_17  and  C_18
REMARK   11  A    between atoms: C_18  and  C_19
REMARK   12  A    between atoms: C_19  and  O_20
REMARK   13  A    between atoms: C_19  and  C_21
REMARK                            x       y       z     vdW  Elec       q    Type
REMARK                         _______ _______ _______ _____ _____    ______ ____
ROOT
ATOM      1  C   UNL     1       5.447   5.460  16.621  0.00  0.00    +0.000 C 
ATOM      2  C   UNL     1       6.437   5.336  15.457  0.00  0.00    +0.000 C 
ATOM      3  O   UNL     1       6.217   5.596  14.283  0.00  0.00    +0.000 OA
ATOM      4  N   UNL     1       7.619   4.879  15.932  0.00  0.00    +0.000 N 
ATOM      5  C   UNL     1       7.531   4.558  17.245  0.00  0.00    +0.000 C 
ATOM      6  O   UNL     1       8.425   4.053  17.901  0.00  0.00    +0.000 OA
ATOM      7  N   UNL     1       6.261   4.885  17.686  0.00  0.00    +0.000 N 
ATOM      8  H   UNL     1       8.432   4.693  15.367  0.00  0.00    +0.000 HD
ENDROOT
BRANCH   1   9
ATOM      9  C   UNL     1       5.050   6.902  16.929  0.00  0.00    +0.000 C 
BRANCH   9  10
ATOM     10  C   UNL     1       3.539   7.120  16.915  0.00  0.00    +0.000 C 
BRANCH  10  11
ATOM     11  C   UNL     1       3.149   8.365  17.707  0.00  0.00    +0.000 C 
BRANCH  11  12
ATOM     12  C   UNL     1       1.674   8.308  18.102  0.00  0.00    +0.000 C 
BRANCH  12  13
ATOM     13  C   UNL     1       1.068   9.706  18.167  0.00  0.00    +0.000 C 
BRANCH  13  14
ATOM     14  C   UNL     1       0.321   9.928  19.481  0.00  0.00    +0.000 C 
BRANCH  14  16
ATOM     15  O   UNL     1       1.276  12.131  19.863  0.00  0.00    +0.000 OA
ATOM     16  C   UNL     1       0.942  11.039  20.295  0.00  0.00    +0.000 C 
BRANCH  16  17
ATOM     17  O   UNL     1       1.102  10.696  21.593  0.00  0.00    +0.000 OA
ATOM     18  H   UNL     1       1.954  10.259  21.782  0.00  0.00    +0.000 HD
ENDBRANCH  16  17
ENDBRANCH  14  16
ENDBRANCH  13  14
ENDBRANCH  12  13
ENDBRANCH  11  12
ENDBRANCH  10  11
ENDBRANCH   9  10
ENDBRANCH   1   9
BRANCH   7  19
ATOM     19  C   UNL     1       5.784   4.676  19.047  0.00  0.00    +0.000 C 
BRANCH  19  20
ATOM     20  C   UNL     1       4.440   3.952  19.056  0.00  0.00    +0.000 C 
BRANCH  20  21
ATOM     21  C   UNL     1       3.379   4.672  19.894  0.00  0.00    +0.000 C 
BRANCH  21  22
ATOM     22  C   UNL     1       2.002   4.720  19.176  0.00  0.00    +0.000 C 
ATOM     23  C   UNL     1       1.995   3.976  17.827  0.00  0.00    +0.000 C 
ATOM     24  C   UNL     1       2.158   2.468  18.006  0.00  0.00    +0.000 C 
ATOM     25  C   UNL     1       1.075   1.899  18.920  0.00  0.00    +0.000 C 
ATOM     26  C   UNL     1       0.968   2.648  20.247  0.00  0.00    +0.000 C 
ATOM     27  C   UNL     1       0.861   4.159  20.046  0.00  0.00    +0.000 C 
ENDBRANCH  21  22
BRANCH  21  28
ATOM     28  O   UNL     1       3.836   6.003  20.150  0.00  0.00    +0.000 OA
ATOM     29  H   UNL     1       4.037   6.082  21.098  0.00  0.00    +0.000 HD
ENDBRANCH  21  28
ENDBRANCH  20  21
ENDBRANCH  19  20
ENDBRANCH   7  19
TORSDOF 13
ENDMDL
MODEL 9
REMARK VINA RESULT:      -6.9      2.065      2.483
REMARK  Name = 
REMARK  13 active torsions:
REMARK  status: ('A' for Active; 'I' for Inactive)
REMARK    1  A    between atoms: C_2  and  O_3
REMARK    2  A    between atoms: C_2  and  C_4
REMARK    3  A    between atoms: C_4  and  C_5
REMARK    4  A    between atoms: C_5  and  C_6
REMARK    5  A    between atoms: C_6  and  C_7
REMARK    6  A    between atoms: C_7  and  C_8
REMARK    7  A    between atoms: C_8  and  C_9
REMARK    8  A    between atoms: C_9  and  C_10
REMARK    9  A    between atoms: N_16  and  C_17
REMARK   10  A    between atoms: C_17  and  C_18
REMARK   11  A    between atoms: C_18  and  C_19
REMARK   12  A    between atoms: C_19  and  O_20
REMARK   13  A    between atoms: C_19  and  C_21
REMARK                            x       y       z     vdW  Elec       q    Type
REMARK                         _______ _______ _______ _____ _____    ______ ____
ROOT
ATOM      1  C   UNL     1       2.813   3.504  20.289  0.00  0.00    +0.000 C 
ATOM      2  C   UNL     1       1.762   2.805  21.159  0.00  0.00    +0.000 C 
ATOM      3  O   UNL     1       1.820   2.624  22.367  0.00  0.00    +0.000 OA
ATOM      4  N   UNL     1       0.735   2.403  20.373  0.00  0.00    +0.000 N 
ATOM      5  C   UNL     1       1.002   2.627  19.064  0.00  0.00    +0.000 C 
ATOM      6  O   UNL     1       0.284   2.291  18.139  0.00  0.00    +0.000 OA
ATOM      7  N   UNL     1       2.223   3.273  18.975  0.00  0.00    +0.000 N 
ATOM      8  H   UNL     1      -0.076   1.903  20.699  0.00  0.00    +0.000 HD
ENDROOT
BRANCH   1   9
ATOM      9  C   UNL     1       2.956   4.993  20.590  0.00  0.00    +0.000 C 
BRANCH   9  10
ATOM     10  C   UNL     1       1.704   5.795  20.241  0.00  0.00    +0.000 C 
BRANCH  10  11
ATOM     11  C   UNL     1       2.012   6.894  19.228  0.00  0.00    +0.000 C 
BRANCH  11  12
ATOM     12  C   UNL     1       1.876   8.272  19.875  0.00  0.00    +0.000 C 
BRANCH  12  13
ATOM     13  C   UNL     1       1.029   8.203  21.143  0.00  0.00    +0.000 C 
BRANCH  13  14
ATOM     14  C   UNL     1       1.017   9.543  21.876  0.00  0.00    +0.000 C 
BRANCH  14  16
ATOM     15  O   UNL     1      -0.413  10.614  23.525  0.00  0.00    +0.000 OA
ATOM     16  C   UNL     1      -0.152   9.646  22.828  0.00  0.00    +0.000 C 
BRANCH  16  17
ATOM     17  O   UNL     1      -0.906   8.523  22.839  0.00  0.00    +0.000 OA
ATOM     18  H   UNL     1      -1.052   8.140  21.953  0.00  0.00    +0.000 HD
ENDBRANCH  16  17
ENDBRANCH  14  16
ENDBRANCH  13  14
ENDBRANCH  12  13
ENDBRANCH  11  12
ENDBRANCH  10  11
ENDBRANCH   9  10
ENDBRANCH   1   9
BRANCH   7  19
ATOM     19  C   UNL     1       2.853   3.671  17.723  0.00  0.00    +0.000 C 
BRANCH  19  20
ATOM     20  C   UNL     1       4.266   3.105  17.612  0.00  0.00    +0.000 C 
BRANCH  20  21
ATOM     21  C   UNL     1       5.293   4.150  17.166  0.00  0.00    +0.000 C 
BRANCH  21  22
ATOM     22  C   UNL     1       5.114   5.501  17.914  0.00  0.00    +0.000 C 
ATOM     23  C   UNL     1       5.866   5.554  19.257  0.00  0.00    +0.000 C 
ATOM     24  C   UNL     1       7.381   5.547  19.065  0.00  0.00    +0.000 C 
ATOM     25  C   UNL     1       7.830   6.701  18.171  0.00  0.00    +0.000 C 
ATOM     26  C   UNL     1       7.063   6.759  16.852  0.00  0.00    +0.000 C 
ATOM     27  C   UNL     1       5.551   6.710  17.064  0.00  0.00    +0.000 C 
ENDBRANCH  21  22
BRANCH  21  28
ATOM     28  O   UNL     1       5.145   4.354  15.758  0.00  0.00    +0.000 OA
ATOM     29  H   UNL     1       5.159   5.310  15.583  0.00  0.00    +0.000 HD
ENDBRANCH  21  28
ENDBRANCH  20  21
ENDBRANCH  19  20
ENDBRANCH   7  19
TORSDOF 13
ENDMDL
