MODEL 1
REMARK VINA RESULT:      -6.7      0.000      0.000
REMARK  Name = 
REMARK  8 active torsions:
REMARK  status: ('A' for Active; 'I' for Inactive)
REMARK    1  A    between atoms: C_1  and  C_2
REMARK    2  A    between atoms: C_2  and  C_3
REMARK    3  A    between atoms: C_3  and  C_5
REMARK    4  A    between atoms: N_14  and  C_15
REMARK    5  A    between atoms: C_15  and  C_16
REMARK    6  A    between atoms: C_16  and  C_17
REMARK    7  A    between atoms: C_17  and  S_18
REMARK    8  A    between atoms: S_18  and  O_21
REMARK                            x       y       z     vdW  Elec       q    Type
REMARK                         _______ _______ _______ _____ _____    ______ ____
ROOT
ATOM      1  C   UNL     1       5.054   6.047  17.141  0.00  0.00    +0.000 C 
ATOM      2  C   UNL     1       4.349   5.312  18.025  0.00  0.00    +0.000 C 
ATOM      3  S   UNL     1       5.120   3.952  18.879  0.00  0.00    +0.000 S 
ATOM      4  C   UNL     1       3.598   3.661  19.743  0.00  0.00    +0.000 A 
ATOM      5  C   UNL     1       3.412   2.644  20.677  0.00  0.00    +0.000 A 
ATOM      6  C   UNL     1       2.170   2.535  21.291  0.00  0.00    +0.000 A 
ATOM      7  C   UNL     1       1.150   3.435  20.965  0.00  0.00    +0.000 A 
ATOM      8  C   UNL     1       1.353   4.456  20.012  0.00  0.00    +0.000 A 
ATOM      9  C   UNL     1       2.589   4.579  19.382  0.00  0.00    +0.000 A 
ATOM     10  N   UNL     1       3.000   5.522  18.408  0.00  0.00    +0.000 N 
ENDROOT
BRANCH   1  11
ATOM     11  C   UNL     1       6.445   5.876  16.579  0.00  0.00    +0.000 C 
ATOM     12  S   UNL     1       6.920   4.845  15.327  0.00  0.00    +0.000 S 
BRANCH  11  14
ATOM     13  C   UNL     1       7.853   6.534  18.577  0.00  0.00    +0.000 C 
ATOM     14  C   UNL     1       7.498   6.843  17.129  0.00  0.00    +0.000 C 
ENDBRANCH  11  14
ENDBRANCH   1  11
BRANCH  10  15
ATOM     15  C   UNL     1       2.090   6.570  17.919  0.00  0.00    +0.000 C 
BRANCH  15  16
ATOM     16  C   UNL     1       2.330   7.909  18.637  0.00  0.00    +0.000 C 
BRANCH  16  17
ATOM     17  C   UNL     1       1.911   9.143  17.842  0.00  0.00    +0.000 C 
BRANCH  17  18
ATOM     18  S   UNL     1       0.909  10.275  18.787  0.00  0.00    +0.000 S 
ATOM     19  O   UNL     1       0.330   9.590  19.917  0.00  0.00    +0.000 OA
ATOM     20  O   UNL     1       1.601  11.538  18.902  0.00  0.00    +0.000 OA
BRANCH  18  21
ATOM     21  O   UNL     1      -0.291  10.449  17.718  0.00  0.00    +0.000 OA
ATOM     22  H   UNL     1      -0.896  11.149  18.053  0.00  0.00    +0.000 HD
ENDBRANCH  18  21
ENDBRANCH  17  18
ENDBRANCH  16  17
ENDBRANCH  15  16
ENDBRANCH  10  15
TORSDOF 7
ENDMDL
MODEL 2
REMARK VINA RESULT:      -6.6      3.393      5.315
REMARK  Name = 
REMARK  8 active torsions:
REMARK  status: ('A' for Active; 'I' for Inactive)
REMARK    1  A    between atoms: C_1  and  C_2
REMARK    2  A    between atoms: C_2  and  C_3
REMARK    3  A    between atoms: C_3  and  C_5
REMARK    4  A    between atoms: N_14  and  C_15
REMARK    5  A    between atoms: C_15  and  C_16
REMARK    6  A    between atoms: C_16  and  C_17
REMARK    7  A    between atoms: C_17  and  S_18
REMARK    8  A    between atoms: S_18  and  O_21
REMARK                            x       y       z     vdW  Elec       q    Type
REMARK                         _______ _______ _______ _____ _____    ______ ____
ROOT
ATOM      1  C   UNL     1       4.694   4.851  18.313  0.00  0.00    +0.000 C 
ATOM      2  C   UNL     1       3.909   5.932  18.498  0.00  0.00    +0.000 C 
ATOM      3  S   UNL     1       3.902   7.251  17.301  0.00  0.00    +0.000 S 
ATOM      4  C   UNL     1       2.686   8.099  18.276  0.00  0.00    +0.000 A 
ATOM      5  C   UNL     1       2.143   9.338  17.942  0.00  0.00    +0.000 A 
ATOM      6  C   UNL     1       1.187   9.886  18.789  0.00  0.00    +0.000 A 
ATOM      7  C   UNL     1       0.796   9.193  19.939  0.00  0.00    +0.000 A 
ATOM      8  C   UNL     1       1.360   7.941  20.266  0.00  0.00    +0.000 A 
ATOM      9  C   UNL     1       2.323   7.377  19.432  0.00  0.00    +0.000 A 
ATOM     10  N   UNL     1       3.009   6.145  19.573  0.00  0.00    +0.000 N 
ENDROOT
BRANCH   1  11
ATOM     11  C   UNL     1       5.752   4.544  17.281  0.00  0.00    +0.000 C 
ATOM     12  S   UNL     1       7.428   4.642  17.478  0.00  0.00    +0.000 S 
BRANCH  11  14
ATOM     13  C   UNL     1       6.300   3.971  14.877  0.00  0.00    +0.000 C 
ATOM     14  C   UNL     1       5.233   3.961  15.962  0.00  0.00    +0.000 C 
ENDBRANCH  11  14
ENDBRANCH   1  11
BRANCH  10  15
ATOM     15  C   UNL     1       2.751   5.245  20.708  0.00  0.00    +0.000 C 
BRANCH  15  16
ATOM     16  C   UNL     1       1.407   4.513  20.556  0.00  0.00    +0.000 C 
BRANCH  16  17
ATOM     17  C   UNL     1       1.524   3.025  20.237  0.00  0.00    +0.000 C 
BRANCH  17  18
ATOM     18  S   UNL     1       1.226   2.654  18.519  0.00  0.00    +0.000 S 
ATOM     19  O   UNL     1       0.111   1.745  18.401  0.00  0.00    +0.000 OA
ATOM     20  O   UNL     1       1.338   3.868  17.746  0.00  0.00    +0.000 OA
BRANCH  18  21
ATOM     21  O   UNL     1       2.548   1.760  18.256  0.00  0.00    +0.000 OA
ATOM     22  H   UNL     1       3.304   2.374  18.113  0.00  0.00    +0.000 HD
ENDBRANCH  18  21
ENDBRANCH  17  18
ENDBRANCH  16  17
ENDBRANCH  15  16
ENDBRANCH  10  15
TORSDOF 7
ENDMDL
MODEL 3
REMARK VINA RESULT:      -6.6      0.236      1.028
REMARK  Name = 
REMARK  8 active torsions:
REMARK  status: ('A' for Active; 'I' for Inactive)
REMARK    1  A    between atoms: C_1  and  C_2
REMARK    2  A    between atoms: C_2  and  C_3
REMARK    3  A    between atoms: C_3  and  C_5
REMARK    4  A    between atoms: N_14  and  C_15
REMARK    5  A    between atoms: C_15  and  C_16
REMARK    6  A    between atoms: C_16  and  C_17
REMARK    7  A    between atoms: C_17  and  S_18
REMARK    8  A    between atoms: S_18  and  O_21
REMARK                            x       y       z     vdW  Elec       q    Type
REMARK                         _______ _______ _______ _____ _____    ______ ____
ROOT
ATOM      1  C   UNL     1       5.047   6.109  17.277  0.00  0.00    +0.000 C 
ATOM      2  C   UNL     1       4.327   5.353  18.131  0.00  0.00    +0.000 C 
ATOM      3  S   UNL     1       5.088   3.983  18.976  0.00  0.00    +0.000 S 
ATOM      4  C   UNL     1       3.549   3.666  19.801  0.00  0.00    +0.000 A 
ATOM      5  C   UNL     1       3.350   2.631  20.712  0.00  0.00    +0.000 A 
ATOM      6  C   UNL     1       2.096   2.503  21.297  0.00  0.00    +0.000 A 
ATOM      7  C   UNL     1       1.077   3.402  20.965  0.00  0.00    +0.000 A 
ATOM      8  C   UNL     1       1.294   4.442  20.036  0.00  0.00    +0.000 A 
ATOM      9  C   UNL     1       2.543   4.585  19.436  0.00  0.00    +0.000 A 
ATOM     10  N   UNL     1       2.969   5.549  18.488  0.00  0.00    +0.000 N 
ENDROOT
BRANCH   1  11
ATOM     11  C   UNL     1       6.451   5.958  16.742  0.00  0.00    +0.000 C 
ATOM     12  S   UNL     1       6.961   4.948  15.486  0.00  0.00    +0.000 S 
BRANCH  11  14
ATOM     13  C   UNL     1       7.940   6.497  18.716  0.00  0.00    +0.000 C 
ATOM     14  C   UNL     1       7.484   6.925  17.329  0.00  0.00    +0.000 C 
ENDBRANCH  11  14
ENDBRANCH   1  11
BRANCH  10  15
ATOM     15  C   UNL     1       2.063   6.599  17.999  0.00  0.00    +0.000 C 
BRANCH  15  16
ATOM     16  C   UNL     1       2.258   7.918  18.767  0.00  0.00    +0.000 C 
BRANCH  16  17
ATOM     17  C   UNL     1       2.077   9.179  17.925  0.00  0.00    +0.000 C 
BRANCH  17  18
ATOM     18  S   UNL     1       0.877  10.307  18.607  0.00  0.00    +0.000 S 
ATOM     19  O   UNL     1       1.430  11.639  18.655  0.00  0.00    +0.000 OA
ATOM     20  O   UNL     1      -0.421  10.013  18.049  0.00  0.00    +0.000 OA
BRANCH  18  21
ATOM     21  O   UNL     1       0.910   9.765  20.130  0.00  0.00    +0.000 OA
ATOM     22  H   UNL     1       0.396  10.393  20.687  0.00  0.00    +0.000 HD
ENDBRANCH  18  21
ENDBRANCH  17  18
ENDBRANCH  16  17
ENDBRANCH  15  16
ENDBRANCH  10  15
TORSDOF 7
ENDMDL
MODEL 4
REMARK VINA RESULT:      -6.5      1.069      1.513
REMARK  Name = 
REMARK  8 active torsions:
REMARK  status: ('A' for Active; 'I' for Inactive)
REMARK    1  A    between atoms: C_1  and  C_2
REMARK    2  A    between atoms: C_2  and  C_3
REMARK    3  A    between atoms: C_3  and  C_5
REMARK    4  A    between atoms: N_14  and  C_15
REMARK    5  A    between atoms: C_15  and  C_16
REMARK    6  A    between atoms: C_16  and  C_17
REMARK    7  A    between atoms: C_17  and  S_18
REMARK    8  A    between atoms: S_18  and  O_21
REMARK                            x       y       z     vdW  Elec       q    Type
REMARK                         _______ _______ _______ _____ _____    ______ ____
ROOT
ATOM      1  C   UNL     1       4.971   6.221  17.401  0.00  0.00    +0.000 C 
ATOM      2  C   UNL     1       4.273   5.424  18.235  0.00  0.00    +0.000 C 
ATOM      3  S   UNL     1       5.052   4.011  18.988  0.00  0.00    +0.000 S 
ATOM      4  C   UNL     1       3.535   3.655  19.837  0.00  0.00    +0.000 A 
ATOM      5  C   UNL     1       3.357   2.575  20.699  0.00  0.00    +0.000 A 
ATOM      6  C   UNL     1       2.119   2.419  21.310  0.00  0.00    +0.000 A 
ATOM      7  C   UNL     1       1.094   3.336  21.052  0.00  0.00    +0.000 A 
ATOM      8  C   UNL     1       1.289   4.422  20.172  0.00  0.00    +0.000 A 
ATOM      9  C   UNL     1       2.522   4.593  19.546  0.00  0.00    +0.000 A 
ATOM     10  N   UNL     1       2.925   5.603  18.638  0.00  0.00    +0.000 N 
ENDROOT
BRANCH   1  11
ATOM     11  C   UNL     1       6.360   6.095  16.821  0.00  0.00    +0.000 C 
ATOM     12  S   UNL     1       6.849   5.092  15.551  0.00  0.00    +0.000 S 
BRANCH  11  14
ATOM     13  C   UNL     1       7.979   6.615  18.696  0.00  0.00    +0.000 C 
ATOM     14  C   UNL     1       7.393   7.084  17.372  0.00  0.00    +0.000 C 
ENDBRANCH  11  14
ENDBRANCH   1  11
BRANCH  10  15
ATOM     15  C   UNL     1       2.010   6.679  18.227  0.00  0.00    +0.000 C 
BRANCH  15  16
ATOM     16  C   UNL     1       2.191   7.938  19.092  0.00  0.00    +0.000 C 
BRANCH  16  17
ATOM     17  C   UNL     1       1.725   7.792  20.538  0.00  0.00    +0.000 C 
BRANCH  17  18
ATOM     18  S   UNL     1       0.829   9.215  21.129  0.00  0.00    +0.000 S 
ATOM     19  O   UNL     1       1.458   9.728  22.322  0.00  0.00    +0.000 OA
ATOM     20  O   UNL     1       0.469  10.049  20.007  0.00  0.00    +0.000 OA
BRANCH  18  21
ATOM     21  O   UNL     1      -0.499   8.442  21.634  0.00  0.00    +0.000 OA
ATOM     22  H   UNL     1      -1.098   9.106  22.045  0.00  0.00    +0.000 HD
ENDBRANCH  18  21
ENDBRANCH  17  18
ENDBRANCH  16  17
ENDBRANCH  15  16
ENDBRANCH  10  15
TORSDOF 7
ENDMDL
MODEL 5
REMARK VINA RESULT:      -6.4      3.293      5.267
REMARK  Name = 
REMARK  8 active torsions:
REMARK  status: ('A' for Active; 'I' for Inactive)
REMARK    1  A    between atoms: C_1  and  C_2
REMARK    2  A    between atoms: C_2  and  C_3
REMARK    3  A    between atoms: C_3  and  C_5
REMARK    4  A    between atoms: N_14  and  C_15
REMARK    5  A    between atoms: C_15  and  C_16
REMARK    6  A    between atoms: C_16  and  C_17
REMARK    7  A    between atoms: C_17  and  S_18
REMARK    8  A    between atoms: S_18  and  O_21
REMARK                            x       y       z     vdW  Elec       q    Type
REMARK                         _______ _______ _______ _____ _____    ______ ____
ROOT
ATOM      1  C   UNL     1       4.439   5.135  18.469  0.00  0.00    +0.000 C 
ATOM      2  C   UNL     1       3.672   6.237  18.600  0.00  0.00    +0.000 C 
ATOM      3  S   UNL     1       3.747   7.532  17.380  0.00  0.00    +0.000 S 
ATOM      4  C   UNL     1       2.510   8.426  18.285  0.00  0.00    +0.000 A 
ATOM      5  C   UNL     1       2.010   9.669  17.906  0.00  0.00    +0.000 A 
ATOM      6  C   UNL     1       1.031  10.255  18.700  0.00  0.00    +0.000 A 
ATOM      7  C   UNL     1       0.575   9.593  19.845  0.00  0.00    +0.000 A 
ATOM      8  C   UNL     1       1.096   8.335  20.218  0.00  0.00    +0.000 A 
ATOM      9  C   UNL     1       2.081   7.734  19.438  0.00  0.00    +0.000 A 
ATOM     10  N   UNL     1       2.731   6.490  19.631  0.00  0.00    +0.000 N 
ENDROOT
BRANCH   1  11
ATOM     11  C   UNL     1       5.534   4.785  17.489  0.00  0.00    +0.000 C 
ATOM     12  S   UNL     1       5.348   4.114  15.949  0.00  0.00    +0.000 S 
BRANCH  11  14
ATOM     13  C   UNL     1       7.319   6.573  17.339  0.00  0.00    +0.000 C 
ATOM     14  C   UNL     1       6.946   5.210  17.905  0.00  0.00    +0.000 C 
ENDBRANCH  11  14
ENDBRANCH   1  11
BRANCH  10  15
ATOM     15  C   UNL     1       2.404   5.618  20.769  0.00  0.00    +0.000 C 
BRANCH  15  16
ATOM     16  C   UNL     1       1.344   4.569  20.394  0.00  0.00    +0.000 C 
BRANCH  16  17
ATOM     17  C   UNL     1       1.901   3.183  20.081  0.00  0.00    +0.000 C 
BRANCH  17  18
ATOM     18  S   UNL     1       1.435   2.591  18.465  0.00  0.00    +0.000 S 
ATOM     19  O   UNL     1       2.584   2.023  17.802  0.00  0.00    +0.000 OA
ATOM     20  O   UNL     1       0.164   1.913  18.557  0.00  0.00    +0.000 OA
BRANCH  18  21
ATOM     21  O   UNL     1       1.196   4.030  17.767  0.00  0.00    +0.000 OA
ATOM     22  H   UNL     1       1.489   3.965  16.830  0.00  0.00    +0.000 HD
ENDBRANCH  18  21
ENDBRANCH  17  18
ENDBRANCH  16  17
ENDBRANCH  15  16
ENDBRANCH  10  15
TORSDOF 7
ENDMDL
MODEL 6
REMARK VINA RESULT:      -6.4      3.445      5.305
REMARK  Name = 
REMARK  8 active torsions:
REMARK  status: ('A' for Active; 'I' for Inactive)
REMARK    1  A    between atoms: C_1  and  C_2
REMARK    2  A    between atoms: C_2  and  C_3
REMARK    3  A    between atoms: C_3  and  C_5
REMARK    4  A    between atoms: N_14  and  C_15
REMARK    5  A    between atoms: C_15  and  C_16
REMARK    6  A    between atoms: C_16  and  C_17
REMARK    7  A    between atoms: C_17  and  S_18
REMARK    8  A    between atoms: S_18  and  O_21
REMARK                            x       y       z     vdW  Elec       q    Type
REMARK                         _______ _______ _______ _____ _____    ______ ____
ROOT
ATOM      1  C   UNL     1       4.003   5.547  18.299  0.00  0.00    +0.000 C 
ATOM      2  C   UNL     1       3.173   6.501  18.768  0.00  0.00    +0.000 C 
ATOM      3  S   UNL     1       2.949   8.019  17.863  0.00  0.00    +0.000 S 
ATOM      4  C   UNL     1       1.792   8.557  19.097  0.00  0.00    +0.000 A 
ATOM      5  C   UNL     1       1.135   9.784  19.069  0.00  0.00    +0.000 A 
ATOM      6  C   UNL     1       0.243  10.076  20.094  0.00  0.00    +0.000 A 
ATOM      7  C   UNL     1       0.026   9.144  21.114  0.00  0.00    +0.000 A 
ATOM      8  C   UNL     1       0.704   7.907  21.131  0.00  0.00    +0.000 A 
ATOM      9  C   UNL     1       1.606   7.598  20.115  0.00  0.00    +0.000 A 
ATOM     10  N   UNL     1       2.383   6.426  19.943  0.00  0.00    +0.000 N 
ENDROOT
BRANCH   1  11
ATOM     11  C   UNL     1       4.961   5.536  17.131  0.00  0.00    +0.000 C 
ATOM     12  S   UNL     1       5.043   4.392  15.889  0.00  0.00    +0.000 S 
BRANCH  11  14
ATOM     13  C   UNL     1       7.292   6.474  17.440  0.00  0.00    +0.000 C 
ATOM     14  C   UNL     1       5.862   6.769  17.011  0.00  0.00    +0.000 C 
ENDBRANCH  11  14
ENDBRANCH   1  11
BRANCH  10  15
ATOM     15  C   UNL     1       2.310   5.307  20.895  0.00  0.00    +0.000 C 
BRANCH  15  16
ATOM     16  C   UNL     1       1.195   4.316  20.521  0.00  0.00    +0.000 C 
BRANCH  16  17
ATOM     17  C   UNL     1       1.686   2.932  20.102  0.00  0.00    +0.000 C 
BRANCH  17  18
ATOM     18  S   UNL     1       1.606   2.666  18.341  0.00  0.00    +0.000 S 
ATOM     19  O   UNL     1       1.134   3.862  17.687  0.00  0.00    +0.000 OA
ATOM     20  O   UNL     1       2.784   1.948  17.916  0.00  0.00    +0.000 OA
BRANCH  18  21
ATOM     21  O   UNL     1       0.355   1.641  18.332  0.00  0.00    +0.000 OA
ATOM     22  H   UNL     1       0.676   0.774  17.994  0.00  0.00    +0.000 HD
ENDBRANCH  18  21
ENDBRANCH  17  18
ENDBRANCH  16  17
ENDBRANCH  15  16
ENDBRANCH  10  15
TORSDOF 7
ENDMDL
MODEL 7
REMARK VINA RESULT:      -6.3      3.301      5.130
REMARK  Name = 
REMARK  8 active torsions:
REMARK  status: ('A' for Active; 'I' for Inactive)
REMARK    1  A    between atoms: C_1  and  C_2
REMARK    2  A    between atoms: C_2  and  C_3
REMARK    3  A    between atoms: C_3  and  C_5
REMARK    4  A    between atoms: N_14  and  C_15
REMARK    5  A    between atoms: C_15  and  C_16
REMARK    6  A    between atoms: C_16  and  C_17
REMARK    7  A    between atoms: C_17  and  S_18
REMARK    8  A    between atoms: S_18  and  O_21
REMARK                            x       y       z     vdW  Elec       q    Type
REMARK                         _______ _______ _______ _____ _____    ______ ____
ROOT
ATOM      1  C   UNL     1       4.816   5.035  18.165  0.00  0.00    +0.000 C 
ATOM      2  C   UNL     1       3.982   6.072  18.385  0.00  0.00    +0.000 C 
ATOM      3  S   UNL     1       3.878   7.405  17.209  0.00  0.00    +0.000 S 
ATOM      4  C   UNL     1       2.644   8.175  18.226  0.00  0.00    +0.000 A 
ATOM      5  C   UNL     1       2.030   9.388  17.924  0.00  0.00    +0.000 A 
ATOM      6  C   UNL     1       1.068   9.874  18.802  0.00  0.00    +0.000 A 
ATOM      7  C   UNL     1       0.740   9.145  19.950  0.00  0.00    +0.000 A 
ATOM      8  C   UNL     1       1.376   7.920  20.243  0.00  0.00    +0.000 A 
ATOM      9  C   UNL     1       2.347   7.418  19.379  0.00  0.00    +0.000 A 
ATOM     10  N   UNL     1       3.098   6.222  19.484  0.00  0.00    +0.000 N 
ENDROOT
BRANCH   1  11
ATOM     11  C   UNL     1       5.864   4.798  17.103  0.00  0.00    +0.000 C 
ATOM     12  S   UNL     1       5.668   3.970  15.643  0.00  0.00    +0.000 S 
BRANCH  11  14
ATOM     13  C   UNL     1       7.566   5.562  18.814  0.00  0.00    +0.000 C 
ATOM     14  C   UNL     1       7.205   5.502  17.337  0.00  0.00    +0.000 C 
ENDBRANCH  11  14
ENDBRANCH   1  11
BRANCH  10  15
ATOM     15  C   UNL     1       2.914   5.294  20.610  0.00  0.00    +0.000 C 
BRANCH  15  16
ATOM     16  C   UNL     1       1.591   4.518  20.496  0.00  0.00    +0.000 C 
BRANCH  16  17
ATOM     17  C   UNL     1       1.745   3.045  20.123  0.00  0.00    +0.000 C 
BRANCH  17  18
ATOM     18  S   UNL     1       1.262   2.697  18.442  0.00  0.00    +0.000 S 
ATOM     19  O   UNL     1       0.126   1.808  18.434  0.00  0.00    +0.000 OA
ATOM     20  O   UNL     1       1.314   3.917  17.672  0.00  0.00    +0.000 OA
BRANCH  18  21
ATOM     21  O   UNL     1       2.534   1.785  18.035  0.00  0.00    +0.000 OA
ATOM     22  H   UNL     1       3.116   2.320  17.449  0.00  0.00    +0.000 HD
ENDBRANCH  18  21
ENDBRANCH  17  18
ENDBRANCH  16  17
ENDBRANCH  15  16
ENDBRANCH  10  15
TORSDOF 7
ENDMDL
MODEL 8
REMARK VINA RESULT:      -6.2      1.371      1.981
REMARK  Name = 
REMARK  8 active torsions:
REMARK  status: ('A' for Active; 'I' for Inactive)
REMARK    1  A    between atoms: C_1  and  C_2
REMARK    2  A    between atoms: C_2  and  C_3
REMARK    3  A    between atoms: C_3  and  C_5
REMARK    4  A    between atoms: N_14  and  C_15
REMARK    5  A    between atoms: C_15  and  C_16
REMARK    6  A    between atoms: C_16  and  C_17
REMARK    7  A    between atoms: C_17  and  S_18
REMARK    8  A    between atoms: S_18  and  O_21
REMARK                            x       y       z     vdW  Elec       q    Type
REMARK                         _______ _______ _______ _____ _____    ______ ____
ROOT
ATOM      1  C   UNL     1       4.990   6.507  17.549  0.00  0.00    +0.000 C 
ATOM      2  C   UNL     1       4.280   5.645  18.307  0.00  0.00    +0.000 C 
ATOM      3  S   UNL     1       5.086   4.265  19.091  0.00  0.00    +0.000 S 
ATOM      4  C   UNL     1       3.532   3.793  19.806  0.00  0.00    +0.000 A 
ATOM      5  C   UNL     1       3.355   2.682  20.628  0.00  0.00    +0.000 A 
ATOM      6  C   UNL     1       2.085   2.433  21.132  0.00  0.00    +0.000 A 
ATOM      7  C   UNL     1       1.027   3.290  20.811  0.00  0.00    +0.000 A 
ATOM      8  C   UNL     1       1.222   4.409  19.972  0.00  0.00    +0.000 A 
ATOM      9  C   UNL     1       2.487   4.673  19.453  0.00  0.00    +0.000 A 
ATOM     10  N   UNL     1       2.895   5.729  18.602  0.00  0.00    +0.000 N 
ENDROOT
BRANCH   1  11
ATOM     11  C   UNL     1       6.426   6.483  17.082  0.00  0.00    +0.000 C 
ATOM     12  S   UNL     1       7.722   7.358  17.724  0.00  0.00    +0.000 S 
BRANCH  11  14
ATOM     13  C   UNL     1       5.576   5.255  15.038  0.00  0.00    +0.000 C 
ATOM     14  C   UNL     1       6.744   5.453  15.993  0.00  0.00    +0.000 C 
ENDBRANCH  11  14
ENDBRANCH   1  11
BRANCH  10  15
ATOM     15  C   UNL     1       1.948   6.756  18.140  0.00  0.00    +0.000 C 
BRANCH  15  16
ATOM     16  C   UNL     1       2.090   8.060  18.944  0.00  0.00    +0.000 C 
BRANCH  16  17
ATOM     17  C   UNL     1       1.730   7.941  20.423  0.00  0.00    +0.000 C 
BRANCH  17  18
ATOM     18  S   UNL     1       0.734   9.298  21.010  0.00  0.00    +0.000 S 
ATOM     19  O   UNL     1       1.377   9.921  22.142  0.00  0.00    +0.000 OA
ATOM     20  O   UNL     1       0.234  10.043  19.879  0.00  0.00    +0.000 OA
BRANCH  18  21
ATOM     21  O   UNL     1      -0.482   8.427  21.623  0.00  0.00    +0.000 OA
ATOM     22  H   UNL     1      -1.293   8.984  21.604  0.00  0.00    +0.000 HD
ENDBRANCH  18  21
ENDBRANCH  17  18
ENDBRANCH  16  17
ENDBRANCH  15  16
ENDBRANCH  10  15
TORSDOF 7
ENDMDL
MODEL 9
REMARK VINA RESULT:      -6.2      3.461      5.466
REMARK  Name = 
REMARK  8 active torsions:
REMARK  status: ('A' for Active; 'I' for Inactive)
REMARK    1  A    between atoms: C_1  and  C_2
REMARK    2  A    between atoms: C_2  and  C_3
REMARK    3  A    between atoms: C_3  and  C_5
REMARK    4  A    between atoms: N_14  and  C_15
REMARK    5  A    between atoms: C_15  and  C_16
REMARK    6  A    between atoms: C_16  and  C_17
REMARK    7  A    between atoms: C_17  and  S_18
REMARK    8  A    between atoms: S_18  and  O_21
REMARK                            x       y       z     vdW  Elec       q    Type
REMARK                         _______ _______ _______ _____ _____    ______ ____
ROOT
ATOM      1  C   UNL     1       4.008   5.700  18.302  0.00  0.00    +0.000 C 
ATOM      2  C   UNL     1       3.168   6.663  18.736  0.00  0.00    +0.000 C 
ATOM      3  S   UNL     1       2.945   8.154  17.789  0.00  0.00    +0.000 S 
ATOM      4  C   UNL     1       1.774   8.719  18.996  0.00  0.00    +0.000 A 
ATOM      5  C   UNL     1       1.111   9.942  18.927  0.00  0.00    +0.000 A 
ATOM      6  C   UNL     1       0.207  10.257  19.935  0.00  0.00    +0.000 A 
ATOM      7  C   UNL     1      -0.016   9.352  20.978  0.00  0.00    +0.000 A 
ATOM      8  C   UNL     1       0.668   8.119  21.036  0.00  0.00    +0.000 A 
ATOM      9  C   UNL     1       1.582   7.787  20.038  0.00  0.00    +0.000 A 
ATOM     10  N   UNL     1       2.367   6.615  19.905  0.00  0.00    +0.000 N 
ENDROOT
BRANCH   1  11
ATOM     11  C   UNL     1       4.977   5.662  17.145  0.00  0.00    +0.000 C 
ATOM     12  S   UNL     1       6.408   6.548  16.983  0.00  0.00    +0.000 S 
BRANCH  11  14
ATOM     13  C   UNL     1       5.919   3.807  15.703  0.00  0.00    +0.000 C 
ATOM     14  C   UNL     1       4.679   4.608  16.074  0.00  0.00    +0.000 C 
ENDBRANCH  11  14
ENDBRANCH   1  11
BRANCH  10  15
ATOM     15  C   UNL     1       2.290   5.522  20.887  0.00  0.00    +0.000 C 
BRANCH  15  16
ATOM     16  C   UNL     1       1.321   4.418  20.431  0.00  0.00    +0.000 C 
BRANCH  16  17
ATOM     17  C   UNL     1       1.994   3.122  19.987  0.00  0.00    +0.000 C 
BRANCH  17  18
ATOM     18  S   UNL     1       1.474   2.585  18.368  0.00  0.00    +0.000 S 
ATOM     19  O   UNL     1       2.605   2.062  17.640  0.00  0.00    +0.000 OA
ATOM     20  O   UNL     1       0.218   1.883  18.483  0.00  0.00    +0.000 OA
BRANCH  18  21
ATOM     21  O   UNL     1       1.185   4.045  17.737  0.00  0.00    +0.000 OA
ATOM     22  H   UNL     1       0.861   4.629  18.460  0.00  0.00    +0.000 HD
ENDBRANCH  18  21
ENDBRANCH  17  18
ENDBRANCH  16  17
ENDBRANCH  15  16
ENDBRANCH  10  15
TORSDOF 7
ENDMDL
