MODEL 1
REMARK VINA RESULT:      -8.7      0.000      0.000
REMARK  Name = 
REMARK  5 active torsions:
REMARK  status: ('A' for Active; 'I' for Inactive)
REMARK    1  A    between atoms: N_3  and  C_4
REMARK    2  A    between atoms: N_11  and  C_12
REMARK    3  A    between atoms: C_21  and  O_22
REMARK    4  A    between atoms: O_22  and  C_23
REMARK    5  A    between atoms: C_23  and  C_24
REMARK                            x       y       z     vdW  Elec       q    Type
REMARK                         _______ _______ _______ _____ _____    ______ ____
ROOT
ATOM      1  C   UNL     1       6.320   4.570  16.680  0.00  0.00    +0.000 A 
ATOM      2  C   UNL     1       7.049   5.297  15.731  0.00  0.00    +0.000 A 
ATOM      3  C   UNL     1       7.059   4.942  14.383  0.00  0.00    +0.000 A 
ATOM      4  N   UNL     1       7.813   5.608  13.500  0.00  0.00    +0.000 NA
ATOM      5  C   UNL     1       7.801   5.165  12.230  0.00  0.00    +0.000 A 
ATOM      6  N   UNL     1       7.090   4.136  11.754  0.00  0.00    +0.000 NA
ATOM      7  C   UNL     1       6.332   3.497  12.660  0.00  0.00    +0.000 A 
ATOM      8  C   UNL     1       6.281   3.848  13.999  0.00  0.00    +0.000 A 
ATOM      9  C   UNL     1       5.495   3.146  14.923  0.00  0.00    +0.000 A 
ATOM     10  C   UNL     1       5.478   3.520  16.269  0.00  0.00    +0.000 A 
ENDROOT
BRANCH   1  14
ATOM     11  O   UNL     1       5.479   5.559  19.978  0.00  0.00    +0.000 OA
ATOM     12  C   UNL     1       5.379   5.572  18.756  0.00  0.00    +0.000 C 
ATOM     13  N   UNL     1       4.338   6.118  18.040  0.00  0.00    +0.000 N 
ATOM     14  N   UNL     1       6.380   4.961  18.033  0.00  0.00    +0.000 N 
ATOM     15  H   UNL     1       4.262   5.841  17.075  0.00  0.00    +0.000 HD
ATOM     16  H   UNL     1       6.847   4.313  18.660  0.00  0.00    +0.000 HD
BRANCH  13  17
ATOM     17  C   UNL     1       3.291   6.926  18.553  0.00  0.00    +0.000 A 
ATOM     18  C   UNL     1       2.662   6.677  19.778  0.00  0.00    +0.000 A 
ATOM     19  C   UNL     1       1.712   7.569  20.296  0.00  0.00    +0.000 A 
ATOM     20  C   UNL     1       1.354   8.700  19.571  0.00  0.00    +0.000 A 
ATOM     21  C   UNL     1       1.941   8.927  18.336  0.00  0.00    +0.000 A 
ATOM     22  F   UNL     1       1.582  10.005  17.626  0.00  0.00    +0.000 F 
ATOM     23  C   UNL     1       2.911   8.061  17.825  0.00  0.00    +0.000 A 
ENDBRANCH  13  17
ENDBRANCH   1  14
BRANCH  10  24
ATOM     24  O   UNL     1       4.656   2.907  17.187  0.00  0.00    +0.000 OA
BRANCH  24  25
ATOM     25  C   UNL     1       3.263   3.235  17.057  0.00  0.00    +0.000 C 
BRANCH  25  26
ATOM     26  C   UNL     1       2.563   3.247  18.390  0.00  0.00    +0.000 A 
ATOM     27  C   UNL     1       1.194   3.558  18.440  0.00  0.00    +0.000 A 
ATOM     28  C   UNL     1       0.476   3.424  19.623  0.00  0.00    +0.000 A 
ATOM     29  C   UNL     1       1.123   3.000  20.783  0.00  0.00    +0.000 A 
ATOM     30  C   UNL     1       2.483   2.729  20.748  0.00  0.00    +0.000 A 
ATOM     31  F   UNL     1       3.103   2.321  21.863  0.00  0.00    +0.000 F 
ATOM     32  C   UNL     1       3.214   2.837  19.564  0.00  0.00    +0.000 A 
ENDBRANCH  25  26
ENDBRANCH  24  25
ENDBRANCH  10  24
TORSDOF 5
ENDMDL
MODEL 2
REMARK VINA RESULT:      -8.6      0.839      1.213
REMARK  Name = 
REMARK  5 active torsions:
REMARK  status: ('A' for Active; 'I' for Inactive)
REMARK    1  A    between atoms: N_3  and  C_4
REMARK    2  A    between atoms: N_11  and  C_12
REMARK    3  A    between atoms: C_21  and  O_22
REMARK    4  A    between atoms: O_22  and  C_23
REMARK    5  A    between atoms: C_23  and  C_24
REMARK                            x       y       z     vdW  Elec       q    Type
REMARK                         _______ _______ _______ _____ _____    ______ ____
ROOT
ATOM      1  C   UNL     1       6.296   4.573  16.639  0.00  0.00    +0.000 A 
ATOM      2  C   UNL     1       7.026   5.296  15.686  0.00  0.00    +0.000 A 
ATOM      3  C   UNL     1       7.039   4.931  14.341  0.00  0.00    +0.000 A 
ATOM      4  N   UNL     1       7.793   5.593  13.455  0.00  0.00    +0.000 NA
ATOM      5  C   UNL     1       7.785   5.140  12.188  0.00  0.00    +0.000 A 
ATOM      6  N   UNL     1       7.079   4.106  11.718  0.00  0.00    +0.000 NA
ATOM      7  C   UNL     1       6.320   3.471  12.626  0.00  0.00    +0.000 A 
ATOM      8  C   UNL     1       6.265   3.832  13.963  0.00  0.00    +0.000 A 
ATOM      9  C   UNL     1       5.479   3.134  14.890  0.00  0.00    +0.000 A 
ATOM     10  C   UNL     1       5.458   3.518  16.234  0.00  0.00    +0.000 A 
ENDROOT
BRANCH   1  14
ATOM     11  O   UNL     1       5.450   5.657  19.906  0.00  0.00    +0.000 OA
ATOM     12  C   UNL     1       5.381   5.663  18.681  0.00  0.00    +0.000 C 
ATOM     13  N   UNL     1       4.399   6.274  17.935  0.00  0.00    +0.000 N 
ATOM     14  N   UNL     1       6.352   4.974  17.989  0.00  0.00    +0.000 N 
ATOM     15  H   UNL     1       4.326   5.993  16.971  0.00  0.00    +0.000 HD
ATOM     16  H   UNL     1       6.756   4.302  18.634  0.00  0.00    +0.000 HD
BRANCH  13  17
ATOM     17  C   UNL     1       3.400   7.160  18.414  0.00  0.00    +0.000 A 
ATOM     18  C   UNL     1       2.970   8.285  17.702  0.00  0.00    +0.000 A 
ATOM     19  C   UNL     1       1.900   9.066  18.163  0.00  0.00    +0.000 A 
ATOM     20  C   UNL     1       1.276   8.750  19.365  0.00  0.00    +0.000 A 
ATOM     21  C   UNL     1       1.730   7.663  20.097  0.00  0.00    +0.000 A 
ATOM     22  F   UNL     1       1.145   7.369  21.266  0.00  0.00    +0.000 F 
ATOM     23  C   UNL     1       2.774   6.861  19.631  0.00  0.00    +0.000 A 
ENDBRANCH  13  17
ENDBRANCH   1  14
BRANCH  10  24
ATOM     24  O   UNL     1       4.636   2.910  17.154  0.00  0.00    +0.000 OA
BRANCH  24  25
ATOM     25  C   UNL     1       3.254   3.293  17.069  0.00  0.00    +0.000 C 
BRANCH  25  26
ATOM     26  C   UNL     1       2.600   3.337  18.424  0.00  0.00    +0.000 A 
ATOM     27  C   UNL     1       1.274   3.789  18.529  0.00  0.00    +0.000 A 
ATOM     28  C   UNL     1       0.582   3.695  19.731  0.00  0.00    +0.000 A 
ATOM     29  C   UNL     1       1.215   3.168  20.857  0.00  0.00    +0.000 A 
ATOM     30  C   UNL     1       2.537   2.756  20.769  0.00  0.00    +0.000 A 
ATOM     31  F   UNL     1       3.143   2.249  21.850  0.00  0.00    +0.000 F 
ATOM     32  C   UNL     1       3.238   2.823  19.564  0.00  0.00    +0.000 A 
ENDBRANCH  25  26
ENDBRANCH  24  25
ENDBRANCH  10  24
TORSDOF 5
ENDMDL
MODEL 3
REMARK VINA RESULT:      -8.4      4.694      7.189
REMARK  Name = 
REMARK  5 active torsions:
REMARK  status: ('A' for Active; 'I' for Inactive)
REMARK    1  A    between atoms: N_3  and  C_4
REMARK    2  A    between atoms: N_11  and  C_12
REMARK    3  A    between atoms: C_21  and  O_22
REMARK    4  A    between atoms: O_22  and  C_23
REMARK    5  A    between atoms: C_23  and  C_24
REMARK                            x       y       z     vdW  Elec       q    Type
REMARK                         _______ _______ _______ _____ _____    ______ ____
ROOT
ATOM      1  C   UNL     1       2.254   7.089  18.609  0.00  0.00    +0.000 A 
ATOM      2  C   UNL     1       2.214   5.939  17.810  0.00  0.00    +0.000 A 
ATOM      3  C   UNL     1       2.028   4.671  18.359  0.00  0.00    +0.000 A 
ATOM      4  N   UNL     1       2.058   3.577  17.589  0.00  0.00    +0.000 NA
ATOM      5  C   UNL     1       1.921   2.390  18.210  0.00  0.00    +0.000 A 
ATOM      6  N   UNL     1       1.735   2.196  19.520  0.00  0.00    +0.000 NA
ATOM      7  C   UNL     1       1.695   3.313  20.265  0.00  0.00    +0.000 A 
ATOM      8  C   UNL     1       1.846   4.587  19.741  0.00  0.00    +0.000 A 
ATOM      9  C   UNL     1       1.821   5.731  20.549  0.00  0.00    +0.000 A 
ATOM     10  C   UNL     1       1.990   7.000  19.988  0.00  0.00    +0.000 A 
ENDROOT
BRANCH   1  14
ATOM     11  O   UNL     1       1.998  10.471  17.577  0.00  0.00    +0.000 OA
ATOM     12  C   UNL     1       1.563   9.355  17.845  0.00  0.00    +0.000 C 
ATOM     13  N   UNL     1       0.239   9.034  18.037  0.00  0.00    +0.000 N 
ATOM     14  N   UNL     1       2.480   8.338  17.995  0.00  0.00    +0.000 N 
ATOM     15  H   UNL     1       0.050   8.155  18.489  0.00  0.00    +0.000 HD
ATOM     16  H   UNL     1       3.376   8.773  18.193  0.00  0.00    +0.000 HD
BRANCH  13  17
ATOM     17  C   UNL     1      -0.880   9.868  17.782  0.00  0.00    +0.000 A 
ATOM     18  C   UNL     1      -1.704   9.722  16.660  0.00  0.00    +0.000 A 
ATOM     19  C   UNL     1      -2.864  10.495  16.510  0.00  0.00    +0.000 A 
ATOM     20  C   UNL     1      -3.189  11.452  17.464  0.00  0.00    +0.000 A 
ATOM     21  C   UNL     1      -2.351  11.633  18.555  0.00  0.00    +0.000 A 
ATOM     22  F   UNL     1      -2.649  12.570  19.465  0.00  0.00    +0.000 F 
ATOM     23  C   UNL     1      -1.209  10.847  18.729  0.00  0.00    +0.000 A 
ENDBRANCH  13  17
ENDBRANCH   1  14
BRANCH  10  24
ATOM     24  O   UNL     1       1.888   8.149  20.738  0.00  0.00    +0.000 OA
BRANCH  24  25
ATOM     25  C   UNL     1       0.754   8.191  21.619  0.00  0.00    +0.000 C 
BRANCH  25  26
ATOM     26  C   UNL     1       0.333   9.604  21.924  0.00  0.00    +0.000 A 
ATOM     27  C   UNL     1       0.964  10.665  21.253  0.00  0.00    +0.000 A 
ATOM     28  C   UNL     1       0.497  11.969  21.384  0.00  0.00    +0.000 A 
ATOM     29  C   UNL     1      -0.595  12.235  22.209  0.00  0.00    +0.000 A 
ATOM     30  C   UNL     1      -1.198  11.196  22.904  0.00  0.00    +0.000 A 
ATOM     31  F   UNL     1      -2.248  11.454  23.694  0.00  0.00    +0.000 F 
ATOM     32  C   UNL     1      -0.756   9.880  22.766  0.00  0.00    +0.000 A 
ENDBRANCH  25  26
ENDBRANCH  24  25
ENDBRANCH  10  24
TORSDOF 5
ENDMDL
MODEL 4
REMARK VINA RESULT:      -8.3      2.841      7.090
REMARK  Name = 
REMARK  5 active torsions:
REMARK  status: ('A' for Active; 'I' for Inactive)
REMARK    1  A    between atoms: N_3  and  C_4
REMARK    2  A    between atoms: N_11  and  C_12
REMARK    3  A    between atoms: C_21  and  O_22
REMARK    4  A    between atoms: O_22  and  C_23
REMARK    5  A    between atoms: C_23  and  C_24
REMARK                            x       y       z     vdW  Elec       q    Type
REMARK                         _______ _______ _______ _____ _____    ______ ____
ROOT
ATOM      1  C   UNL     1       4.669   5.403  18.326  0.00  0.00    +0.000 A 
ATOM      2  C   UNL     1       4.522   4.033  18.578  0.00  0.00    +0.000 A 
ATOM      3  C   UNL     1       3.316   3.494  19.023  0.00  0.00    +0.000 A 
ATOM      4  N   UNL     1       3.211   2.194  19.322  0.00  0.00    +0.000 NA
ATOM      5  C   UNL     1       2.025   1.770  19.794  0.00  0.00    +0.000 A 
ATOM      6  N   UNL     1       0.928   2.515  19.971  0.00  0.00    +0.000 NA
ATOM      7  C   UNL     1       1.059   3.812  19.649  0.00  0.00    +0.000 A 
ATOM      8  C   UNL     1       2.237   4.367  19.176  0.00  0.00    +0.000 A 
ATOM      9  C   UNL     1       2.346   5.730  18.869  0.00  0.00    +0.000 A 
ATOM     10  C   UNL     1       3.555   6.259  18.406  0.00  0.00    +0.000 A 
ENDROOT
BRANCH   1  14
ATOM     11  O   UNL     1       7.385   6.600  16.389  0.00  0.00    +0.000 OA
ATOM     12  C   UNL     1       6.432   5.868  16.630  0.00  0.00    +0.000 C 
ATOM     13  N   UNL     1       5.801   5.045  15.725  0.00  0.00    +0.000 N 
ATOM     14  N   UNL     1       5.925   5.890  17.911  0.00  0.00    +0.000 N 
ATOM     15  H   UNL     1       4.893   4.697  15.990  0.00  0.00    +0.000 HD
ATOM     16  H   UNL     1       6.222   6.765  18.333  0.00  0.00    +0.000 HD
BRANCH  13  17
ATOM     17  C   UNL     1       6.237   4.741  14.411  0.00  0.00    +0.000 A 
ATOM     18  C   UNL     1       7.368   5.322  13.826  0.00  0.00    +0.000 A 
ATOM     19  C   UNL     1       7.826   4.904  12.568  0.00  0.00    +0.000 A 
ATOM     20  C   UNL     1       7.131   3.927  11.865  0.00  0.00    +0.000 A 
ATOM     21  C   UNL     1       5.984   3.381  12.420  0.00  0.00    +0.000 A 
ATOM     22  F   UNL     1       5.299   2.454  11.735  0.00  0.00    +0.000 F 
ATOM     23  C   UNL     1       5.537   3.768  13.686  0.00  0.00    +0.000 A 
ENDBRANCH  13  17
ENDBRANCH   1  14
BRANCH  10  24
ATOM     24  O   UNL     1       3.675   7.573  18.017  0.00  0.00    +0.000 OA
BRANCH  24  25
ATOM     25  C   UNL     1       2.468   8.159  17.502  0.00  0.00    +0.000 C 
BRANCH  25  26
ATOM     26  C   UNL     1       1.928   9.225  18.418  0.00  0.00    +0.000 A 
ATOM     27  C   UNL     1       2.000  10.570  18.019  0.00  0.00    +0.000 A 
ATOM     28  C   UNL     1       1.372  11.567  18.756  0.00  0.00    +0.000 A 
ATOM     29  C   UNL     1       0.680  11.236  19.922  0.00  0.00    +0.000 A 
ATOM     30  C   UNL     1       0.638   9.915  20.341  0.00  0.00    +0.000 A 
ATOM     31  F   UNL     1      -0.028   9.599  21.460  0.00  0.00    +0.000 F 
ATOM     32  C   UNL     1       1.244   8.900  19.600  0.00  0.00    +0.000 A 
ENDBRANCH  25  26
ENDBRANCH  24  25
ENDBRANCH  10  24
TORSDOF 5
ENDMDL
MODEL 5
REMARK VINA RESULT:      -8.3      4.673      7.185
REMARK  Name = 
REMARK  5 active torsions:
REMARK  status: ('A' for Active; 'I' for Inactive)
REMARK    1  A    between atoms: N_3  and  C_4
REMARK    2  A    between atoms: N_11  and  C_12
REMARK    3  A    between atoms: C_21  and  O_22
REMARK    4  A    between atoms: O_22  and  C_23
REMARK    5  A    between atoms: C_23  and  C_24
REMARK                            x       y       z     vdW  Elec       q    Type
REMARK                         _______ _______ _______ _____ _____    ______ ____
ROOT
ATOM      1  C   UNL     1       2.321   7.182  18.640  0.00  0.00    +0.000 A 
ATOM      2  C   UNL     1       2.319   6.015  17.864  0.00  0.00    +0.000 A 
ATOM      3  C   UNL     1       2.184   4.753  18.438  0.00  0.00    +0.000 A 
ATOM      4  N   UNL     1       2.250   3.645  17.689  0.00  0.00    +0.000 NA
ATOM      5  C   UNL     1       2.161   2.467  18.334  0.00  0.00    +0.000 A 
ATOM      6  N   UNL     1       1.989   2.292  19.648  0.00  0.00    +0.000 NA
ATOM      7  C   UNL     1       1.911   3.421  20.371  0.00  0.00    +0.000 A 
ATOM      8  C   UNL     1       2.012   4.689  19.822  0.00  0.00    +0.000 A 
ATOM      9  C   UNL     1       1.948   5.847  20.608  0.00  0.00    +0.000 A 
ATOM     10  C   UNL     1       2.067   7.110  20.022  0.00  0.00    +0.000 A 
ENDROOT
BRANCH   1  14
ATOM     11  O   UNL     1       1.947  10.538  17.562  0.00  0.00    +0.000 OA
ATOM     12  C   UNL     1       1.549   9.416  17.858  0.00  0.00    +0.000 C 
ATOM     13  N   UNL     1       0.239   9.062  18.089  0.00  0.00    +0.000 N 
ATOM     14  N   UNL     1       2.497   8.426  18.001  0.00  0.00    +0.000 N 
ATOM     15  H   UNL     1       0.087   8.186  18.560  0.00  0.00    +0.000 HD
ATOM     16  H   UNL     1       3.386   8.888  18.169  0.00  0.00    +0.000 HD
BRANCH  13  17
ATOM     17  C   UNL     1      -0.907   9.862  17.849  0.00  0.00    +0.000 A 
ATOM     18  C   UNL     1      -1.345  10.857  18.730  0.00  0.00    +0.000 A 
ATOM     19  C   UNL     1      -2.416  11.699  18.395  0.00  0.00    +0.000 A 
ATOM     20  C   UNL     1      -3.086  11.524  17.190  0.00  0.00    +0.000 A 
ATOM     21  C   UNL     1      -2.685  10.509  16.334  0.00  0.00    +0.000 A 
ATOM     22  F   UNL     1      -3.342  10.324  15.181  0.00  0.00    +0.000 F 
ATOM     23  C   UNL     1      -1.600   9.685  16.644  0.00  0.00    +0.000 A 
ENDBRANCH  13  17
ENDBRANCH   1  14
BRANCH  10  24
ATOM     24  O   UNL     1       1.927   8.269  20.750  0.00  0.00    +0.000 OA
BRANCH  24  25
ATOM     25  C   UNL     1       0.828   8.266  21.676  0.00  0.00    +0.000 C 
BRANCH  25  26
ATOM     26  C   UNL     1       0.338   9.659  21.970  0.00  0.00    +0.000 A 
ATOM     27  C   UNL     1       0.928  10.746  21.304  0.00  0.00    +0.000 A 
ATOM     28  C   UNL     1       0.401  12.027  21.424  0.00  0.00    +0.000 A 
ATOM     29  C   UNL     1      -0.712  12.245  22.236  0.00  0.00    +0.000 A 
ATOM     30  C   UNL     1      -1.275  11.182  22.927  0.00  0.00    +0.000 A 
ATOM     31  F   UNL     1      -2.344  11.394  23.705  0.00  0.00    +0.000 F 
ATOM     32  C   UNL     1      -0.772   9.887  22.799  0.00  0.00    +0.000 A 
ENDBRANCH  25  26
ENDBRANCH  24  25
ENDBRANCH  10  24
TORSDOF 5
ENDMDL
MODEL 6
REMARK VINA RESULT:      -8.3      0.979      1.327
REMARK  Name = 
REMARK  5 active torsions:
REMARK  status: ('A' for Active; 'I' for Inactive)
REMARK    1  A    between atoms: N_3  and  C_4
REMARK    2  A    between atoms: N_11  and  C_12
REMARK    3  A    between atoms: C_21  and  O_22
REMARK    4  A    between atoms: O_22  and  C_23
REMARK    5  A    between atoms: C_23  and  C_24
REMARK                            x       y       z     vdW  Elec       q    Type
REMARK                         _______ _______ _______ _____ _____    ______ ____
ROOT
ATOM      1  C   UNL     1       5.861   4.714  16.762  0.00  0.00    +0.000 A 
ATOM      2  C   UNL     1       6.918   5.237  16.005  0.00  0.00    +0.000 A 
ATOM      3  C   UNL     1       7.035   4.986  14.639  0.00  0.00    +0.000 A 
ATOM      4  N   UNL     1       8.086   5.439  13.944  0.00  0.00    +0.000 NA
ATOM      5  C   UNL     1       8.145   5.106  12.641  0.00  0.00    +0.000 A 
ATOM      6  N   UNL     1       7.244   4.386  11.964  0.00  0.00    +0.000 NA
ATOM      7  C   UNL     1       6.194   3.959  12.684  0.00  0.00    +0.000 A 
ATOM      8  C   UNL     1       6.037   4.220  14.036  0.00  0.00    +0.000 A 
ATOM      9  C   UNL     1       4.939   3.740  14.763  0.00  0.00    +0.000 A 
ATOM     10  C   UNL     1       4.820   4.011  16.129  0.00  0.00    +0.000 A 
ENDROOT
BRANCH   1  14
ATOM     11  O   UNL     1       4.786   5.513  20.044  0.00  0.00    +0.000 OA
ATOM     12  C   UNL     1       4.823   5.643  18.825  0.00  0.00    +0.000 C 
ATOM     13  N   UNL     1       3.936   6.376  18.068  0.00  0.00    +0.000 N 
ATOM     14  N   UNL     1       5.819   4.976  18.146  0.00  0.00    +0.000 N 
ATOM     15  H   UNL     1       3.934   6.195  17.078  0.00  0.00    +0.000 HD
ATOM     16  H   UNL     1       6.136   4.223  18.749  0.00  0.00    +0.000 HD
BRANCH  13  17
ATOM     17  C   UNL     1       2.941   7.262  18.553  0.00  0.00    +0.000 A 
ATOM     18  C   UNL     1       2.294   7.088  19.782  0.00  0.00    +0.000 A 
ATOM     19  C   UNL     1       1.400   8.052  20.271  0.00  0.00    +0.000 A 
ATOM     20  C   UNL     1       1.116   9.183  19.514  0.00  0.00    +0.000 A 
ATOM     21  C   UNL     1       1.720   9.337  18.275  0.00  0.00    +0.000 A 
ATOM     22  F   UNL     1       1.432  10.416  17.533  0.00  0.00    +0.000 F 
ATOM     23  C   UNL     1       2.635   8.398  17.793  0.00  0.00    +0.000 A 
ENDBRANCH  13  17
ENDBRANCH   1  14
BRANCH  10  24
ATOM     24  O   UNL     1       3.717   3.628  16.855  0.00  0.00    +0.000 OA
BRANCH  24  25
ATOM     25  C   UNL     1       3.939   2.521  17.745  0.00  0.00    +0.000 C 
BRANCH  25  26
ATOM     26  C   UNL     1       3.147   2.657  19.018  0.00  0.00    +0.000 A 
ATOM     27  C   UNL     1       3.685   2.154  20.214  0.00  0.00    +0.000 A 
ATOM     28  C   UNL     1       3.064   2.400  21.434  0.00  0.00    +0.000 A 
ATOM     29  C   UNL     1       1.879   3.134  21.473  0.00  0.00    +0.000 A 
ATOM     30  C   UNL     1       1.324   3.601  20.291  0.00  0.00    +0.000 A 
ATOM     31  F   UNL     1       0.186   4.308  20.331  0.00  0.00    +0.000 F 
ATOM     32  C   UNL     1       1.946   3.382  19.061  0.00  0.00    +0.000 A 
ENDBRANCH  25  26
ENDBRANCH  24  25
ENDBRANCH  10  24
TORSDOF 5
ENDMDL
MODEL 7
REMARK VINA RESULT:      -8.2      3.115      6.518
REMARK  Name = 
REMARK  5 active torsions:
REMARK  status: ('A' for Active; 'I' for Inactive)
REMARK    1  A    between atoms: N_3  and  C_4
REMARK    2  A    between atoms: N_11  and  C_12
REMARK    3  A    between atoms: C_21  and  O_22
REMARK    4  A    between atoms: O_22  and  C_23
REMARK    5  A    between atoms: C_23  and  C_24
REMARK                            x       y       z     vdW  Elec       q    Type
REMARK                         _______ _______ _______ _____ _____    ______ ____
ROOT
ATOM      1  C   UNL     1       3.285   6.014  18.109  0.00  0.00    +0.000 A 
ATOM      2  C   UNL     1       2.675   5.627  19.309  0.00  0.00    +0.000 A 
ATOM      3  C   UNL     1       3.001   4.431  19.946  0.00  0.00    +0.000 A 
ATOM      4  N   UNL     1       2.361   4.045  21.057  0.00  0.00    +0.000 NA
ATOM      5  C   UNL     1       2.704   2.852  21.575  0.00  0.00    +0.000 A 
ATOM      6  N   UNL     1       3.640   2.020  21.104  0.00  0.00    +0.000 NA
ATOM      7  C   UNL     1       4.275   2.440  19.997  0.00  0.00    +0.000 A 
ATOM      8  C   UNL     1       3.992   3.639  19.362  0.00  0.00    +0.000 A 
ATOM      9  C   UNL     1       4.658   4.038  18.196  0.00  0.00    +0.000 A 
ATOM     10  C   UNL     1       4.337   5.248  17.574  0.00  0.00    +0.000 A 
ENDROOT
BRANCH   1  14
ATOM     11  O   UNL     1       2.328   9.374  17.513  0.00  0.00    +0.000 OA
ATOM     12  C   UNL     1       2.326   8.311  18.125  0.00  0.00    +0.000 C 
ATOM     13  N   UNL     1       1.839   8.117  19.398  0.00  0.00    +0.000 N 
ATOM     14  N   UNL     1       2.885   7.219  17.498  0.00  0.00    +0.000 N 
ATOM     15  H   UNL     1       2.124   7.271  19.863  0.00  0.00    +0.000 HD
ATOM     16  H   UNL     1       3.504   7.576  16.776  0.00  0.00    +0.000 HD
BRANCH  13  17
ATOM     17  C   UNL     1       1.086   9.041  20.166  0.00  0.00    +0.000 A 
ATOM     18  C   UNL     1       0.341  10.081  19.598  0.00  0.00    +0.000 A 
ATOM     19  C   UNL     1      -0.478  10.898  20.390  0.00  0.00    +0.000 A 
ATOM     20  C   UNL     1      -0.529  10.706  21.766  0.00  0.00    +0.000 A 
ATOM     21  C   UNL     1       0.243   9.706  22.338  0.00  0.00    +0.000 A 
ATOM     22  F   UNL     1       0.213   9.533  23.667  0.00  0.00    +0.000 F 
ATOM     23  C   UNL     1       1.039   8.867  21.555  0.00  0.00    +0.000 A 
ENDBRANCH  13  17
ENDBRANCH   1  14
BRANCH  10  24
ATOM     24  O   UNL     1       5.027   5.710  16.477  0.00  0.00    +0.000 OA
BRANCH  24  25
ATOM     25  C   UNL     1       6.246   5.005  16.194  0.00  0.00    +0.000 C 
BRANCH  25  26
ATOM     26  C   UNL     1       6.431   4.772  14.718  0.00  0.00    +0.000 A 
ATOM     27  C   UNL     1       7.505   5.390  14.058  0.00  0.00    +0.000 A 
ATOM     28  C   UNL     1       7.805   5.076  12.737  0.00  0.00    +0.000 A 
ATOM     29  C   UNL     1       7.018   4.154  12.047  0.00  0.00    +0.000 A 
ATOM     30  C   UNL     1       5.933   3.569  12.683  0.00  0.00    +0.000 A 
ATOM     31  F   UNL     1       5.180   2.682  12.019  0.00  0.00    +0.000 F 
ATOM     32  C   UNL     1       5.632   3.856  14.015  0.00  0.00    +0.000 A 
ENDBRANCH  25  26
ENDBRANCH  24  25
ENDBRANCH  10  24
TORSDOF 5
ENDMDL
MODEL 8
REMARK VINA RESULT:      -8.2      4.718      7.247
REMARK  Name = 
REMARK  5 active torsions:
REMARK  status: ('A' for Active; 'I' for Inactive)
REMARK    1  A    between atoms: N_3  and  C_4
REMARK    2  A    between atoms: N_11  and  C_12
REMARK    3  A    between atoms: C_21  and  O_22
REMARK    4  A    between atoms: O_22  and  C_23
REMARK    5  A    between atoms: C_23  and  C_24
REMARK                            x       y       z     vdW  Elec       q    Type
REMARK                         _______ _______ _______ _____ _____    ______ ____
ROOT
ATOM      1  C   UNL     1       2.300   7.201  18.645  0.00  0.00    +0.000 A 
ATOM      2  C   UNL     1       2.259   6.025  17.886  0.00  0.00    +0.000 A 
ATOM      3  C   UNL     1       2.095   4.774  18.479  0.00  0.00    +0.000 A 
ATOM      4  N   UNL     1       2.124   3.655  17.745  0.00  0.00    +0.000 NA
ATOM      5  C   UNL     1       2.010   2.489  18.406  0.00  0.00    +0.000 A 
ATOM      6  N   UNL     1       1.847   2.336  19.725  0.00  0.00    +0.000 NA
ATOM      7  C   UNL     1       1.807   3.476  20.433  0.00  0.00    +0.000 A 
ATOM      8  C   UNL     1       1.936   4.734  19.865  0.00  0.00    +0.000 A 
ATOM      9  C   UNL     1       1.913   5.904  20.636  0.00  0.00    +0.000 A 
ATOM     10  C   UNL     1       2.059   7.155  20.031  0.00  0.00    +0.000 A 
ENDROOT
BRANCH   1  14
ATOM     11  O   UNL     1       1.996  10.547  17.513  0.00  0.00    +0.000 OA
ATOM     12  C   UNL     1       1.576   9.437  17.826  0.00  0.00    +0.000 C 
ATOM     13  N   UNL     1       0.258   9.114  18.058  0.00  0.00    +0.000 N 
ATOM     14  N   UNL     1       2.503   8.432  17.988  0.00  0.00    +0.000 N 
ATOM     15  H   UNL     1       0.087   8.248  18.542  0.00  0.00    +0.000 HD
ATOM     16  H   UNL     1       3.400   8.878  18.151  0.00  0.00    +0.000 HD
BRANCH  13  17
ATOM     17  C   UNL     1      -0.872   9.932  17.801  0.00  0.00    +0.000 A 
ATOM     18  C   UNL     1      -1.709   9.755  16.694  0.00  0.00    +0.000 A 
ATOM     19  C   UNL     1      -2.879  10.515  16.545  0.00  0.00    +0.000 A 
ATOM     20  C   UNL     1      -3.200  11.487  17.485  0.00  0.00    +0.000 A 
ATOM     21  C   UNL     1      -2.350  11.697  18.560  0.00  0.00    +0.000 A 
ATOM     22  F   UNL     1      -2.645  12.648  19.456  0.00  0.00    +0.000 F 
ATOM     23  C   UNL     1      -1.198  10.925  18.734  0.00  0.00    +0.000 A 
ENDBRANCH  13  17
ENDBRANCH   1  14
BRANCH  10  24
ATOM     24  O   UNL     1       1.958   8.327  20.744  0.00  0.00    +0.000 OA
BRANCH  24  25
ATOM     25  C   UNL     1       0.954   8.318  21.773  0.00  0.00    +0.000 C 
BRANCH  25  26
ATOM     26  C   UNL     1       0.297   9.664  21.927  0.00  0.00    +0.000 A 
ATOM     27  C   UNL     1      -0.769   9.804  22.831  0.00  0.00    +0.000 A 
ATOM     28  C   UNL     1      -1.296  11.057  23.123  0.00  0.00    +0.000 A 
ATOM     29  C   UNL     1      -0.780  12.190  22.494  0.00  0.00    +0.000 A 
ATOM     30  C   UNL     1       0.247  12.053  21.571  0.00  0.00    +0.000 A 
ATOM     31  F   UNL     1       0.743  13.142  20.970  0.00  0.00    +0.000 F 
ATOM     32  C   UNL     1       0.802  10.805  21.285  0.00  0.00    +0.000 A 
ENDBRANCH  25  26
ENDBRANCH  24  25
ENDBRANCH  10  24
TORSDOF 5
ENDMDL
MODEL 9
REMARK VINA RESULT:      -8.2      1.157      1.681
REMARK  Name = 
REMARK  5 active torsions:
REMARK  status: ('A' for Active; 'I' for Inactive)
REMARK    1  A    between atoms: N_3  and  C_4
REMARK    2  A    between atoms: N_11  and  C_12
REMARK    3  A    between atoms: C_21  and  O_22
REMARK    4  A    between atoms: O_22  and  C_23
REMARK    5  A    between atoms: C_23  and  C_24
REMARK                            x       y       z     vdW  Elec       q    Type
REMARK                         _______ _______ _______ _____ _____    ______ ____
ROOT
ATOM      1  C   UNL     1       6.172   4.493  16.720  0.00  0.00    +0.000 A 
ATOM      2  C   UNL     1       6.933   5.290  15.855  0.00  0.00    +0.000 A 
ATOM      3  C   UNL     1       7.036   5.005  14.494  0.00  0.00    +0.000 A 
ATOM      4  N   UNL     1       7.820   5.738  13.694  0.00  0.00    +0.000 NA
ATOM      5  C   UNL     1       7.899   5.360  12.405  0.00  0.00    +0.000 A 
ATOM      6  N   UNL     1       7.253   4.337  11.836  0.00  0.00    +0.000 NA
ATOM      7  C   UNL     1       6.463   3.629  12.660  0.00  0.00    +0.000 A 
ATOM      8  C   UNL     1       6.319   3.910  14.009  0.00  0.00    +0.000 A 
ATOM      9  C   UNL     1       5.503   3.137  14.846  0.00  0.00    +0.000 A 
ATOM     10  C   UNL     1       5.391   3.441  16.206  0.00  0.00    +0.000 A 
ENDROOT
BRANCH   1  14
ATOM     11  O   UNL     1       5.121   5.462  19.963  0.00  0.00    +0.000 OA
ATOM     12  C   UNL     1       5.161   5.539  18.740  0.00  0.00    +0.000 C 
ATOM     13  N   UNL     1       4.295   6.264  17.952  0.00  0.00    +0.000 N 
ATOM     14  N   UNL     1       6.137   4.816  18.092  0.00  0.00    +0.000 N 
ATOM     15  H   UNL     1       4.288   6.041  16.970  0.00  0.00    +0.000 HD
ATOM     16  H   UNL     1       6.433   4.080  18.726  0.00  0.00    +0.000 HD
BRANCH  13  17
ATOM     17  C   UNL     1       3.326   7.198  18.397  0.00  0.00    +0.000 A 
ATOM     18  C   UNL     1       2.892   8.280  17.623  0.00  0.00    +0.000 A 
ATOM     19  C   UNL     1       1.849   9.109  18.060  0.00  0.00    +0.000 A 
ATOM     20  C   UNL     1       1.255   8.885  19.297  0.00  0.00    +0.000 A 
ATOM     21  C   UNL     1       1.712   7.841  20.088  0.00  0.00    +0.000 A 
ATOM     22  F   UNL     1       1.157   7.636  21.290  0.00  0.00    +0.000 F 
ATOM     23  C   UNL     1       2.730   6.991  19.649  0.00  0.00    +0.000 A 
ENDBRANCH  13  17
ENDBRANCH   1  14
BRANCH  10  24
ATOM     24  O   UNL     1       4.536   2.758  17.039  0.00  0.00    +0.000 OA
BRANCH  24  25
ATOM     25  C   UNL     1       3.192   3.265  17.065  0.00  0.00    +0.000 C 
BRANCH  25  26
ATOM     26  C   UNL     1       2.594   3.197  18.446  0.00  0.00    +0.000 A 
ATOM     27  C   UNL     1       3.256   2.462  19.442  0.00  0.00    +0.000 A 
ATOM     28  C   UNL     1       2.828   2.505  20.764  0.00  0.00    +0.000 A 
ATOM     29  C   UNL     1       1.711   3.269  21.106  0.00  0.00    +0.000 A 
ATOM     30  C   UNL     1       1.031   3.967  20.119  0.00  0.00    +0.000 A 
ATOM     31  F   UNL     1      -0.040   4.700  20.450  0.00  0.00    +0.000 F 
ATOM     32  C   UNL     1       1.462   3.951  18.792  0.00  0.00    +0.000 A 
ENDBRANCH  25  26
ENDBRANCH  24  25
ENDBRANCH  10  24
TORSDOF 5
ENDMDL
