MODEL 1
REMARK VINA RESULT:      -6.5      0.000      0.000
REMARK  Name = 
REMARK  14 active torsions:
REMARK  status: ('A' for Active; 'I' for Inactive)
REMARK    1  A    between atoms: C_1  and  C_2
REMARK    2  A    between atoms: C_2  and  C_3
REMARK    3  A    between atoms: C_3  and  C_4
REMARK    4  A    between atoms: C_4  and  C_5
REMARK    5  A    between atoms: N_11  and  O_12
REMARK    6  A    between atoms: O_12  and  C_13
REMARK    7  A    between atoms: C_13  and  C_14
REMARK    8  A    between atoms: C_14  and  O_15
REMARK    9  A    between atoms: C_14  and  C_16
REMARK   10  A    between atoms: C_16  and  N_17
REMARK   11  A    between atoms: N_17  and  C_18
REMARK   12  A    between atoms: C_18  and  C_19
REMARK   13  A    between atoms: C_18  and  C_20
REMARK   14  A    between atoms: C_18  and  C_21
REMARK                            x       y       z     vdW  Elec       q    Type
REMARK                         _______ _______ _______ _____ _____    ______ ____
ROOT
ATOM      1  O   UNL     1       5.151   4.613  18.511  0.00  0.00    +0.000 OA
ENDROOT
BRANCH   1   4
ATOM      2  C   UNL     1       3.625   1.328  18.732  0.00  0.00    +0.000 C 
ATOM      3  C   UNL     1       3.909   2.762  18.352  0.00  0.00    +0.000 C 
ATOM      4  N   UNL     1       4.899   3.320  18.980  0.00  0.00    +0.000 NA
BRANCH   3   5
ATOM      5  C   UNL     1       3.129   3.434  17.224  0.00  0.00    +0.000 C 
BRANCH   5   6
ATOM      6  C   UNL     1       1.763   3.987  17.625  0.00  0.00    +0.000 C 
BRANCH   6   7
ATOM      7  C   UNL     1       1.883   5.201  18.515  0.00  0.00    +0.000 A 
ATOM      8  C   UNL     1       2.259   6.439  17.974  0.00  0.00    +0.000 A 
ATOM      9  C   UNL     1       2.360   7.568  18.790  0.00  0.00    +0.000 A 
ATOM     10  C   UNL     1       2.097   7.467  20.153  0.00  0.00    +0.000 A 
ATOM     11  C   UNL     1       1.736   6.238  20.704  0.00  0.00    +0.000 A 
ATOM     12  C   UNL     1       1.634   5.107  19.890  0.00  0.00    +0.000 A 
ENDBRANCH   6   7
ENDBRANCH   5   6
ENDBRANCH   3   5
ENDBRANCH   1   4
BRANCH   1  13
ATOM     13  C   UNL     1       5.985   5.295  19.457  0.00  0.00    +0.000 C 
BRANCH  13  14
ATOM     14  C   UNL     1       7.317   5.622  18.782  0.00  0.00    +0.000 C 
BRANCH  14  15
ATOM     15  O   UNL     1       8.394   5.386  19.705  0.00  0.00    +0.000 OA
ATOM     16  H   UNL     1       9.112   5.994  19.441  0.00  0.00    +0.000 HD
ENDBRANCH  14  15
BRANCH  14  17
ATOM     17  C   UNL     1       7.570   4.789  17.508  0.00  0.00    +0.000 C 
BRANCH  17  18
ATOM     18  N   UNL     1       7.475   5.585  16.282  0.00  0.00    +0.000 NA
ATOM     19  H   UNL     1       8.413   5.723  15.904  0.00  0.00    +0.000 HD
BRANCH  18  20
ATOM     20  C   UNL     1       6.604   5.035  15.226  0.00  0.00    +0.000 C 
ATOM     21  C   UNL     1       6.202   3.579  15.515  0.00  0.00    +0.000 C 
ATOM     22  C   UNL     1       5.324   5.894  15.226  0.00  0.00    +0.000 C 
ATOM     23  C   UNL     1       7.257   5.139  13.839  0.00  0.00    +0.000 C 
ENDBRANCH  18  20
ENDBRANCH  17  18
ENDBRANCH  14  17
ENDBRANCH  13  14
ENDBRANCH   1  13
TORSDOF 10
ENDMDL
MODEL 2
REMARK VINA RESULT:      -6.5      0.830      1.637
REMARK  Name = 
REMARK  14 active torsions:
REMARK  status: ('A' for Active; 'I' for Inactive)
REMARK    1  A    between atoms: C_1  and  C_2
REMARK    2  A    between atoms: C_2  and  C_3
REMARK    3  A    between atoms: C_3  and  C_4
REMARK    4  A    between atoms: C_4  and  C_5
REMARK    5  A    between atoms: N_11  and  O_12
REMARK    6  A    between atoms: O_12  and  C_13
REMARK    7  A    between atoms: C_13  and  C_14
REMARK    8  A    between atoms: C_14  and  O_15
REMARK    9  A    between atoms: C_14  and  C_16
REMARK   10  A    between atoms: C_16  and  N_17
REMARK   11  A    between atoms: N_17  and  C_18
REMARK   12  A    between atoms: C_18  and  C_19
REMARK   13  A    between atoms: C_18  and  C_20
REMARK   14  A    between atoms: C_18  and  C_21
REMARK                            x       y       z     vdW  Elec       q    Type
REMARK                         _______ _______ _______ _____ _____    ______ ____
ROOT
ATOM      1  O   UNL     1       5.680   4.086  18.760  0.00  0.00    +0.000 OA
ENDROOT
BRANCH   1   4
ATOM      2  C   UNL     1       3.589   1.961  20.830  0.00  0.00    +0.000 C 
ATOM      3  C   UNL     1       4.112   2.783  19.675  0.00  0.00    +0.000 C 
ATOM      4  N   UNL     1       5.220   3.422  19.901  0.00  0.00    +0.000 NA
BRANCH   3   5
ATOM      5  C   UNL     1       3.409   2.749  18.320  0.00  0.00    +0.000 C 
BRANCH   5   6
ATOM      6  C   UNL     1       2.030   3.404  18.291  0.00  0.00    +0.000 C 
BRANCH   6   7
ATOM      7  C   UNL     1       2.071   4.829  18.788  0.00  0.00    +0.000 A 
ATOM      8  C   UNL     1       1.717   5.126  20.113  0.00  0.00    +0.000 A 
ATOM      9  C   UNL     1       1.764   6.441  20.582  0.00  0.00    +0.000 A 
ATOM     10  C   UNL     1       2.155   7.470  19.730  0.00  0.00    +0.000 A 
ATOM     11  C   UNL     1       2.496   7.188  18.408  0.00  0.00    +0.000 A 
ATOM     12  C   UNL     1       2.450   5.874  17.936  0.00  0.00    +0.000 A 
ENDBRANCH   6   7
ENDBRANCH   5   6
ENDBRANCH   3   5
ENDBRANCH   1   4
BRANCH   1  13
ATOM     13  C   UNL     1       5.818   5.480  19.061  0.00  0.00    +0.000 C 
BRANCH  13  14
ATOM     14  C   UNL     1       7.234   5.920  18.685  0.00  0.00    +0.000 C 
BRANCH  14  15
ATOM     15  O   UNL     1       8.165   4.875  19.015  0.00  0.00    +0.000 OA
ATOM     16  H   UNL     1       7.668   4.234  19.559  0.00  0.00    +0.000 HD
ENDBRANCH  14  15
BRANCH  14  17
ATOM     17  C   UNL     1       7.384   6.256  17.186  0.00  0.00    +0.000 C 
BRANCH  17  18
ATOM     18  N   UNL     1       7.489   5.060  16.346  0.00  0.00    +0.000 NA
ATOM     19  H   UNL     1       7.466   4.233  16.943  0.00  0.00    +0.000 HD
BRANCH  18  20
ATOM     20  C   UNL     1       6.464   4.925  15.293  0.00  0.00    +0.000 C 
ATOM     21  C   UNL     1       7.078   4.980  13.884  0.00  0.00    +0.000 C 
ATOM     22  C   UNL     1       5.826   3.535  15.482  0.00  0.00    +0.000 C 
ATOM     23  C   UNL     1       5.362   5.987  15.432  0.00  0.00    +0.000 C 
ENDBRANCH  18  20
ENDBRANCH  17  18
ENDBRANCH  14  17
ENDBRANCH  13  14
ENDBRANCH   1  13
TORSDOF 10
ENDMDL
MODEL 3
REMARK VINA RESULT:      -6.4      1.988      3.199
REMARK  Name = 
REMARK  14 active torsions:
REMARK  status: ('A' for Active; 'I' for Inactive)
REMARK    1  A    between atoms: C_1  and  C_2
REMARK    2  A    between atoms: C_2  and  C_3
REMARK    3  A    between atoms: C_3  and  C_4
REMARK    4  A    between atoms: C_4  and  C_5
REMARK    5  A    between atoms: N_11  and  O_12
REMARK    6  A    between atoms: O_12  and  C_13
REMARK    7  A    between atoms: C_13  and  C_14
REMARK    8  A    between atoms: C_14  and  O_15
REMARK    9  A    between atoms: C_14  and  C_16
REMARK   10  A    between atoms: C_16  and  N_17
REMARK   11  A    between atoms: N_17  and  C_18
REMARK   12  A    between atoms: C_18  and  C_19
REMARK   13  A    between atoms: C_18  and  C_20
REMARK   14  A    between atoms: C_18  and  C_21
REMARK                            x       y       z     vdW  Elec       q    Type
REMARK                         _______ _______ _______ _____ _____    ______ ____
ROOT
ATOM      1  O   UNL     1       1.664   3.354  18.274  0.00  0.00    +0.000 OA
ENDROOT
BRANCH   1   4
ATOM      2  C   UNL     1       1.392   2.498  21.790  0.00  0.00    +0.000 C 
ATOM      3  C   UNL     1       1.457   3.278  20.497  0.00  0.00    +0.000 C 
ATOM      4  N   UNL     1       1.707   2.575  19.434  0.00  0.00    +0.000 NA
BRANCH   3   5
ATOM      5  C   UNL     1       1.137   4.770  20.477  0.00  0.00    +0.000 C 
BRANCH   5   6
ATOM      6  C   UNL     1       2.349   5.692  20.586  0.00  0.00    +0.000 C 
BRANCH   6   7
ATOM      7  C   UNL     1       2.202   6.925  19.727  0.00  0.00    +0.000 A 
ATOM      8  C   UNL     1       1.496   8.039  20.204  0.00  0.00    +0.000 A 
ATOM      9  C   UNL     1       1.366   9.187  19.418  0.00  0.00    +0.000 A 
ATOM     10  C   UNL     1       1.932   9.227  18.147  0.00  0.00    +0.000 A 
ATOM     11  C   UNL     1       2.624   8.120  17.657  0.00  0.00    +0.000 A 
ATOM     12  C   UNL     1       2.755   6.971  18.441  0.00  0.00    +0.000 A 
ENDBRANCH   6   7
ENDBRANCH   5   6
ENDBRANCH   3   5
ENDBRANCH   1   4
BRANCH   1  13
ATOM     13  C   UNL     1       2.866   3.135  17.525  0.00  0.00    +0.000 C 
BRANCH  13  14
ATOM     14  C   UNL     1       4.062   3.329  18.458  0.00  0.00    +0.000 C 
BRANCH  14  15
ATOM     15  O   UNL     1       4.576   2.046  18.854  0.00  0.00    +0.000 OA
ATOM     16  H   UNL     1       5.548   2.139  18.870  0.00  0.00    +0.000 HD
ENDBRANCH  14  15
BRANCH  14  17
ATOM     17  C   UNL     1       5.207   4.138  17.813  0.00  0.00    +0.000 C 
BRANCH  17  18
ATOM     18  N   UNL     1       5.595   3.620  16.498  0.00  0.00    +0.000 NA
ATOM     19  H   UNL     1       4.854   3.010  16.152  0.00  0.00    +0.000 HD
BRANCH  18  20
ATOM     20  C   UNL     1       5.901   4.637  15.474  0.00  0.00    +0.000 C 
ATOM     21  C   UNL     1       5.169   5.963  15.744  0.00  0.00    +0.000 C 
ATOM     22  C   UNL     1       7.417   4.902  15.564  0.00  0.00    +0.000 C 
ATOM     23  C   UNL     1       5.580   4.133  14.058  0.00  0.00    +0.000 C 
ENDBRANCH  18  20
ENDBRANCH  17  18
ENDBRANCH  14  17
ENDBRANCH  13  14
ENDBRANCH   1  13
TORSDOF 10
ENDMDL
MODEL 4
REMARK VINA RESULT:      -6.4      0.757      1.219
REMARK  Name = 
REMARK  14 active torsions:
REMARK  status: ('A' for Active; 'I' for Inactive)
REMARK    1  A    between atoms: C_1  and  C_2
REMARK    2  A    between atoms: C_2  and  C_3
REMARK    3  A    between atoms: C_3  and  C_4
REMARK    4  A    between atoms: C_4  and  C_5
REMARK    5  A    between atoms: N_11  and  O_12
REMARK    6  A    between atoms: O_12  and  C_13
REMARK    7  A    between atoms: C_13  and  C_14
REMARK    8  A    between atoms: C_14  and  O_15
REMARK    9  A    between atoms: C_14  and  C_16
REMARK   10  A    between atoms: C_16  and  N_17
REMARK   11  A    between atoms: N_17  and  C_18
REMARK   12  A    between atoms: C_18  and  C_19
REMARK   13  A    between atoms: C_18  and  C_20
REMARK   14  A    between atoms: C_18  and  C_21
REMARK                            x       y       z     vdW  Elec       q    Type
REMARK                         _______ _______ _______ _____ _____    ______ ____
ROOT
ATOM      1  O   UNL     1       5.550   4.430  18.551  0.00  0.00    +0.000 OA
ENDROOT
BRANCH   1   4
ATOM      2  C   UNL     1       4.016   1.769  20.484  0.00  0.00    +0.000 C 
ATOM      3  C   UNL     1       4.287   2.802  19.416  0.00  0.00    +0.000 C 
ATOM      4  N   UNL     1       5.319   3.562  19.623  0.00  0.00    +0.000 NA
BRANCH   3   5
ATOM      5  C   UNL     1       3.441   2.842  18.145  0.00  0.00    +0.000 C 
BRANCH   5   6
ATOM      6  C   UNL     1       2.037   3.416  18.322  0.00  0.00    +0.000 C 
BRANCH   6   7
ATOM      7  C   UNL     1       2.067   4.832  18.845  0.00  0.00    +0.000 A 
ATOM      8  C   UNL     1       2.434   5.890  18.000  0.00  0.00    +0.000 A 
ATOM      9  C   UNL     1       2.452   7.204  18.476  0.00  0.00    +0.000 A 
ATOM     10  C   UNL     1       2.115   7.469  19.800  0.00  0.00    +0.000 A 
ATOM     11  C   UNL     1       1.762   6.423  20.652  0.00  0.00    +0.000 A 
ATOM     12  C   UNL     1       1.742   5.109  20.179  0.00  0.00    +0.000 A 
ENDBRANCH   6   7
ENDBRANCH   5   6
ENDBRANCH   3   5
ENDBRANCH   1   4
BRANCH   1  13
ATOM     13  C   UNL     1       5.898   5.721  19.068  0.00  0.00    +0.000 C 
BRANCH  13  14
ATOM     14  C   UNL     1       7.321   6.056  18.620  0.00  0.00    +0.000 C 
BRANCH  14  15
ATOM     15  O   UNL     1       8.203   4.978  18.974  0.00  0.00    +0.000 OA
ATOM     16  H   UNL     1       8.530   5.182  19.872  0.00  0.00    +0.000 HD
ENDBRANCH  14  15
BRANCH  14  17
ATOM     17  C   UNL     1       7.433   6.304  17.100  0.00  0.00    +0.000 C 
BRANCH  17  18
ATOM     18  N   UNL     1       7.497   5.060  16.328  0.00  0.00    +0.000 NA
ATOM     19  H   UNL     1       7.390   4.270  16.964  0.00  0.00    +0.000 HD
BRANCH  18  20
ATOM     20  C   UNL     1       6.517   4.935  15.232  0.00  0.00    +0.000 C 
ATOM     21  C   UNL     1       7.186   5.039  13.850  0.00  0.00    +0.000 C 
ATOM     22  C   UNL     1       5.899   3.529  15.359  0.00  0.00    +0.000 C 
ATOM     23  C   UNL     1       5.391   5.973  15.355  0.00  0.00    +0.000 C 
ENDBRANCH  18  20
ENDBRANCH  17  18
ENDBRANCH  14  17
ENDBRANCH  13  14
ENDBRANCH   1  13
TORSDOF 10
ENDMDL
MODEL 5
REMARK VINA RESULT:      -6.3      1.442      2.304
REMARK  Name = 
REMARK  14 active torsions:
REMARK  status: ('A' for Active; 'I' for Inactive)
REMARK    1  A    between atoms: C_1  and  C_2
REMARK    2  A    between atoms: C_2  and  C_3
REMARK    3  A    between atoms: C_3  and  C_4
REMARK    4  A    between atoms: C_4  and  C_5
REMARK    5  A    between atoms: N_11  and  O_12
REMARK    6  A    between atoms: O_12  and  C_13
REMARK    7  A    between atoms: C_13  and  C_14
REMARK    8  A    between atoms: C_14  and  O_15
REMARK    9  A    between atoms: C_14  and  C_16
REMARK   10  A    between atoms: C_16  and  N_17
REMARK   11  A    between atoms: N_17  and  C_18
REMARK   12  A    between atoms: C_18  and  C_19
REMARK   13  A    between atoms: C_18  and  C_20
REMARK   14  A    between atoms: C_18  and  C_21
REMARK                            x       y       z     vdW  Elec       q    Type
REMARK                         _______ _______ _______ _____ _____    ______ ____
ROOT
ATOM      1  O   UNL     1       6.718   5.133  19.920  0.00  0.00    +0.000 OA
ENDROOT
BRANCH   1   4
ATOM      2  C   UNL     1       3.951   3.607  18.135  0.00  0.00    +0.000 C 
ATOM      3  C   UNL     1       4.782   4.559  18.964  0.00  0.00    +0.000 C 
ATOM      4  N   UNL     1       5.990   4.162  19.225  0.00  0.00    +0.000 NA
BRANCH   3   5
ATOM      5  C   UNL     1       4.231   5.929  19.353  0.00  0.00    +0.000 C 
BRANCH   5   6
ATOM      6  C   UNL     1       2.735   5.961  19.658  0.00  0.00    +0.000 C 
BRANCH   6   7
ATOM      7  C   UNL     1       2.142   7.331  19.435  0.00  0.00    +0.000 A 
ATOM      8  C   UNL     1       1.494   8.000  20.484  0.00  0.00    +0.000 A 
ATOM      9  C   UNL     1       0.954   9.273  20.286  0.00  0.00    +0.000 A 
ATOM     10  C   UNL     1       1.047   9.882  19.038  0.00  0.00    +0.000 A 
ATOM     11  C   UNL     1       1.676   9.220  17.985  0.00  0.00    +0.000 A 
ATOM     12  C   UNL     1       2.218   7.947  18.180  0.00  0.00    +0.000 A 
ENDBRANCH   6   7
ENDBRANCH   5   6
ENDBRANCH   3   5
ENDBRANCH   1   4
BRANCH   1  13
ATOM     13  C   UNL     1       7.862   5.502  19.139  0.00  0.00    +0.000 C 
BRANCH  13  14
ATOM     14  C   UNL     1       7.547   6.804  18.401  0.00  0.00    +0.000 C 
BRANCH  14  15
ATOM     15  O   UNL     1       8.563   7.778  18.690  0.00  0.00    +0.000 OA
ATOM     16  H   UNL     1       8.112   8.645  18.689  0.00  0.00    +0.000 HD
ENDBRANCH  14  15
BRANCH  14  17
ATOM     17  C   UNL     1       7.460   6.624  16.870  0.00  0.00    +0.000 C 
BRANCH  17  18
ATOM     18  N   UNL     1       7.401   5.216  16.468  0.00  0.00    +0.000 NA
ATOM     19  H   UNL     1       7.112   4.655  17.270  0.00  0.00    +0.000 HD
BRANCH  18  20
ATOM     20  C   UNL     1       6.521   4.913  15.323  0.00  0.00    +0.000 C 
ATOM     21  C   UNL     1       5.945   3.489  15.403  0.00  0.00    +0.000 C 
ATOM     22  C   UNL     1       5.346   5.909  15.401  0.00  0.00    +0.000 C 
ATOM     23  C   UNL     1       7.242   5.119  13.982  0.00  0.00    +0.000 C 
ENDBRANCH  18  20
ENDBRANCH  17  18
ENDBRANCH  14  17
ENDBRANCH  13  14
ENDBRANCH   1  13
TORSDOF 10
ENDMDL
MODEL 6
REMARK VINA RESULT:      -6.3      0.722      1.230
REMARK  Name = 
REMARK  14 active torsions:
REMARK  status: ('A' for Active; 'I' for Inactive)
REMARK    1  A    between atoms: C_1  and  C_2
REMARK    2  A    between atoms: C_2  and  C_3
REMARK    3  A    between atoms: C_3  and  C_4
REMARK    4  A    between atoms: C_4  and  C_5
REMARK    5  A    between atoms: N_11  and  O_12
REMARK    6  A    between atoms: O_12  and  C_13
REMARK    7  A    between atoms: C_13  and  C_14
REMARK    8  A    between atoms: C_14  and  O_15
REMARK    9  A    between atoms: C_14  and  C_16
REMARK   10  A    between atoms: C_16  and  N_17
REMARK   11  A    between atoms: N_17  and  C_18
REMARK   12  A    between atoms: C_18  and  C_19
REMARK   13  A    between atoms: C_18  and  C_20
REMARK   14  A    between atoms: C_18  and  C_21
REMARK                            x       y       z     vdW  Elec       q    Type
REMARK                         _______ _______ _______ _____ _____    ______ ____
ROOT
ATOM      1  O   UNL     1       5.381   4.621  18.583  0.00  0.00    +0.000 OA
ENDROOT
BRANCH   1   4
ATOM      2  C   UNL     1       4.302   1.797  20.590  0.00  0.00    +0.000 C 
ATOM      3  C   UNL     1       4.373   2.860  19.519  0.00  0.00    +0.000 C 
ATOM      4  N   UNL     1       5.331   3.727  19.656  0.00  0.00    +0.000 NA
BRANCH   3   5
ATOM      5  C   UNL     1       3.430   2.815  18.319  0.00  0.00    +0.000 C 
BRANCH   5   6
ATOM      6  C   UNL     1       2.030   3.367  18.577  0.00  0.00    +0.000 C 
BRANCH   6   7
ATOM      7  C   UNL     1       2.060   4.828  18.959  0.00  0.00    +0.000 A 
ATOM      8  C   UNL     1       2.399   5.801  18.008  0.00  0.00    +0.000 A 
ATOM      9  C   UNL     1       2.417   7.154  18.353  0.00  0.00    +0.000 A 
ATOM     10  C   UNL     1       2.106   7.545  19.652  0.00  0.00    +0.000 A 
ATOM     11  C   UNL     1       1.781   6.585  20.609  0.00  0.00    +0.000 A 
ATOM     12  C   UNL     1       1.762   5.231  20.267  0.00  0.00    +0.000 A 
ENDBRANCH   6   7
ENDBRANCH   5   6
ENDBRANCH   3   5
ENDBRANCH   1   4
BRANCH   1  13
ATOM     13  C   UNL     1       6.088   5.798  18.994  0.00  0.00    +0.000 C 
BRANCH  13  14
ATOM     14  C   UNL     1       7.546   5.668  18.552  0.00  0.00    +0.000 C 
BRANCH  14  15
ATOM     15  O   UNL     1       8.340   5.187  19.650  0.00  0.00    +0.000 OA
ATOM     16  H   UNL     1       7.718   5.052  20.392  0.00  0.00    +0.000 HD
ENDBRANCH  14  15
BRANCH  14  17
ATOM     17  C   UNL     1       7.732   4.711  17.355  0.00  0.00    +0.000 C 
BRANCH  17  18
ATOM     18  N   UNL     1       7.587   5.386  16.063  0.00  0.00    +0.000 NA
ATOM     19  H   UNL     1       8.448   5.267  15.529  0.00  0.00    +0.000 HD
BRANCH  18  20
ATOM     20  C   UNL     1       6.442   4.953  15.239  0.00  0.00    +0.000 C 
ATOM     21  C   UNL     1       5.272   5.949  15.314  0.00  0.00    +0.000 C 
ATOM     22  C   UNL     1       6.944   4.916  13.782  0.00  0.00    +0.000 C 
ATOM     23  C   UNL     1       5.965   3.544  15.624  0.00  0.00    +0.000 C 
ENDBRANCH  18  20
ENDBRANCH  17  18
ENDBRANCH  14  17
ENDBRANCH  13  14
ENDBRANCH   1  13
TORSDOF 10
ENDMDL
MODEL 7
REMARK VINA RESULT:      -6.3      1.594      2.806
REMARK  Name = 
REMARK  14 active torsions:
REMARK  status: ('A' for Active; 'I' for Inactive)
REMARK    1  A    between atoms: C_1  and  C_2
REMARK    2  A    between atoms: C_2  and  C_3
REMARK    3  A    between atoms: C_3  and  C_4
REMARK    4  A    between atoms: C_4  and  C_5
REMARK    5  A    between atoms: N_11  and  O_12
REMARK    6  A    between atoms: O_12  and  C_13
REMARK    7  A    between atoms: C_13  and  C_14
REMARK    8  A    between atoms: C_14  and  O_15
REMARK    9  A    between atoms: C_14  and  C_16
REMARK   10  A    between atoms: C_16  and  N_17
REMARK   11  A    between atoms: N_17  and  C_18
REMARK   12  A    between atoms: C_18  and  C_19
REMARK   13  A    between atoms: C_18  and  C_20
REMARK   14  A    between atoms: C_18  and  C_21
REMARK                            x       y       z     vdW  Elec       q    Type
REMARK                         _______ _______ _______ _____ _____    ______ ____
ROOT
ATOM      1  O   UNL     1       5.183   5.277  18.418  0.00  0.00    +0.000 OA
ENDROOT
BRANCH   1   4
ATOM      2  C   UNL     1       2.209   7.349  18.243  0.00  0.00    +0.000 C 
ATOM      3  C   UNL     1       3.192   6.218  18.044  0.00  0.00    +0.000 C 
ATOM      4  N   UNL     1       4.365   6.399  18.572  0.00  0.00    +0.000 NA
BRANCH   3   5
ATOM      5  C   UNL     1       2.757   4.927  17.356  0.00  0.00    +0.000 C 
BRANCH   5   6
ATOM      6  C   UNL     1       1.538   4.245  17.974  0.00  0.00    +0.000 C 
BRANCH   6   7
ATOM      7  C   UNL     1       1.867   3.587  19.293  0.00  0.00    +0.000 A 
ATOM      8  C   UNL     1       3.106   2.959  19.481  0.00  0.00    +0.000 A 
ATOM      9  C   UNL     1       3.420   2.360  20.703  0.00  0.00    +0.000 A 
ATOM     10  C   UNL     1       2.495   2.375  21.743  0.00  0.00    +0.000 A 
ATOM     11  C   UNL     1       1.254   2.985  21.563  0.00  0.00    +0.000 A 
ATOM     12  C   UNL     1       0.938   3.585  20.342  0.00  0.00    +0.000 A 
ENDBRANCH   6   7
ENDBRANCH   5   6
ENDBRANCH   3   5
ENDBRANCH   1   4
BRANCH   1  13
ATOM     13  C   UNL     1       6.342   5.431  19.247  0.00  0.00    +0.000 C 
BRANCH  13  14
ATOM     14  C   UNL     1       7.577   5.501  18.347  0.00  0.00    +0.000 C 
BRANCH  14  15
ATOM     15  O   UNL     1       8.122   4.181  18.176  0.00  0.00    +0.000 OA
ATOM     16  H   UNL     1       9.087   4.271  18.298  0.00  0.00    +0.000 HD
ENDBRANCH  14  15
BRANCH  14  17
ATOM     17  C   UNL     1       7.277   6.093  16.954  0.00  0.00    +0.000 C 
BRANCH  17  18
ATOM     18  N   UNL     1       7.566   5.155  15.866  0.00  0.00    +0.000 NA
ATOM     19  H   UNL     1       8.003   4.320  16.257  0.00  0.00    +0.000 HD
BRANCH  18  20
ATOM     20  C   UNL     1       6.410   4.755  15.041  0.00  0.00    +0.000 C 
ATOM     21  C   UNL     1       5.697   3.518  15.613  0.00  0.00    +0.000 C 
ATOM     22  C   UNL     1       5.420   5.936  15.077  0.00  0.00    +0.000 C 
ATOM     23  C   UNL     1       6.814   4.505  13.580  0.00  0.00    +0.000 C 
ENDBRANCH  18  20
ENDBRANCH  17  18
ENDBRANCH  14  17
ENDBRANCH  13  14
ENDBRANCH   1  13
TORSDOF 10
ENDMDL
MODEL 8
REMARK VINA RESULT:      -6.2      2.528      3.680
REMARK  Name = 
REMARK  14 active torsions:
REMARK  status: ('A' for Active; 'I' for Inactive)
REMARK    1  A    between atoms: C_1  and  C_2
REMARK    2  A    between atoms: C_2  and  C_3
REMARK    3  A    between atoms: C_3  and  C_4
REMARK    4  A    between atoms: C_4  and  C_5
REMARK    5  A    between atoms: N_11  and  O_12
REMARK    6  A    between atoms: O_12  and  C_13
REMARK    7  A    between atoms: C_13  and  C_14
REMARK    8  A    between atoms: C_14  and  O_15
REMARK    9  A    between atoms: C_14  and  C_16
REMARK   10  A    between atoms: C_16  and  N_17
REMARK   11  A    between atoms: N_17  and  C_18
REMARK   12  A    between atoms: C_18  and  C_19
REMARK   13  A    between atoms: C_18  and  C_20
REMARK   14  A    between atoms: C_18  and  C_21
REMARK                            x       y       z     vdW  Elec       q    Type
REMARK                         _______ _______ _______ _____ _____    ______ ____
ROOT
ATOM      1  O   UNL     1       5.513   3.891  16.863  0.00  0.00    +0.000 OA
ENDROOT
BRANCH   1   4
ATOM      2  C   UNL     1       2.710   5.793  18.165  0.00  0.00    +0.000 C 
ATOM      3  C   UNL     1       3.535   4.749  17.449  0.00  0.00    +0.000 C 
ATOM      4  N   UNL     1       4.819   4.941  17.470  0.00  0.00    +0.000 NA
BRANCH   3   5
ATOM      5  C   UNL     1       2.868   3.513  16.849  0.00  0.00    +0.000 C 
BRANCH   5   6
ATOM      6  C   UNL     1       2.940   2.256  17.713  0.00  0.00    +0.000 C 
BRANCH   6   7
ATOM      7  C   UNL     1       2.444   2.506  19.116  0.00  0.00    +0.000 A 
ATOM      8  C   UNL     1       3.340   2.495  20.195  0.00  0.00    +0.000 A 
ATOM      9  C   UNL     1       2.889   2.737  21.495  0.00  0.00    +0.000 A 
ATOM     10  C   UNL     1       1.538   2.982  21.728  0.00  0.00    +0.000 A 
ATOM     11  C   UNL     1       0.636   2.981  20.665  0.00  0.00    +0.000 A 
ATOM     12  C   UNL     1       1.085   2.739  19.364  0.00  0.00    +0.000 A 
ENDBRANCH   6   7
ENDBRANCH   5   6
ENDBRANCH   3   5
ENDBRANCH   1   4
BRANCH   1  13
ATOM     13  C   UNL     1       6.803   4.362  16.455  0.00  0.00    +0.000 C 
BRANCH  13  14
ATOM     14  C   UNL     1       6.629   5.243  15.217  0.00  0.00    +0.000 C 
BRANCH  14  15
ATOM     15  O   UNL     1       7.912   5.483  14.613  0.00  0.00    +0.000 OA
ATOM     16  H   UNL     1       7.784   5.358  13.652  0.00  0.00    +0.000 HD
ENDBRANCH  14  15
BRANCH  14  17
ATOM     17  C   UNL     1       5.697   4.618  14.157  0.00  0.00    +0.000 C 
BRANCH  17  18
ATOM     18  N   UNL     1       6.226   3.368  13.604  0.00  0.00    +0.000 NA
ATOM     19  H   UNL     1       5.781   2.582  14.079  0.00  0.00    +0.000 HD
BRANCH  18  20
ATOM     20  C   UNL     1       6.079   3.199  12.146  0.00  0.00    +0.000 C 
ATOM     21  C   UNL     1       4.627   3.417  11.687  0.00  0.00    +0.000 C 
ATOM     22  C   UNL     1       6.955   4.284  11.490  0.00  0.00    +0.000 C 
ATOM     23  C   UNL     1       6.580   1.823  11.680  0.00  0.00    +0.000 C 
ENDBRANCH  18  20
ENDBRANCH  17  18
ENDBRANCH  14  17
ENDBRANCH  13  14
ENDBRANCH   1  13
TORSDOF 10
ENDMDL
MODEL 9
REMARK VINA RESULT:      -6.2      2.261      3.789
REMARK  Name = 
REMARK  14 active torsions:
REMARK  status: ('A' for Active; 'I' for Inactive)
REMARK    1  A    between atoms: C_1  and  C_2
REMARK    2  A    between atoms: C_2  and  C_3
REMARK    3  A    between atoms: C_3  and  C_4
REMARK    4  A    between atoms: C_4  and  C_5
REMARK    5  A    between atoms: N_11  and  O_12
REMARK    6  A    between atoms: O_12  and  C_13
REMARK    7  A    between atoms: C_13  and  C_14
REMARK    8  A    between atoms: C_14  and  O_15
REMARK    9  A    between atoms: C_14  and  C_16
REMARK   10  A    between atoms: C_16  and  N_17
REMARK   11  A    between atoms: N_17  and  C_18
REMARK   12  A    between atoms: C_18  and  C_19
REMARK   13  A    between atoms: C_18  and  C_20
REMARK   14  A    between atoms: C_18  and  C_21
REMARK                            x       y       z     vdW  Elec       q    Type
REMARK                         _______ _______ _______ _____ _____    ______ ____
ROOT
ATOM      1  O   UNL     1       5.206   6.028  16.898  0.00  0.00    +0.000 OA
ENDROOT
BRANCH   1   4
ATOM      2  C   UNL     1       7.834   5.740  19.384  0.00  0.00    +0.000 C 
ATOM      3  C   UNL     1       6.509   5.624  18.668  0.00  0.00    +0.000 C 
ATOM      4  N   UNL     1       6.429   6.256  17.536  0.00  0.00    +0.000 NA
BRANCH   3   5
ATOM      5  C   UNL     1       5.405   4.726  19.223  0.00  0.00    +0.000 C 
BRANCH   5   6
ATOM      6  C   UNL     1       4.132   5.455  19.646  0.00  0.00    +0.000 C 
BRANCH   6   7
ATOM      7  C   UNL     1       2.918   4.559  19.576  0.00  0.00    +0.000 A 
ATOM      8  C   UNL     1       2.451   4.097  18.337  0.00  0.00    +0.000 A 
ATOM      9  C   UNL     1       1.336   3.259  18.267  0.00  0.00    +0.000 A 
ATOM     10  C   UNL     1       0.673   2.884  19.433  0.00  0.00    +0.000 A 
ATOM     11  C   UNL     1       1.121   3.349  20.669  0.00  0.00    +0.000 A 
ATOM     12  C   UNL     1       2.236   4.187  20.741  0.00  0.00    +0.000 A 
ENDBRANCH   6   7
ENDBRANCH   5   6
ENDBRANCH   3   5
ENDBRANCH   1   4
BRANCH   1  13
ATOM     13  C   UNL     1       5.447   5.791  15.506  0.00  0.00    +0.000 C 
BRANCH  13  14
ATOM     14  C   UNL     1       6.461   4.653  15.375  0.00  0.00    +0.000 C 
BRANCH  14  15
ATOM     15  O   UNL     1       5.939   3.469  16.002  0.00  0.00    +0.000 OA
ATOM     16  H   UNL     1       6.706   3.018  16.405  0.00  0.00    +0.000 HD
ENDBRANCH  14  15
BRANCH  14  17
ATOM     17  C   UNL     1       6.810   4.320  13.909  0.00  0.00    +0.000 C 
BRANCH  17  18
ATOM     18  N   UNL     1       6.157   3.097  13.436  0.00  0.00    +0.000 NA
ATOM     19  H   UNL     1       5.239   3.021  13.877  0.00  0.00    +0.000 HD
BRANCH  18  20
ATOM     20  C   UNL     1       6.002   2.978  11.973  0.00  0.00    +0.000 C 
ATOM     21  C   UNL     1       6.164   1.525  11.496  0.00  0.00    +0.000 C 
ATOM     22  C   UNL     1       4.564   3.430  11.650  0.00  0.00    +0.000 C 
ATOM     23  C   UNL     1       6.979   3.895  11.222  0.00  0.00    +0.000 C 
ENDBRANCH  18  20
ENDBRANCH  17  18
ENDBRANCH  14  17
ENDBRANCH  13  14
ENDBRANCH   1  13
TORSDOF 10
ENDMDL
