MODEL 1
REMARK VINA RESULT:      -7.6      0.000      0.000
REMARK  Name = 
REMARK  5 active torsions:
REMARK  status: ('A' for Active; 'I' for Inactive)
REMARK    1  A    between atoms: C_2  and  O_3
REMARK    2  A    between atoms: C_2  and  C_4
REMARK    3  A    between atoms: C_8  and  C_9
REMARK    4  A    between atoms: C_9  and  N_10
REMARK    5  A    between atoms: C_14  and  N_15
REMARK                            x       y       z     vdW  Elec       q    Type
REMARK                         _______ _______ _______ _____ _____    ______ ____
ROOT
ATOM      1  C   UNL     1       3.329   5.396  18.284  0.00  0.00    +0.000 C 
ENDROOT
BRANCH   1   6
ATOM      2  C   UNL     1       1.508   8.311  20.114  0.00  0.00    +0.000 A 
ATOM      3  C   UNL     1       1.588   9.295  19.116  0.00  0.00    +0.000 A 
ATOM      4  C   UNL     1       2.132   8.990  17.873  0.00  0.00    +0.000 A 
ATOM      5  C   UNL     1       2.660   7.724  17.642  0.00  0.00    +0.000 A 
ATOM      6  C   UNL     1       2.647   6.721  18.635  0.00  0.00    +0.000 A 
ATOM      7  C   UNL     1       2.009   7.011  19.864  0.00  0.00    +0.000 A 
ATOM      8 CL   UNL     1       1.735   5.734  21.006  0.00  0.00    +0.000 Cl
BRANCH   2  10
ATOM      9  O   UNL     1       1.644   9.262  22.311  0.00  0.00    +0.000 OA
ATOM     10  C   UNL     1       0.970   8.714  21.449  0.00  0.00    +0.000 C 
BRANCH  10  11
ATOM     11  O   UNL     1      -0.343   8.471  21.603  0.00  0.00    +0.000 OA
ATOM     12  H   UNL     1      -0.603   7.882  22.334  0.00  0.00    +0.000 HD
ENDBRANCH  10  11
ENDBRANCH   2  10
ENDBRANCH   1   6
BRANCH   1  13
ATOM     13  N   UNL     1       4.674   5.468  17.664  0.00  0.00    +0.000 NA
ATOM     14  C   UNL     1       5.689   6.154  18.460  0.00  0.00    +0.000 C 
ATOM     15  C   UNL     1       7.129   6.064  17.951  0.00  0.00    +0.000 C 
ATOM     16  C   UNL     1       7.509   4.651  17.540  0.00  0.00    +0.000 C 
ATOM     17  C   UNL     1       6.522   4.082  16.524  0.00  0.00    +0.000 C 
ATOM     18  C   UNL     1       5.055   4.230  16.977  0.00  0.00    +0.000 C 
BRANCH  17  19
ATOM     19  N   UNL     1       6.728   4.588  15.177  0.00  0.00    +0.000 N 
ATOM     20  C   UNL     1       6.228   4.107  14.001  0.00  0.00    +0.000 A 
ATOM     21  C   UNL     1       7.034   4.676  13.048  0.00  0.00    +0.000 A 
ATOM     22  N   UNL     1       7.892   5.555  13.642  0.00  0.00    +0.000 NA
ATOM     23  N   UNL     1       7.678   5.515  14.950  0.00  0.00    +0.000 NA
ENDBRANCH  17  19
ENDBRANCH   1  13
TORSDOF 5
ENDMDL
MODEL 2
REMARK VINA RESULT:      -7.6      2.903      3.678
REMARK  Name = 
REMARK  5 active torsions:
REMARK  status: ('A' for Active; 'I' for Inactive)
REMARK    1  A    between atoms: C_2  and  O_3
REMARK    2  A    between atoms: C_2  and  C_4
REMARK    3  A    between atoms: C_8  and  C_9
REMARK    4  A    between atoms: C_9  and  N_10
REMARK    5  A    between atoms: C_14  and  N_15
REMARK                            x       y       z     vdW  Elec       q    Type
REMARK                         _______ _______ _______ _____ _____    ______ ____
ROOT
ATOM      1  C   UNL     1       3.353   6.034  17.453  0.00  0.00    +0.000 C 
ENDROOT
BRANCH   1   6
ATOM      2  C   UNL     1       2.579   3.195  20.002  0.00  0.00    +0.000 A 
ATOM      3  C   UNL     1       1.416   2.671  19.416  0.00  0.00    +0.000 A 
ATOM      4  C   UNL     1       0.959   3.165  18.200  0.00  0.00    +0.000 A 
ATOM      5  C   UNL     1       1.621   4.229  17.595  0.00  0.00    +0.000 A 
ATOM      6  C   UNL     1       2.763   4.820  18.175  0.00  0.00    +0.000 A 
ATOM      7  C   UNL     1       3.274   4.251  19.366  0.00  0.00    +0.000 A 
ATOM      8 CL   UNL     1       4.816   4.770  19.967  0.00  0.00    +0.000 Cl
BRANCH   2  10
ATOM      9  O   UNL     1       2.326   2.825  22.358  0.00  0.00    +0.000 OA
ATOM     10  C   UNL     1       2.986   2.667  21.340  0.00  0.00    +0.000 C 
BRANCH  10  11
ATOM     11  O   UNL     1       4.122   1.948  21.319  0.00  0.00    +0.000 OA
ATOM     12  H   UNL     1       4.053   1.002  21.540  0.00  0.00    +0.000 HD
ENDBRANCH  10  11
ENDBRANCH   2  10
ENDBRANCH   1   6
BRANCH   1  13
ATOM     13  N   UNL     1       4.699   5.877  16.850  0.00  0.00    +0.000 NA
ATOM     14  C   UNL     1       5.786   6.521  17.582  0.00  0.00    +0.000 C 
ATOM     15  C   UNL     1       7.207   6.206  17.109  0.00  0.00    +0.000 C 
ATOM     16  C   UNL     1       7.416   4.721  16.862  0.00  0.00    +0.000 C 
ATOM     17  C   UNL     1       6.371   4.163  15.899  0.00  0.00    +0.000 C 
ATOM     18  C   UNL     1       4.932   4.534  16.309  0.00  0.00    +0.000 C 
BRANCH  17  19
ATOM     19  N   UNL     1       6.640   4.489  14.508  0.00  0.00    +0.000 N 
ATOM     20  C   UNL     1       6.216   3.839  13.385  0.00  0.00    +0.000 A 
ATOM     21  C   UNL     1       7.061   4.298  12.406  0.00  0.00    +0.000 A 
ATOM     22  N   UNL     1       7.866   5.272  12.918  0.00  0.00    +0.000 NA
ATOM     23  N   UNL     1       7.582   5.403  14.206  0.00  0.00    +0.000 NA
ENDBRANCH  17  19
ENDBRANCH   1  13
TORSDOF 5
ENDMDL
MODEL 3
REMARK VINA RESULT:      -7.5      2.819      3.410
REMARK  Name = 
REMARK  5 active torsions:
REMARK  status: ('A' for Active; 'I' for Inactive)
REMARK    1  A    between atoms: C_2  and  O_3
REMARK    2  A    between atoms: C_2  and  C_4
REMARK    3  A    between atoms: C_8  and  C_9
REMARK    4  A    between atoms: C_9  and  N_10
REMARK    5  A    between atoms: C_14  and  N_15
REMARK                            x       y       z     vdW  Elec       q    Type
REMARK                         _______ _______ _______ _____ _____    ______ ____
ROOT
ATOM      1  C   UNL     1       3.124   4.057  16.901  0.00  0.00    +0.000 C 
ENDROOT
BRANCH   1   6
ATOM      2  C   UNL     1       2.138   3.732  20.653  0.00  0.00    +0.000 A 
ATOM      3  C   UNL     1       1.938   5.089  20.956  0.00  0.00    +0.000 A 
ATOM      4  C   UNL     1       2.035   6.052  19.959  0.00  0.00    +0.000 A 
ATOM      5  C   UNL     1       2.397   5.676  18.669  0.00  0.00    +0.000 A 
ATOM      6  C   UNL     1       2.658   4.331  18.333  0.00  0.00    +0.000 A 
ATOM      7  C   UNL     1       2.467   3.347  19.332  0.00  0.00    +0.000 A 
ATOM      8 CL   UNL     1       2.516   1.668  18.898  0.00  0.00    +0.000 Cl
BRANCH   2  10
ATOM      9  O   UNL     1       1.058   2.481  22.392  0.00  0.00    +0.000 OA
ATOM     10  C   UNL     1       2.082   2.750  21.778  0.00  0.00    +0.000 C 
BRANCH  10  11
ATOM     11  O   UNL     1       3.254   2.138  22.025  0.00  0.00    +0.000 OA
ATOM     12  H   UNL     1       3.587   2.168  22.939  0.00  0.00    +0.000 HD
ENDBRANCH  10  11
ENDBRANCH   2  10
ENDBRANCH   1   6
BRANCH   1  13
ATOM     13  N   UNL     1       4.369   4.726  16.453  0.00  0.00    +0.000 NA
ATOM     14  C   UNL     1       4.750   5.908  17.222  0.00  0.00    +0.000 C 
ATOM     15  C   UNL     1       6.130   6.498  16.925  0.00  0.00    +0.000 C 
ATOM     16  C   UNL     1       7.210   5.431  16.845  0.00  0.00    +0.000 C 
ATOM     17  C   UNL     1       6.842   4.339  15.843  0.00  0.00    +0.000 C 
ATOM     18  C   UNL     1       5.423   3.781  16.071  0.00  0.00    +0.000 C 
BRANCH  17  19
ATOM     19  N   UNL     1       7.054   4.734  14.460  0.00  0.00    +0.000 N 
ATOM     20  C   UNL     1       6.531   4.180  13.327  0.00  0.00    +0.000 A 
ATOM     21  C   UNL     1       7.347   4.649  12.330  0.00  0.00    +0.000 A 
ATOM     22  N   UNL     1       8.237   5.542  12.850  0.00  0.00    +0.000 NA
ATOM     23  N   UNL     1       8.031   5.610  14.158  0.00  0.00    +0.000 NA
ENDBRANCH  17  19
ENDBRANCH   1  13
TORSDOF 5
ENDMDL
MODEL 4
REMARK VINA RESULT:      -7.2      3.507      4.601
REMARK  Name = 
REMARK  5 active torsions:
REMARK  status: ('A' for Active; 'I' for Inactive)
REMARK    1  A    between atoms: C_2  and  O_3
REMARK    2  A    between atoms: C_2  and  C_4
REMARK    3  A    between atoms: C_8  and  C_9
REMARK    4  A    between atoms: C_9  and  N_10
REMARK    5  A    between atoms: C_14  and  N_15
REMARK                            x       y       z     vdW  Elec       q    Type
REMARK                         _______ _______ _______ _____ _____    ______ ____
ROOT
ATOM      1  C   UNL     1       4.623   2.723  17.392  0.00  0.00    +0.000 C 
ENDROOT
BRANCH   1   6
ATOM      2  C   UNL     1       2.013   2.991  20.268  0.00  0.00    +0.000 A 
ATOM      3  C   UNL     1       0.906   3.442  19.533  0.00  0.00    +0.000 A 
ATOM      4  C   UNL     1       0.986   3.567  18.150  0.00  0.00    +0.000 A 
ATOM      5  C   UNL     1       2.189   3.307  17.502  0.00  0.00    +0.000 A 
ATOM      6  C   UNL     1       3.341   2.901  18.209  0.00  0.00    +0.000 A 
ATOM      7  C   UNL     1       3.225   2.689  19.604  0.00  0.00    +0.000 A 
ATOM      8 CL   UNL     1       4.531   1.939  20.464  0.00  0.00    +0.000 Cl
BRANCH   2  10
ATOM      9  O   UNL     1       1.245   2.080  22.350  0.00  0.00    +0.000 OA
ATOM     10  C   UNL     1       1.887   2.937  21.757  0.00  0.00    +0.000 C 
BRANCH  10  11
ATOM     11  O   UNL     1       2.592   3.885  22.397  0.00  0.00    +0.000 OA
ATOM     12  H   UNL     1       2.747   3.756  23.350  0.00  0.00    +0.000 HD
ENDBRANCH  10  11
ENDBRANCH   2  10
ENDBRANCH   1   6
BRANCH   1  13
ATOM     13  N   UNL     1       5.274   3.951  16.874  0.00  0.00    +0.000 NA
ATOM     14  C   UNL     1       5.325   4.059  15.418  0.00  0.00    +0.000 C 
ATOM     15  C   UNL     1       5.796   5.400  14.851  0.00  0.00    +0.000 C 
ATOM     16  C   UNL     1       5.136   6.583  15.542  0.00  0.00    +0.000 C 
ATOM     17  C   UNL     1       5.323   6.521  17.055  0.00  0.00    +0.000 C 
ATOM     18  C   UNL     1       4.930   5.151  17.644  0.00  0.00    +0.000 C 
BRANCH  17  19
ATOM     19  N   UNL     1       6.647   6.937  17.488  0.00  0.00    +0.000 N 
ATOM     20  C   UNL     1       7.469   6.344  18.402  0.00  0.00    +0.000 A 
ATOM     21  C   UNL     1       8.368   7.331  18.719  0.00  0.00    +0.000 A 
ATOM     22  N   UNL     1       8.151   8.419  17.925  0.00  0.00    +0.000 NA
ATOM     23  N   UNL     1       7.106   8.157  17.149  0.00  0.00    +0.000 NA
ENDBRANCH  17  19
ENDBRANCH   1  13
TORSDOF 5
ENDMDL
MODEL 5
REMARK VINA RESULT:      -7.2      3.097      4.173
REMARK  Name = 
REMARK  5 active torsions:
REMARK  status: ('A' for Active; 'I' for Inactive)
REMARK    1  A    between atoms: C_2  and  O_3
REMARK    2  A    between atoms: C_2  and  C_4
REMARK    3  A    between atoms: C_8  and  C_9
REMARK    4  A    between atoms: C_9  and  N_10
REMARK    5  A    between atoms: C_14  and  N_15
REMARK                            x       y       z     vdW  Elec       q    Type
REMARK                         _______ _______ _______ _____ _____    ______ ____
ROOT
ATOM      1  C   UNL     1       3.088   4.264  16.962  0.00  0.00    +0.000 C 
ENDROOT
BRANCH   1   6
ATOM      2  C   UNL     1       2.088   3.711  20.684  0.00  0.00    +0.000 A 
ATOM      3  C   UNL     1       1.823   5.041  21.050  0.00  0.00    +0.000 A 
ATOM      4  C   UNL     1       1.883   6.055  20.102  0.00  0.00    +0.000 A 
ATOM      5  C   UNL     1       2.273   5.760  18.799  0.00  0.00    +0.000 A 
ATOM      6  C   UNL     1       2.598   4.446  18.401  0.00  0.00    +0.000 A 
ATOM      7  C   UNL     1       2.446   3.406  19.349  0.00  0.00    +0.000 A 
ATOM      8 CL   UNL     1       2.575   1.755  18.834  0.00  0.00    +0.000 Cl
BRANCH   2  10
ATOM      9  O   UNL     1       3.070   2.089  22.152  0.00  0.00    +0.000 OA
ATOM     10  C   UNL     1       2.069   2.674  21.759  0.00  0.00    +0.000 C 
BRANCH  10  11
ATOM     11  O   UNL     1       0.856   2.476  22.304  0.00  0.00    +0.000 OA
ATOM     12  H   UNL     1       0.283   1.810  21.884  0.00  0.00    +0.000 HD
ENDBRANCH  10  11
ENDBRANCH   2  10
ENDBRANCH   1   6
BRANCH   1  13
ATOM     13  N   UNL     1       4.528   4.506  16.700  0.00  0.00    +0.000 NA
ATOM     14  C   UNL     1       5.183   3.506  15.861  0.00  0.00    +0.000 C 
ATOM     15  C   UNL     1       6.605   3.830  15.398  0.00  0.00    +0.000 C 
ATOM     16  C   UNL     1       6.734   5.255  14.885  0.00  0.00    +0.000 C 
ATOM     17  C   UNL     1       6.238   6.266  15.916  0.00  0.00    +0.000 C 
ATOM     18  C   UNL     1       4.837   5.919  16.459  0.00  0.00    +0.000 C 
BRANCH  17  19
ATOM     19  N   UNL     1       7.191   6.508  16.988  0.00  0.00    +0.000 N 
ATOM     20  C   UNL     1       7.508   5.700  18.042  0.00  0.00    +0.000 A 
ATOM     21  C   UNL     1       8.120   6.550  18.928  0.00  0.00    +0.000 A 
ATOM     22  N   UNL     1       8.264   7.780  18.357  0.00  0.00    +0.000 NA
ATOM     23  N   UNL     1       7.714   7.738  17.151  0.00  0.00    +0.000 NA
ENDBRANCH  17  19
ENDBRANCH   1  13
TORSDOF 5
ENDMDL
MODEL 6
REMARK VINA RESULT:      -6.9      2.958      3.745
REMARK  Name = 
REMARK  5 active torsions:
REMARK  status: ('A' for Active; 'I' for Inactive)
REMARK    1  A    between atoms: C_2  and  O_3
REMARK    2  A    between atoms: C_2  and  C_4
REMARK    3  A    between atoms: C_8  and  C_9
REMARK    4  A    between atoms: C_9  and  N_10
REMARK    5  A    between atoms: C_14  and  N_15
REMARK                            x       y       z     vdW  Elec       q    Type
REMARK                         _______ _______ _______ _____ _____    ______ ____
ROOT
ATOM      1  C   UNL     1       3.533   6.593  17.582  0.00  0.00    +0.000 C 
ENDROOT
BRANCH   1   6
ATOM      2  C   UNL     1       1.808   3.553  19.296  0.00  0.00    +0.000 A 
ATOM      3  C   UNL     1       1.872   3.976  20.633  0.00  0.00    +0.000 A 
ATOM      4  C   UNL     1       2.374   5.234  20.947  0.00  0.00    +0.000 A 
ATOM      5  C   UNL     1       2.878   6.048  19.938  0.00  0.00    +0.000 A 
ATOM      6  C   UNL     1       2.881   5.641  18.587  0.00  0.00    +0.000 A 
ATOM      7  C   UNL     1       2.284   4.398  18.266  0.00  0.00    +0.000 A 
ATOM      8 CL   UNL     1       2.027   3.979  16.602  0.00  0.00    +0.000 Cl
BRANCH   2  10
ATOM      9  O   UNL     1       0.143   1.896  18.812  0.00  0.00    +0.000 OA
ATOM     10  C   UNL     1       1.317   2.167  19.026  0.00  0.00    +0.000 C 
BRANCH  10  11
ATOM     11  O   UNL     1       2.292   1.243  18.980  0.00  0.00    +0.000 OA
ATOM     12  H   UNL     1       2.666   0.949  19.829  0.00  0.00    +0.000 HD
ENDBRANCH  10  11
ENDBRANCH   2  10
ENDBRANCH   1   6
BRANCH   1  13
ATOM     13  N   UNL     1       4.880   6.229  17.078  0.00  0.00    +0.000 NA
ATOM     14  C   UNL     1       5.990   6.594  17.954  0.00  0.00    +0.000 C 
ATOM     15  C   UNL     1       7.368   6.051  17.570  0.00  0.00    +0.000 C 
ATOM     16  C   UNL     1       7.325   4.578  17.200  0.00  0.00    +0.000 C 
ATOM     17  C   UNL     1       6.295   4.307  16.107  0.00  0.00    +0.000 C 
ATOM     18  C   UNL     1       4.914   4.913  16.432  0.00  0.00    +0.000 C 
BRANCH  17  19
ATOM     19  N   UNL     1       6.753   4.683  14.779  0.00  0.00    +0.000 N 
ATOM     20  C   UNL     1       6.436   4.118  13.578  0.00  0.00    +0.000 A 
ATOM     21  C   UNL     1       7.421   4.570  12.737  0.00  0.00    +0.000 A 
ATOM     22  N   UNL     1       8.211   5.465  13.397  0.00  0.00    +0.000 NA
ATOM     23  N   UNL     1       7.775   5.550  14.647  0.00  0.00    +0.000 NA
ENDBRANCH  17  19
ENDBRANCH   1  13
TORSDOF 5
ENDMDL
MODEL 7
REMARK VINA RESULT:      -6.9      5.003      7.741
REMARK  Name = 
REMARK  5 active torsions:
REMARK  status: ('A' for Active; 'I' for Inactive)
REMARK    1  A    between atoms: C_2  and  O_3
REMARK    2  A    between atoms: C_2  and  C_4
REMARK    3  A    between atoms: C_8  and  C_9
REMARK    4  A    between atoms: C_9  and  N_10
REMARK    5  A    between atoms: C_14  and  N_15
REMARK                            x       y       z     vdW  Elec       q    Type
REMARK                         _______ _______ _______ _____ _____    ______ ____
ROOT
ATOM      1  C   UNL     1       2.716   7.091  19.238  0.00  0.00    +0.000 C 
ENDROOT
BRANCH   1   6
ATOM      2  C   UNL     1       3.198   3.262  19.754  0.00  0.00    +0.000 A 
ATOM      3  C   UNL     1       2.002   2.969  20.429  0.00  0.00    +0.000 A 
ATOM      4  C   UNL     1       1.047   3.960  20.626  0.00  0.00    +0.000 A 
ATOM      5  C   UNL     1       1.307   5.262  20.211  0.00  0.00    +0.000 A 
ATOM      6  C   UNL     1       2.517   5.611  19.575  0.00  0.00    +0.000 A 
ATOM      7  C   UNL     1       3.445   4.578  19.297  0.00  0.00    +0.000 A 
ATOM      8 CL   UNL     1       4.816   4.911  18.288  0.00  0.00    +0.000 Cl
BRANCH   2  10
ATOM      9  O   UNL     1       5.053   1.928  20.485  0.00  0.00    +0.000 OA
ATOM     10  C   UNL     1       4.213   2.173  19.628  0.00  0.00    +0.000 C 
BRANCH  10  11
ATOM     11  O   UNL     1       4.089   1.439  18.508  0.00  0.00    +0.000 OA
ATOM     12  H   UNL     1       3.194   1.341  18.138  0.00  0.00    +0.000 HD
ENDBRANCH  10  11
ENDBRANCH   2  10
ENDBRANCH   1   6
BRANCH   1  13
ATOM     13  N   UNL     1       1.645   8.030  19.649  0.00  0.00    +0.000 NA
ATOM     14  C   UNL     1       1.433   8.139  21.090  0.00  0.00    +0.000 C 
ATOM     15  C   UNL     1       0.488   9.248  21.558  0.00  0.00    +0.000 C 
ATOM     16  C   UNL     1       0.764  10.573  20.866  0.00  0.00    +0.000 C 
ATOM     17  C   UNL     1       0.742  10.424  19.347  0.00  0.00    +0.000 C 
ATOM     18  C   UNL     1       1.626   9.262  18.853  0.00  0.00    +0.000 C 
BRANCH  17  19
ATOM     19  N   UNL     1      -0.602  10.355  18.796  0.00  0.00    +0.000 N 
ATOM     20  C   UNL     1      -1.030   9.704  17.675  0.00  0.00    +0.000 A 
ATOM     21  C   UNL     1      -2.242  10.286  17.405  0.00  0.00    +0.000 A 
ATOM     22  N   UNL     1      -2.564  11.157  18.404  0.00  0.00    +0.000 NA
ATOM     23  N   UNL     1      -1.561  11.173  19.272  0.00  0.00    +0.000 NA
ENDBRANCH  17  19
ENDBRANCH   1  13
TORSDOF 5
ENDMDL
MODEL 8
REMARK VINA RESULT:      -6.9      4.568      7.449
REMARK  Name = 
REMARK  5 active torsions:
REMARK  status: ('A' for Active; 'I' for Inactive)
REMARK    1  A    between atoms: C_2  and  O_3
REMARK    2  A    between atoms: C_2  and  C_4
REMARK    3  A    between atoms: C_8  and  C_9
REMARK    4  A    between atoms: C_9  and  N_10
REMARK    5  A    between atoms: C_14  and  N_15
REMARK                            x       y       z     vdW  Elec       q    Type
REMARK                         _______ _______ _______ _____ _____    ______ ____
ROOT
ATOM      1  C   UNL     1       2.772   7.016  18.147  0.00  0.00    +0.000 C 
ENDROOT
BRANCH   1   6
ATOM      2  C   UNL     1       3.192   3.342  19.367  0.00  0.00    +0.000 A 
ATOM      3  C   UNL     1       2.037   2.779  18.801  0.00  0.00    +0.000 A 
ATOM      4  C   UNL     1       1.211   3.544  17.986  0.00  0.00    +0.000 A 
ATOM      5  C   UNL     1       1.493   4.891  17.786  0.00  0.00    +0.000 A 
ATOM      6  C   UNL     1       2.614   5.511  18.379  0.00  0.00    +0.000 A 
ATOM      7  C   UNL     1       3.500   4.703  19.132  0.00  0.00    +0.000 A 
ATOM      8 CL   UNL     1       5.019   5.359  19.652  0.00  0.00    +0.000 Cl
BRANCH   2  10
ATOM      9  O   UNL     1       5.094   2.016  19.980  0.00  0.00    +0.000 OA
ATOM     10  C   UNL     1       4.007   2.489  20.284  0.00  0.00    +0.000 C 
BRANCH  10  11
ATOM     11  O   UNL     1       3.467   2.332  21.505  0.00  0.00    +0.000 OA
ATOM     12  H   UNL     1       3.320   3.136  22.034  0.00  0.00    +0.000 HD
ENDBRANCH  10  11
ENDBRANCH   2  10
ENDBRANCH   1   6
BRANCH   1  13
ATOM     13  N   UNL     1       1.786   7.910  18.800  0.00  0.00    +0.000 NA
ATOM     14  C   UNL     1       1.768   7.854  20.259  0.00  0.00    +0.000 C 
ATOM     15  C   UNL     1       0.917   8.909  20.971  0.00  0.00    +0.000 C 
ATOM     16  C   UNL     1       1.131  10.302  20.403  0.00  0.00    +0.000 C 
ATOM     17  C   UNL     1       0.906  10.330  18.893  0.00  0.00    +0.000 C 
ATOM     18  C   UNL     1       1.691   9.225  18.158  0.00  0.00    +0.000 C 
BRANCH  17  19
ATOM     19  N   UNL     1      -0.500  10.334  18.522  0.00  0.00    +0.000 N 
ATOM     20  C   UNL     1      -1.097   9.748  17.444  0.00  0.00    +0.000 A 
ATOM     21  C   UNL     1      -2.309  10.386  17.356  0.00  0.00    +0.000 A 
ATOM     22  N   UNL     1      -2.460  11.226  18.421  0.00  0.00    +0.000 NA
ATOM     23  N   UNL     1      -1.353  11.167  19.149  0.00  0.00    +0.000 NA
ENDBRANCH  17  19
ENDBRANCH   1  13
TORSDOF 5
ENDMDL
MODEL 9
REMARK VINA RESULT:      -6.9      1.982      2.766
REMARK  Name = 
REMARK  5 active torsions:
REMARK  status: ('A' for Active; 'I' for Inactive)
REMARK    1  A    between atoms: C_2  and  O_3
REMARK    2  A    between atoms: C_2  and  C_4
REMARK    3  A    between atoms: C_8  and  C_9
REMARK    4  A    between atoms: C_9  and  N_10
REMARK    5  A    between atoms: C_14  and  N_15
REMARK                            x       y       z     vdW  Elec       q    Type
REMARK                         _______ _______ _______ _____ _____    ______ ____
ROOT
ATOM      1  C   UNL     1       2.476   6.714  17.924  0.00  0.00    +0.000 C 
ENDROOT
BRANCH   1   6
ATOM      2  C   UNL     1       1.129   9.146  20.650  0.00  0.00    +0.000 A 
ATOM      3  C   UNL     1       1.020  10.315  19.881  0.00  0.00    +0.000 A 
ATOM      4  C   UNL     1       1.289  10.285  18.518  0.00  0.00    +0.000 A 
ATOM      5  C   UNL     1       1.733   9.107  17.927  0.00  0.00    +0.000 A 
ATOM      6  C   UNL     1       1.907   7.922  18.673  0.00  0.00    +0.000 A 
ATOM      7  C   UNL     1       1.544   7.938  20.041  0.00  0.00    +0.000 A 
ATOM      8 CL   UNL     1       1.488   6.447  20.927  0.00  0.00    +0.000 Cl
BRANCH   2  10
ATOM      9  O   UNL     1      -0.225   9.213  22.629  0.00  0.00    +0.000 OA
ATOM     10  C   UNL     1       0.889   9.253  22.122  0.00  0.00    +0.000 C 
BRANCH  10  11
ATOM     11  O   UNL     1       2.013   9.340  22.852  0.00  0.00    +0.000 OA
ATOM     12  H   UNL     1       2.345   8.519  23.258  0.00  0.00    +0.000 HD
ENDBRANCH  10  11
ENDBRANCH   2  10
ENDBRANCH   1   6
BRANCH   1  13
ATOM     13  N   UNL     1       3.886   6.347  18.201  0.00  0.00    +0.000 NA
ATOM     14  C   UNL     1       4.069   5.281  19.183  0.00  0.00    +0.000 C 
ATOM     15  C   UNL     1       5.490   4.734  19.337  0.00  0.00    +0.000 C 
ATOM     16  C   UNL     1       6.155   4.468  17.997  0.00  0.00    +0.000 C 
ATOM     17  C   UNL     1       6.128   5.706  17.105  0.00  0.00    +0.000 C 
ATOM     18  C   UNL     1       4.721   6.326  16.995  0.00  0.00    +0.000 C 
BRANCH  17  19
ATOM     19  N   UNL     1       7.130   6.697  17.467  0.00  0.00    +0.000 N 
ATOM     20  C   UNL     1       8.028   6.662  18.494  0.00  0.00    +0.000 A 
ATOM     21  C   UNL     1       8.425   7.969  18.622  0.00  0.00    +0.000 A 
ATOM     22  N   UNL     1       7.871   8.715  17.624  0.00  0.00    +0.000 NA
ATOM     23  N   UNL     1       7.096   7.918  16.900  0.00  0.00    +0.000 NA
ENDBRANCH  17  19
ENDBRANCH   1  13
TORSDOF 5
ENDMDL
