MODEL 1
REMARK VINA RESULT:      -7.3      0.000      0.000
REMARK  Name = 
REMARK  14 active torsions:
REMARK  status: ('A' for Active; 'I' for Inactive)
REMARK    1  A    between atoms: C_7  and  C_8
REMARK    2  A    between atoms: C_11  and  O_12
REMARK    3  A    between atoms: O_12  and  C_13
REMARK    4  A    between atoms: C_13  and  C_14
REMARK    5  A    between atoms: C_14  and  O_15
REMARK    6  A    between atoms: O_15  and  C_16
REMARK    7  A    between atoms: C_16  and  C_17
REMARK    8  A    between atoms: C_17  and  O_18
REMARK    9  A    between atoms: O_18  and  C_19
REMARK   10  A    between atoms: C_19  and  C_20
REMARK   11  A    between atoms: C_20  and  O_21
REMARK   12  A    between atoms: O_21  and  C_22
REMARK   13  A    between atoms: C_22  and  C_23
REMARK   14  A    between atoms: C_23  and  N_24
REMARK                            x       y       z     vdW  Elec       q    Type
REMARK                         _______ _______ _______ _____ _____    ______ ____
ROOT
ATOM      1  C   UNL     1       1.058   9.779  19.037  0.00  0.00    +0.000 A 
ATOM      2  C   UNL     1       0.990   9.112  20.269  0.00  0.00    +0.000 A 
ATOM      3  C   UNL     1       1.608   7.884  20.474  0.00  0.00    +0.000 A 
ATOM      4  C   UNL     1       2.320   7.279  19.451  0.00  0.00    +0.000 A 
ATOM      5  C   UNL     1       2.411   7.914  18.216  0.00  0.00    +0.000 A 
ATOM      6  C   UNL     1       1.805   9.162  18.023  0.00  0.00    +0.000 A 
ENDROOT
BRANCH   1  13
ATOM      7  N   UNL     1      -4.845  11.009  16.906  0.00  0.00    +0.000 NA
ATOM      8  C   UNL     1      -3.626  10.806  17.303  0.00  0.00    +0.000 C 
ATOM      9  N   UNL     1      -3.116   9.559  17.508  0.00  0.00    +0.000 N 
ATOM     10  N   UNL     1      -2.867  11.899  17.542  0.00  0.00    +0.000 N 
ATOM     11  C   UNL     1      -1.569  12.028  18.012  0.00  0.00    +0.000 A 
ATOM     12  N   UNL     1      -0.818  10.940  18.168  0.00  0.00    +0.000 NA
ATOM     13  C   UNL     1       0.390  11.071  18.769  0.00  0.00    +0.000 A 
ATOM     14  C   UNL     1       0.878  12.314  19.196  0.00  0.00    +0.000 A 
ATOM     15  C   UNL     1       2.090  12.545  19.903  0.00  0.00    +0.000 A 
ATOM     16  C   UNL     1       2.432  13.794  20.393  0.00  0.00    +0.000 A 
ATOM     17 CL   UNL     1       3.853  13.973  21.332  0.00  0.00    +0.000 Cl
ATOM     18  C   UNL     1       1.566  14.831  20.174  0.00  0.00    +0.000 A 
ATOM     19  C   UNL     1       0.396  14.642  19.425  0.00  0.00    +0.000 A 
ATOM     20  C   UNL     1       0.026  13.392  18.947  0.00  0.00    +0.000 A 
ATOM     21  N   UNL     1      -1.157  13.262  18.336  0.00  0.00    +0.000 NA
ATOM     22  H   UNL     1      -5.395  10.157  16.765  0.00  0.00    +0.000 HD
ATOM     23  H   UNL     1      -3.600   8.809  17.034  0.00  0.00    +0.000 HD
ATOM     24  H   UNL     1      -2.102   9.491  17.448  0.00  0.00    +0.000 HD
ATOM     25  H   UNL     1      -3.342  12.785  17.470  0.00  0.00    +0.000 HD
ENDBRANCH   1  13
BRANCH   4  26
ATOM     26  O   UNL     1       2.937   6.118  19.798  0.00  0.00    +0.000 OA
BRANCH  26  27
ATOM     27  C   UNL     1       2.079   5.088  20.274  0.00  0.00    +0.000 C 
BRANCH  27  28
ATOM     28  C   UNL     1       1.724   4.186  19.103  0.00  0.00    +0.000 C 
BRANCH  28  29
ATOM     29  O   UNL     1       2.889   3.471  18.702  0.00  0.00    +0.000 OA
BRANCH  29  30
ATOM     30  C   UNL     1       3.146   3.640  17.311  0.00  0.00    +0.000 C 
BRANCH  30  31
ATOM     31  C   UNL     1       4.530   4.244  17.130  0.00  0.00    +0.000 C 
BRANCH  31  32
ATOM     32  O   UNL     1       5.195   3.566  16.068  0.00  0.00    +0.000 OA
BRANCH  32  33
ATOM     33  C   UNL     1       6.364   4.274  15.654  0.00  0.00    +0.000 C 
BRANCH  33  34
ATOM     34  C   UNL     1       6.179   5.754  15.971  0.00  0.00    +0.000 C 
BRANCH  34  35
ATOM     35  O   UNL     1       7.421   6.304  16.404  0.00  0.00    +0.000 OA
BRANCH  35  36
ATOM     36  C   UNL     1       7.358   6.668  17.788  0.00  0.00    +0.000 C 
BRANCH  36  37
ATOM     37  C   UNL     1       7.826   5.492  18.649  0.00  0.00    +0.000 C 
BRANCH  37  38
ATOM     38  N   UNL     1       7.071   5.410  19.905  0.00  0.00    +0.000 NA
ATOM     39  H   UNL     1       6.587   4.508  19.923  0.00  0.00    +0.000 HD
ATOM     40  H   UNL     1       6.351   6.129  19.913  0.00  0.00    +0.000 HD
ENDBRANCH  37  38
ENDBRANCH  36  37
ENDBRANCH  35  36
ENDBRANCH  34  35
ENDBRANCH  33  34
ENDBRANCH  32  33
ENDBRANCH  31  32
ENDBRANCH  30  31
ENDBRANCH  29  30
ENDBRANCH  28  29
ENDBRANCH  27  28
ENDBRANCH  26  27
ENDBRANCH   4  26
TORSDOF 14
ENDMDL
MODEL 2
REMARK VINA RESULT:      -7.2      1.266      1.956
REMARK  Name = 
REMARK  14 active torsions:
REMARK  status: ('A' for Active; 'I' for Inactive)
REMARK    1  A    between atoms: C_7  and  C_8
REMARK    2  A    between atoms: C_11  and  O_12
REMARK    3  A    between atoms: O_12  and  C_13
REMARK    4  A    between atoms: C_13  and  C_14
REMARK    5  A    between atoms: C_14  and  O_15
REMARK    6  A    between atoms: O_15  and  C_16
REMARK    7  A    between atoms: C_16  and  C_17
REMARK    8  A    between atoms: C_17  and  O_18
REMARK    9  A    between atoms: O_18  and  C_19
REMARK   10  A    between atoms: C_19  and  C_20
REMARK   11  A    between atoms: C_20  and  O_21
REMARK   12  A    between atoms: O_21  and  C_22
REMARK   13  A    between atoms: C_22  and  C_23
REMARK   14  A    between atoms: C_23  and  N_24
REMARK                            x       y       z     vdW  Elec       q    Type
REMARK                         _______ _______ _______ _____ _____    ______ ____
ROOT
ATOM      1  C   UNL     1       0.962   9.763  19.148  0.00  0.00    +0.000 A 
ATOM      2  C   UNL     1       1.752   9.037  18.245  0.00  0.00    +0.000 A 
ATOM      3  C   UNL     1       2.354   7.835  18.598  0.00  0.00    +0.000 A 
ATOM      4  C   UNL     1       2.182   7.314  19.870  0.00  0.00    +0.000 A 
ATOM      5  C   UNL     1       1.402   8.006  20.791  0.00  0.00    +0.000 A 
ATOM      6  C   UNL     1       0.780   9.205  20.422  0.00  0.00    +0.000 A 
ENDROOT
BRANCH   1  13
ATOM      7  N   UNL     1      -4.892  11.052  16.917  0.00  0.00    +0.000 NA
ATOM      8  C   UNL     1      -3.681  10.835  17.333  0.00  0.00    +0.000 C 
ATOM      9  N   UNL     1      -3.204   9.586  17.594  0.00  0.00    +0.000 N 
ATOM     10  N   UNL     1      -2.896  11.918  17.533  0.00  0.00    +0.000 N 
ATOM     11  C   UNL     1      -1.599  12.033  18.008  0.00  0.00    +0.000 A 
ATOM     12  N   UNL     1      -0.877  10.935  18.216  0.00  0.00    +0.000 NA
ATOM     13  C   UNL     1       0.329  11.060  18.821  0.00  0.00    +0.000 A 
ATOM     14  C   UNL     1       0.846  12.307  19.201  0.00  0.00    +0.000 A 
ATOM     15  C   UNL     1       2.058  12.536  19.908  0.00  0.00    +0.000 A 
ATOM     16  C   UNL     1       2.427  13.796  20.349  0.00  0.00    +0.000 A 
ATOM     17 CL   UNL     1       3.845  13.978  21.292  0.00  0.00    +0.000 Cl
ATOM     18  C   UNL     1       1.590  14.845  20.079  0.00  0.00    +0.000 A 
ATOM     19  C   UNL     1       0.421  14.654  19.329  0.00  0.00    +0.000 A 
ATOM     20  C   UNL     1       0.023  13.394  18.900  0.00  0.00    +0.000 A 
ATOM     21  N   UNL     1      -1.158  13.269  18.284  0.00  0.00    +0.000 NA
ATOM     22  H   UNL     1      -5.462  10.209  16.807  0.00  0.00    +0.000 HD
ATOM     23  H   UNL     1      -3.703   8.829  17.147  0.00  0.00    +0.000 HD
ATOM     24  H   UNL     1      -2.192   9.489  17.545  0.00  0.00    +0.000 HD
ATOM     25  H   UNL     1      -3.348  12.811  17.420  0.00  0.00    +0.000 HD
ENDBRANCH   1  13
BRANCH   4  26
ATOM     26  O   UNL     1       2.760   6.099  20.068  0.00  0.00    +0.000 OA
BRANCH  26  27
ATOM     27  C   UNL     1       1.901   5.090  20.587  0.00  0.00    +0.000 C 
BRANCH  27  28
ATOM     28  C   UNL     1       1.282   4.344  19.415  0.00  0.00    +0.000 C 
BRANCH  28  29
ATOM     29  O   UNL     1       0.950   3.023  19.835  0.00  0.00    +0.000 OA
BRANCH  29  30
ATOM     30  C   UNL     1       1.212   2.074  18.805  0.00  0.00    +0.000 C 
BRANCH  30  31
ATOM     31  C   UNL     1       2.618   2.294  18.271  0.00  0.00    +0.000 C 
BRANCH  31  32
ATOM     32  O   UNL     1       3.551   1.677  19.155  0.00  0.00    +0.000 OA
BRANCH  32  33
ATOM     33  C   UNL     1       4.502   2.623  19.646  0.00  0.00    +0.000 C 
BRANCH  33  34
ATOM     34  C   UNL     1       4.789   3.643  18.549  0.00  0.00    +0.000 C 
BRANCH  34  35
ATOM     35  O   UNL     1       6.059   4.248  18.787  0.00  0.00    +0.000 OA
BRANCH  35  36
ATOM     36  C   UNL     1       6.652   4.680  17.558  0.00  0.00    +0.000 C 
BRANCH  36  37
ATOM     37  C   UNL     1       6.465   6.191  17.400  0.00  0.00    +0.000 C 
BRANCH  37  38
ATOM     38  N   UNL     1       7.598   6.805  16.700  0.00  0.00    +0.000 NA
ATOM     39  H   UNL     1       7.380   6.821  15.701  0.00  0.00    +0.000 HD
ATOM     40  H   UNL     1       8.421   6.218  16.811  0.00  0.00    +0.000 HD
ENDBRANCH  37  38
ENDBRANCH  36  37
ENDBRANCH  35  36
ENDBRANCH  34  35
ENDBRANCH  33  34
ENDBRANCH  32  33
ENDBRANCH  31  32
ENDBRANCH  30  31
ENDBRANCH  29  30
ENDBRANCH  28  29
ENDBRANCH  27  28
ENDBRANCH  26  27
ENDBRANCH   4  26
TORSDOF 14
ENDMDL
MODEL 3
REMARK VINA RESULT:      -7.0      1.373      1.733
REMARK  Name = 
REMARK  14 active torsions:
REMARK  status: ('A' for Active; 'I' for Inactive)
REMARK    1  A    between atoms: C_7  and  C_8
REMARK    2  A    between atoms: C_11  and  O_12
REMARK    3  A    between atoms: O_12  and  C_13
REMARK    4  A    between atoms: C_13  and  C_14
REMARK    5  A    between atoms: C_14  and  O_15
REMARK    6  A    between atoms: O_15  and  C_16
REMARK    7  A    between atoms: C_16  and  C_17
REMARK    8  A    between atoms: C_17  and  O_18
REMARK    9  A    between atoms: O_18  and  C_19
REMARK   10  A    between atoms: C_19  and  C_20
REMARK   11  A    between atoms: C_20  and  O_21
REMARK   12  A    between atoms: O_21  and  C_22
REMARK   13  A    between atoms: C_22  and  C_23
REMARK   14  A    between atoms: C_23  and  N_24
REMARK                            x       y       z     vdW  Elec       q    Type
REMARK                         _______ _______ _______ _____ _____    ______ ____
ROOT
ATOM      1  C   UNL     1       1.007   9.778  19.158  0.00  0.00    +0.000 A 
ATOM      2  C   UNL     1       0.890   9.173  20.418  0.00  0.00    +0.000 A 
ATOM      3  C   UNL     1       1.464   7.939  20.697  0.00  0.00    +0.000 A 
ATOM      4  C   UNL     1       2.182   7.265  19.721  0.00  0.00    +0.000 A 
ATOM      5  C   UNL     1       2.322   7.837  18.461  0.00  0.00    +0.000 A 
ATOM      6  C   UNL     1       1.760   9.091  18.194  0.00  0.00    +0.000 A 
ENDROOT
BRANCH   1  13
ATOM      7  N   UNL     1      -4.774  11.072  16.749  0.00  0.00    +0.000 NA
ATOM      8  C   UNL     1      -3.578  10.853  17.201  0.00  0.00    +0.000 C 
ATOM      9  N   UNL     1      -3.110   9.604  17.476  0.00  0.00    +0.000 N 
ATOM     10  N   UNL     1      -2.798  11.936  17.426  0.00  0.00    +0.000 N 
ATOM     11  C   UNL     1      -1.516  12.050  17.941  0.00  0.00    +0.000 A 
ATOM     12  N   UNL     1      -0.802  10.951  18.170  0.00  0.00    +0.000 NA
ATOM     13  C   UNL     1       0.386  11.075  18.812  0.00  0.00    +0.000 A 
ATOM     14  C   UNL     1       0.891  12.322  19.208  0.00  0.00    +0.000 A 
ATOM     15  C   UNL     1       2.081  12.549  19.952  0.00  0.00    +0.000 A 
ATOM     16  C   UNL     1       2.438  13.809  20.405  0.00  0.00    +0.000 A 
ATOM     17 CL   UNL     1       3.826  13.989  21.391  0.00  0.00    +0.000 Cl
ATOM     18  C   UNL     1       1.609  14.858  20.110  0.00  0.00    +0.000 A 
ATOM     19  C   UNL     1       0.464  14.669  19.324  0.00  0.00    +0.000 A 
ATOM     20  C   UNL     1       0.079  13.410  18.883  0.00  0.00    +0.000 A 
ATOM     21  N   UNL     1      -1.083  13.285  18.231  0.00  0.00    +0.000 NA
ATOM     22  H   UNL     1      -5.342  10.228  16.621  0.00  0.00    +0.000 HD
ATOM     23  H   UNL     1      -3.595   8.847  17.013  0.00  0.00    +0.000 HD
ATOM     24  H   UNL     1      -2.096   9.507  17.458  0.00  0.00    +0.000 HD
ATOM     25  H   UNL     1      -3.246  12.829  17.299  0.00  0.00    +0.000 HD
ENDBRANCH   1  13
BRANCH   4  26
ATOM     26  O   UNL     1       2.755   6.105  20.139  0.00  0.00    +0.000 OA
BRANCH  26  27
ATOM     27  C   UNL     1       1.849   5.098  20.575  0.00  0.00    +0.000 C 
BRANCH  27  28
ATOM     28  C   UNL     1       1.584   4.159  19.409  0.00  0.00    +0.000 C 
BRANCH  28  29
ATOM     29  O   UNL     1       2.377   2.986  19.573  0.00  0.00    +0.000 OA
BRANCH  29  30
ATOM     30  C   UNL     1       3.377   2.894  18.563  0.00  0.00    +0.000 C 
BRANCH  30  31
ATOM     31  C   UNL     1       4.698   3.399  19.123  0.00  0.00    +0.000 C 
BRANCH  31  32
ATOM     32  O   UNL     1       5.098   4.555  18.391  0.00  0.00    +0.000 OA
BRANCH  32  33
ATOM     33  C   UNL     1       6.219   5.193  19.006  0.00  0.00    +0.000 C 
BRANCH  33  34
ATOM     34  C   UNL     1       7.288   5.435  17.947  0.00  0.00    +0.000 C 
BRANCH  34  35
ATOM     35  O   UNL     1       7.150   4.468  16.907  0.00  0.00    +0.000 OA
BRANCH  35  36
ATOM     36  C   UNL     1       7.078   5.107  15.628  0.00  0.00    +0.000 C 
BRANCH  36  37
ATOM     37  C   UNL     1       5.869   4.574  14.855  0.00  0.00    +0.000 C 
BRANCH  37  38
ATOM     38  N   UNL     1       6.233   3.439  14.000  0.00  0.00    +0.000 NA
ATOM     39  H   UNL     1       6.249   2.598  14.583  0.00  0.00    +0.000 HD
ATOM     40  H   UNL     1       7.179   3.570  13.650  0.00  0.00    +0.000 HD
ENDBRANCH  37  38
ENDBRANCH  36  37
ENDBRANCH  35  36
ENDBRANCH  34  35
ENDBRANCH  33  34
ENDBRANCH  32  33
ENDBRANCH  31  32
ENDBRANCH  30  31
ENDBRANCH  29  30
ENDBRANCH  28  29
ENDBRANCH  27  28
ENDBRANCH  26  27
ENDBRANCH   4  26
TORSDOF 14
ENDMDL
MODEL 4
REMARK VINA RESULT:      -7.0      1.356      1.870
REMARK  Name = 
REMARK  14 active torsions:
REMARK  status: ('A' for Active; 'I' for Inactive)
REMARK    1  A    between atoms: C_7  and  C_8
REMARK    2  A    between atoms: C_11  and  O_12
REMARK    3  A    between atoms: O_12  and  C_13
REMARK    4  A    between atoms: C_13  and  C_14
REMARK    5  A    between atoms: C_14  and  O_15
REMARK    6  A    between atoms: O_15  and  C_16
REMARK    7  A    between atoms: C_16  and  C_17
REMARK    8  A    between atoms: C_17  and  O_18
REMARK    9  A    between atoms: O_18  and  C_19
REMARK   10  A    between atoms: C_19  and  C_20
REMARK   11  A    between atoms: C_20  and  O_21
REMARK   12  A    between atoms: O_21  and  C_22
REMARK   13  A    between atoms: C_22  and  C_23
REMARK   14  A    between atoms: C_23  and  N_24
REMARK                            x       y       z     vdW  Elec       q    Type
REMARK                         _______ _______ _______ _____ _____    ______ ____
ROOT
ATOM      1  C   UNL     1       1.004   9.748  19.135  0.00  0.00    +0.000 A 
ATOM      2  C   UNL     1       0.900   9.123  20.386  0.00  0.00    +0.000 A 
ATOM      3  C   UNL     1       1.486   7.889  20.642  0.00  0.00    +0.000 A 
ATOM      4  C   UNL     1       2.204   7.237  19.652  0.00  0.00    +0.000 A 
ATOM      5  C   UNL     1       2.331   7.830  18.400  0.00  0.00    +0.000 A 
ATOM      6  C   UNL     1       1.756   9.083  18.156  0.00  0.00    +0.000 A 
ENDROOT
BRANCH   1  13
ATOM      7  N   UNL     1      -4.826  11.032  16.842  0.00  0.00    +0.000 NA
ATOM      8  C   UNL     1      -3.620  10.817  17.270  0.00  0.00    +0.000 C 
ATOM      9  N   UNL     1      -3.141   9.567  17.525  0.00  0.00    +0.000 N 
ATOM     10  N   UNL     1      -2.843  11.901  17.493  0.00  0.00    +0.000 N 
ATOM     11  C   UNL     1      -1.552  12.018  17.986  0.00  0.00    +0.000 A 
ATOM     12  N   UNL     1      -0.828  10.920  18.191  0.00  0.00    +0.000 NA
ATOM     13  C   UNL     1       0.370  11.045  18.814  0.00  0.00    +0.000 A 
ATOM     14  C   UNL     1       0.875  12.291  19.213  0.00  0.00    +0.000 A 
ATOM     15  C   UNL     1       2.077  12.518  19.938  0.00  0.00    +0.000 A 
ATOM     16  C   UNL     1       2.434  13.775  20.397  0.00  0.00    +0.000 A 
ATOM     17 CL   UNL     1       3.839  13.953  21.360  0.00  0.00    +0.000 Cl
ATOM     18  C   UNL     1       1.595  14.822  20.128  0.00  0.00    +0.000 A 
ATOM     19  C   UNL     1       0.437  14.634  19.360  0.00  0.00    +0.000 A 
ATOM     20  C   UNL     1       0.051  13.377  18.913  0.00  0.00    +0.000 A 
ATOM     21  N   UNL     1      -1.121  13.253  18.280  0.00  0.00    +0.000 NA
ATOM     22  H   UNL     1      -5.391  10.187  16.715  0.00  0.00    +0.000 HD
ATOM     23  H   UNL     1      -3.630   8.812  17.063  0.00  0.00    +0.000 HD
ATOM     24  H   UNL     1      -2.127   9.476  17.488  0.00  0.00    +0.000 HD
ATOM     25  H   UNL     1      -3.298  12.793  17.383  0.00  0.00    +0.000 HD
ENDBRANCH   1  13
BRANCH   4  26
ATOM     26  O   UNL     1       2.789   6.075  20.048  0.00  0.00    +0.000 OA
BRANCH  26  27
ATOM     27  C   UNL     1       1.948   5.180  20.766  0.00  0.00    +0.000 C 
BRANCH  27  28
ATOM     28  C   UNL     1       1.301   4.232  19.769  0.00  0.00    +0.000 C 
BRANCH  28  29
ATOM     29  O   UNL     1       1.536   2.891  20.190  0.00  0.00    +0.000 OA
BRANCH  29  30
ATOM     30  C   UNL     1       2.759   2.784  20.912  0.00  0.00    +0.000 C 
BRANCH  30  31
ATOM     31  C   UNL     1       3.895   2.535  19.932  0.00  0.00    +0.000 C 
BRANCH  31  32
ATOM     32  O   UNL     1       3.345   2.231  18.654  0.00  0.00    +0.000 OA
BRANCH  32  33
ATOM     33  C   UNL     1       4.073   2.880  17.610  0.00  0.00    +0.000 C 
BRANCH  33  34
ATOM     34  C   UNL     1       4.935   3.978  18.223  0.00  0.00    +0.000 C 
BRANCH  34  35
ATOM     35  O   UNL     1       5.352   4.878  17.198  0.00  0.00    +0.000 OA
BRANCH  35  36
ATOM     36  C   UNL     1       5.185   4.287  15.905  0.00  0.00    +0.000 C 
BRANCH  36  37
ATOM     37  C   UNL     1       6.523   4.293  15.161  0.00  0.00    +0.000 C 
BRANCH  37  38
ATOM     38  N   UNL     1       7.328   5.469  15.507  0.00  0.00    +0.000 NA
ATOM     39  H   UNL     1       8.315   5.207  15.441  0.00  0.00    +0.000 HD
ATOM     40  H   UNL     1       7.157   5.721  16.479  0.00  0.00    +0.000 HD
ENDBRANCH  37  38
ENDBRANCH  36  37
ENDBRANCH  35  36
ENDBRANCH  34  35
ENDBRANCH  33  34
ENDBRANCH  32  33
ENDBRANCH  31  32
ENDBRANCH  30  31
ENDBRANCH  29  30
ENDBRANCH  28  29
ENDBRANCH  27  28
ENDBRANCH  26  27
ENDBRANCH   4  26
TORSDOF 14
ENDMDL
MODEL 5
REMARK VINA RESULT:      -6.9      0.839      1.262
REMARK  Name = 
REMARK  14 active torsions:
REMARK  status: ('A' for Active; 'I' for Inactive)
REMARK    1  A    between atoms: C_7  and  C_8
REMARK    2  A    between atoms: C_11  and  O_12
REMARK    3  A    between atoms: O_12  and  C_13
REMARK    4  A    between atoms: C_13  and  C_14
REMARK    5  A    between atoms: C_14  and  O_15
REMARK    6  A    between atoms: O_15  and  C_16
REMARK    7  A    between atoms: C_16  and  C_17
REMARK    8  A    between atoms: C_17  and  O_18
REMARK    9  A    between atoms: O_18  and  C_19
REMARK   10  A    between atoms: C_19  and  C_20
REMARK   11  A    between atoms: C_20  and  O_21
REMARK   12  A    between atoms: O_21  and  C_22
REMARK   13  A    between atoms: C_22  and  C_23
REMARK   14  A    between atoms: C_23  and  N_24
REMARK                            x       y       z     vdW  Elec       q    Type
REMARK                         _______ _______ _______ _____ _____    ______ ____
ROOT
ATOM      1  C   UNL     1       0.970   9.730  19.114  0.00  0.00    +0.000 A 
ATOM      2  C   UNL     1       1.704   8.971  18.191  0.00  0.00    +0.000 A 
ATOM      3  C   UNL     1       2.298   7.764  18.540  0.00  0.00    +0.000 A 
ATOM      4  C   UNL     1       2.173   7.270  19.829  0.00  0.00    +0.000 A 
ATOM      5  C   UNL     1       1.448   7.994  20.770  0.00  0.00    +0.000 A 
ATOM      6  C   UNL     1       0.834   9.199  20.405  0.00  0.00    +0.000 A 
ENDROOT
BRANCH   1  13
ATOM      7  N   UNL     1      -4.845  11.071  16.815  0.00  0.00    +0.000 NA
ATOM      8  C   UNL     1      -3.642  10.844  17.245  0.00  0.00    +0.000 C 
ATOM      9  N   UNL     1      -3.175   9.589  17.501  0.00  0.00    +0.000 N 
ATOM     10  N   UNL     1      -2.854  11.920  17.467  0.00  0.00    +0.000 N 
ATOM     11  C   UNL     1      -1.563  12.025  17.961  0.00  0.00    +0.000 A 
ATOM     12  N   UNL     1      -0.850  10.920  18.168  0.00  0.00    +0.000 NA
ATOM     13  C   UNL     1       0.349  11.033  18.791  0.00  0.00    +0.000 A 
ATOM     14  C   UNL     1       0.866  12.274  19.189  0.00  0.00    +0.000 A 
ATOM     15  C   UNL     1       2.070  12.490  19.915  0.00  0.00    +0.000 A 
ATOM     16  C   UNL     1       2.440  13.744  20.373  0.00  0.00    +0.000 A 
ATOM     17 CL   UNL     1       3.845  13.909  21.337  0.00  0.00    +0.000 Cl
ATOM     18  C   UNL     1       1.611  14.799  20.102  0.00  0.00    +0.000 A 
ATOM     19  C   UNL     1       0.452  14.622  19.334  0.00  0.00    +0.000 A 
ATOM     20  C   UNL     1       0.054  13.368  18.888  0.00  0.00    +0.000 A 
ATOM     21  N   UNL     1      -1.119  13.255  18.254  0.00  0.00    +0.000 NA
ATOM     22  H   UNL     1      -5.419  10.232  16.689  0.00  0.00    +0.000 HD
ATOM     23  H   UNL     1      -3.672   8.839  17.040  0.00  0.00    +0.000 HD
ATOM     24  H   UNL     1      -2.163   9.488  17.465  0.00  0.00    +0.000 HD
ATOM     25  H   UNL     1      -3.299  12.817  17.355  0.00  0.00    +0.000 HD
ENDBRANCH   1  13
BRANCH   4  26
ATOM     26  O   UNL     1       2.736   6.047  20.024  0.00  0.00    +0.000 OA
BRANCH  26  27
ATOM     27  C   UNL     1       1.829   5.004  20.364  0.00  0.00    +0.000 C 
BRANCH  27  28
ATOM     28  C   UNL     1       1.697   4.079  19.164  0.00  0.00    +0.000 C 
BRANCH  28  29
ATOM     29  O   UNL     1       2.365   2.854  19.452  0.00  0.00    +0.000 OA
BRANCH  29  30
ATOM     30  C   UNL     1       3.375   2.578  18.485  0.00  0.00    +0.000 C 
BRANCH  30  31
ATOM     31  C   UNL     1       3.280   3.597  17.361  0.00  0.00    +0.000 C 
BRANCH  31  32
ATOM     32  O   UNL     1       4.368   4.511  17.472  0.00  0.00    +0.000 OA
BRANCH  32  33
ATOM     33  C   UNL     1       5.054   4.652  16.227  0.00  0.00    +0.000 C 
BRANCH  33  34
ATOM     34  C   UNL     1       5.407   6.122  16.025  0.00  0.00    +0.000 C 
BRANCH  34  35
ATOM     35  O   UNL     1       6.824   6.278  16.070  0.00  0.00    +0.000 OA
BRANCH  35  36
ATOM     36  C   UNL     1       7.271   6.459  17.417  0.00  0.00    +0.000 C 
BRANCH  36  37
ATOM     37  C   UNL     1       7.696   7.915  17.626  0.00  0.00    +0.000 C 
BRANCH  37  38
ATOM     38  N   UNL     1       8.618   8.051  18.759  0.00  0.00    +0.000 NA
ATOM     39  H   UNL     1       8.607   7.171  19.281  0.00  0.00    +0.000 HD
ATOM     40  H   UNL     1       8.273   8.770  19.390  0.00  0.00    +0.000 HD
ENDBRANCH  37  38
ENDBRANCH  36  37
ENDBRANCH  35  36
ENDBRANCH  34  35
ENDBRANCH  33  34
ENDBRANCH  32  33
ENDBRANCH  31  32
ENDBRANCH  30  31
ENDBRANCH  29  30
ENDBRANCH  28  29
ENDBRANCH  27  28
ENDBRANCH  26  27
ENDBRANCH   4  26
TORSDOF 14
ENDMDL
MODEL 6
REMARK VINA RESULT:      -6.8      1.211      2.023
REMARK  Name = 
REMARK  14 active torsions:
REMARK  status: ('A' for Active; 'I' for Inactive)
REMARK    1  A    between atoms: C_7  and  C_8
REMARK    2  A    between atoms: C_11  and  O_12
REMARK    3  A    between atoms: O_12  and  C_13
REMARK    4  A    between atoms: C_13  and  C_14
REMARK    5  A    between atoms: C_14  and  O_15
REMARK    6  A    between atoms: O_15  and  C_16
REMARK    7  A    between atoms: C_16  and  C_17
REMARK    8  A    between atoms: C_17  and  O_18
REMARK    9  A    between atoms: O_18  and  C_19
REMARK   10  A    between atoms: C_19  and  C_20
REMARK   11  A    between atoms: C_20  and  O_21
REMARK   12  A    between atoms: O_21  and  C_22
REMARK   13  A    between atoms: C_22  and  C_23
REMARK   14  A    between atoms: C_23  and  N_24
REMARK                            x       y       z     vdW  Elec       q    Type
REMARK                         _______ _______ _______ _____ _____    ______ ____
ROOT
ATOM      1  C   UNL     1       1.023   9.836  19.092  0.00  0.00    +0.000 A 
ATOM      2  C   UNL     1       0.954   9.186  20.332  0.00  0.00    +0.000 A 
ATOM      3  C   UNL     1       1.560   7.954  20.551  0.00  0.00    +0.000 A 
ATOM      4  C   UNL     1       2.261   7.329  19.532  0.00  0.00    +0.000 A 
ATOM      5  C   UNL     1       2.354   7.948  18.289  0.00  0.00    +0.000 A 
ATOM      6  C   UNL     1       1.760   9.199  18.083  0.00  0.00    +0.000 A 
ENDROOT
BRANCH   1  13
ATOM      7  N   UNL     1      -4.857  11.099  16.918  0.00  0.00    +0.000 NA
ATOM      8  C   UNL     1      -3.642  10.889  17.323  0.00  0.00    +0.000 C 
ATOM      9  N   UNL     1      -3.143   9.640  17.541  0.00  0.00    +0.000 N 
ATOM     10  N   UNL     1      -2.875  11.978  17.559  0.00  0.00    +0.000 N 
ATOM     11  C   UNL     1      -1.579  12.100  18.035  0.00  0.00    +0.000 A 
ATOM     12  N   UNL     1      -0.838  11.007  18.204  0.00  0.00    +0.000 NA
ATOM     13  C   UNL     1       0.368  11.133  18.811  0.00  0.00    +0.000 A 
ATOM     14  C   UNL     1       0.864  12.375  19.231  0.00  0.00    +0.000 A 
ATOM     15  C   UNL     1       2.074  12.600  19.943  0.00  0.00    +0.000 A 
ATOM     16  C   UNL     1       2.423  13.851  20.425  0.00  0.00    +0.000 A 
ATOM     17 CL   UNL     1       3.840  14.025  21.371  0.00  0.00    +0.000 Cl
ATOM     18  C   UNL     1       1.567  14.893  20.193  0.00  0.00    +0.000 A 
ATOM     19  C   UNL     1       0.399  14.708  19.439  0.00  0.00    +0.000 A 
ATOM     20  C   UNL     1       0.022  13.457  18.969  0.00  0.00    +0.000 A 
ATOM     21  N   UNL     1      -1.158  13.333  18.352  0.00  0.00    +0.000 NA
ATOM     22  H   UNL     1      -5.414  10.250  16.781  0.00  0.00    +0.000 HD
ATOM     23  H   UNL     1      -3.631   8.890  17.070  0.00  0.00    +0.000 HD
ATOM     24  H   UNL     1      -2.129   9.563  17.487  0.00  0.00    +0.000 HD
ATOM     25  H   UNL     1      -3.343  12.867  17.477  0.00  0.00    +0.000 HD
ENDBRANCH   1  13
BRANCH   4  26
ATOM     26  O   UNL     1       2.868   6.167  19.892  0.00  0.00    +0.000 OA
BRANCH  26  27
ATOM     27  C   UNL     1       2.284   5.488  20.997  0.00  0.00    +0.000 C 
BRANCH  27  28
ATOM     28  C   UNL     1       2.702   4.028  20.935  0.00  0.00    +0.000 C 
BRANCH  28  29
ATOM     29  O   UNL     1       1.619   3.219  21.386  0.00  0.00    +0.000 OA
BRANCH  29  30
ATOM     30  C   UNL     1       1.265   2.241  20.413  0.00  0.00    +0.000 C 
BRANCH  30  31
ATOM     31  C   UNL     1       0.857   2.943  19.127  0.00  0.00    +0.000 C 
BRANCH  31  32
ATOM     32  O   UNL     1       1.302   2.168  18.016  0.00  0.00    +0.000 OA
BRANCH  32  33
ATOM     33  C   UNL     1       2.698   2.357  17.780  0.00  0.00    +0.000 C 
BRANCH  33  34
ATOM     34  C   UNL     1       2.901   3.701  17.089  0.00  0.00    +0.000 C 
BRANCH  34  35
ATOM     35  O   UNL     1       4.265   3.828  16.692  0.00  0.00    +0.000 OA
BRANCH  35  36
ATOM     36  C   UNL     1       4.876   4.953  17.331  0.00  0.00    +0.000 C 
BRANCH  36  37
ATOM     37  C   UNL     1       5.845   4.466  18.412  0.00  0.00    +0.000 C 
BRANCH  37  38
ATOM     38  N   UNL     1       5.913   5.405  19.538  0.00  0.00    +0.000 NA
ATOM     39  H   UNL     1       4.956   5.599  19.844  0.00  0.00    +0.000 HD
ATOM     40  H   UNL     1       6.303   6.288  19.217  0.00  0.00    +0.000 HD
ENDBRANCH  37  38
ENDBRANCH  36  37
ENDBRANCH  35  36
ENDBRANCH  34  35
ENDBRANCH  33  34
ENDBRANCH  32  33
ENDBRANCH  31  32
ENDBRANCH  30  31
ENDBRANCH  29  30
ENDBRANCH  28  29
ENDBRANCH  27  28
ENDBRANCH  26  27
ENDBRANCH   4  26
TORSDOF 14
ENDMDL
MODEL 7
REMARK VINA RESULT:      -6.8      4.594     10.672
REMARK  Name = 
REMARK  14 active torsions:
REMARK  status: ('A' for Active; 'I' for Inactive)
REMARK    1  A    between atoms: C_7  and  C_8
REMARK    2  A    between atoms: C_11  and  O_12
REMARK    3  A    between atoms: O_12  and  C_13
REMARK    4  A    between atoms: C_13  and  C_14
REMARK    5  A    between atoms: C_14  and  O_15
REMARK    6  A    between atoms: O_15  and  C_16
REMARK    7  A    between atoms: C_16  and  C_17
REMARK    8  A    between atoms: C_17  and  O_18
REMARK    9  A    between atoms: O_18  and  C_19
REMARK   10  A    between atoms: C_19  and  C_20
REMARK   11  A    between atoms: C_20  and  O_21
REMARK   12  A    between atoms: O_21  and  C_22
REMARK   13  A    between atoms: C_22  and  C_23
REMARK   14  A    between atoms: C_23  and  N_24
REMARK                            x       y       z     vdW  Elec       q    Type
REMARK                         _______ _______ _______ _____ _____    ______ ____
ROOT
ATOM      1  C   UNL     1       2.528   6.672  18.631  0.00  0.00    +0.000 A 
ATOM      2  C   UNL     1       2.314   7.754  17.764  0.00  0.00    +0.000 A 
ATOM      3  C   UNL     1       1.762   8.951  18.206  0.00  0.00    +0.000 A 
ATOM      4  C   UNL     1       1.408   9.109  19.536  0.00  0.00    +0.000 A 
ATOM      5  C   UNL     1       1.610   8.058  20.425  0.00  0.00    +0.000 A 
ATOM      6  C   UNL     1       2.186   6.863  19.978  0.00  0.00    +0.000 A 
ENDROOT
BRANCH   1  13
ATOM      7  N   UNL     1       7.182   5.376  14.441  0.00  0.00    +0.000 NA
ATOM      8  C   UNL     1       6.206   5.590  15.269  0.00  0.00    +0.000 C 
ATOM      9  N   UNL     1       5.772   6.841  15.590  0.00  0.00    +0.000 N 
ATOM     10  N   UNL     1       5.637   4.506  15.843  0.00  0.00    +0.000 N 
ATOM     11  C   UNL     1       4.627   4.392  16.787  0.00  0.00    +0.000 A 
ATOM     12  N   UNL     1       3.959   5.479  17.164  0.00  0.00    +0.000 NA
ATOM     13  C   UNL     1       3.084   5.373  18.194  0.00  0.00    +0.000 A 
ATOM     14  C   UNL     1       2.843   4.154  18.843  0.00  0.00    +0.000 A 
ATOM     15  C   UNL     1       2.008   3.955  19.977  0.00  0.00    +0.000 A 
ATOM     16  C   UNL     1       1.927   2.735  20.628  0.00  0.00    +0.000 A 
ATOM     17 CL   UNL     1       0.988   2.600  22.054  0.00  0.00    +0.000 Cl
ATOM     18  C   UNL     1       2.675   1.696  20.145  0.00  0.00    +0.000 A 
ATOM     19  C   UNL     1       3.456   1.850  18.991  0.00  0.00    +0.000 A 
ATOM     20  C   UNL     1       3.568   3.072  18.340  0.00  0.00    +0.000 A 
ATOM     21  N   UNL     1       4.416   3.176  17.311  0.00  0.00    +0.000 NA
ATOM     22  H   UNL     1       7.604   6.224  14.051  0.00  0.00    +0.000 HD
ATOM     23  H   UNL     1       6.008   7.565  14.925  0.00  0.00    +0.000 HD
ATOM     24  H   UNL     1       4.812   6.894  15.925  0.00  0.00    +0.000 HD
ATOM     25  H   UNL     1       6.077   3.623  15.639  0.00  0.00    +0.000 HD
ENDBRANCH   1  13
BRANCH   4  26
ATOM     26  O   UNL     1       0.948  10.348  19.857  0.00  0.00    +0.000 OA
BRANCH  26  27
ATOM     27  C   UNL     1      -0.008  10.898  18.960  0.00  0.00    +0.000 C 
BRANCH  27  28
ATOM     28  C   UNL     1      -1.210  11.360  19.769  0.00  0.00    +0.000 C 
BRANCH  28  29
ATOM     29  O   UNL     1      -0.822  11.490  21.134  0.00  0.00    +0.000 OA
BRANCH  29  30
ATOM     30  C   UNL     1      -1.483  12.589  21.755  0.00  0.00    +0.000 C 
BRANCH  30  31
ATOM     31  C   UNL     1      -2.143  12.112  23.040  0.00  0.00    +0.000 C 
BRANCH  31  32
ATOM     32  O   UNL     1      -3.556  12.093  22.854  0.00  0.00    +0.000 OA
BRANCH  32  33
ATOM     33  C   UNL     1      -3.983  13.175  22.026  0.00  0.00    +0.000 C 
BRANCH  33  34
ATOM     34  C   UNL     1      -5.182  12.719  21.202  0.00  0.00    +0.000 C 
BRANCH  34  35
ATOM     35  O   UNL     1      -6.100  12.028  22.047  0.00  0.00    +0.000 OA
BRANCH  35  36
ATOM     36  C   UNL     1      -7.391  11.948  21.434  0.00  0.00    +0.000 C 
BRANCH  36  37
ATOM     37  C   UNL     1      -7.422  10.773  20.452  0.00  0.00    +0.000 C 
BRANCH  37  38
ATOM     38  N   UNL     1      -7.552   9.490  21.149  0.00  0.00    +0.000 NA
ATOM     39  H   UNL     1      -7.070   8.779  20.593  0.00  0.00    +0.000 HD
ATOM     40  H   UNL     1      -8.533   9.222  21.182  0.00  0.00    +0.000 HD
ENDBRANCH  37  38
ENDBRANCH  36  37
ENDBRANCH  35  36
ENDBRANCH  34  35
ENDBRANCH  33  34
ENDBRANCH  32  33
ENDBRANCH  31  32
ENDBRANCH  30  31
ENDBRANCH  29  30
ENDBRANCH  28  29
ENDBRANCH  27  28
ENDBRANCH  26  27
ENDBRANCH   4  26
TORSDOF 14
ENDMDL
MODEL 8
REMARK VINA RESULT:      -6.7      2.076      2.895
REMARK  Name = 
REMARK  14 active torsions:
REMARK  status: ('A' for Active; 'I' for Inactive)
REMARK    1  A    between atoms: C_7  and  C_8
REMARK    2  A    between atoms: C_11  and  O_12
REMARK    3  A    between atoms: O_12  and  C_13
REMARK    4  A    between atoms: C_13  and  C_14
REMARK    5  A    between atoms: C_14  and  O_15
REMARK    6  A    between atoms: O_15  and  C_16
REMARK    7  A    between atoms: C_16  and  C_17
REMARK    8  A    between atoms: C_17  and  O_18
REMARK    9  A    between atoms: O_18  and  C_19
REMARK   10  A    between atoms: C_19  and  C_20
REMARK   11  A    between atoms: C_20  and  O_21
REMARK   12  A    between atoms: O_21  and  C_22
REMARK   13  A    between atoms: C_22  and  C_23
REMARK   14  A    between atoms: C_23  and  N_24
REMARK                            x       y       z     vdW  Elec       q    Type
REMARK                         _______ _______ _______ _____ _____    ______ ____
ROOT
ATOM      1  C   UNL     1       1.091   9.759  18.936  0.00  0.00    +0.000 A 
ATOM      2  C   UNL     1       1.038   9.044  20.141  0.00  0.00    +0.000 A 
ATOM      3  C   UNL     1       1.668   7.814  20.293  0.00  0.00    +0.000 A 
ATOM      4  C   UNL     1       2.378   7.257  19.241  0.00  0.00    +0.000 A 
ATOM      5  C   UNL     1       2.455   7.941  18.033  0.00  0.00    +0.000 A 
ATOM      6  C   UNL     1       1.837   9.190  17.893  0.00  0.00    +0.000 A 
ENDROOT
BRANCH   1  13
ATOM      7  N   UNL     1      -4.836  11.019  16.889  0.00  0.00    +0.000 NA
ATOM      8  C   UNL     1      -3.613  10.811  17.270  0.00  0.00    +0.000 C 
ATOM      9  N   UNL     1      -3.090   9.563  17.423  0.00  0.00    +0.000 N 
ATOM     10  N   UNL     1      -2.862  11.901  17.550  0.00  0.00    +0.000 N 
ATOM     11  C   UNL     1      -1.562  12.023  18.017  0.00  0.00    +0.000 A 
ATOM     12  N   UNL     1      -0.801  10.937  18.125  0.00  0.00    +0.000 NA
ATOM     13  C   UNL     1       0.410  11.055  18.724  0.00  0.00    +0.000 A 
ATOM     14  C   UNL     1       0.889  12.285  19.198  0.00  0.00    +0.000 A 
ATOM     15  C   UNL     1       2.103  12.497  19.907  0.00  0.00    +0.000 A 
ATOM     16  C   UNL     1       2.436  13.730  20.445  0.00  0.00    +0.000 A 
ATOM     17 CL   UNL     1       3.861  13.883  21.383  0.00  0.00    +0.000 Cl
ATOM     18  C   UNL     1       1.559  14.766  20.273  0.00  0.00    +0.000 A 
ATOM     19  C   UNL     1       0.387  14.597  19.524  0.00  0.00    +0.000 A 
ATOM     20  C   UNL     1       0.025  13.363  18.998  0.00  0.00    +0.000 A 
ATOM     21  N   UNL     1      -1.159  13.247  18.388  0.00  0.00    +0.000 NA
ATOM     22  H   UNL     1      -5.379  10.168  16.717  0.00  0.00    +0.000 HD
ATOM     23  H   UNL     1      -3.569   8.828  16.921  0.00  0.00    +0.000 HD
ATOM     24  H   UNL     1      -2.075   9.506  17.354  0.00  0.00    +0.000 HD
ATOM     25  H   UNL     1      -3.345  12.784  17.515  0.00  0.00    +0.000 HD
ENDBRANCH   1  13
BRANCH   4  26
ATOM     26  O   UNL     1       3.008   6.089  19.539  0.00  0.00    +0.000 OA
BRANCH  26  27
ATOM     27  C   UNL     1       3.900   5.604  18.542  0.00  0.00    +0.000 C 
BRANCH  27  28
ATOM     28  C   UNL     1       5.027   4.856  19.236  0.00  0.00    +0.000 C 
BRANCH  28  29
ATOM     29  O   UNL     1       6.027   5.792  19.629  0.00  0.00    +0.000 OA
BRANCH  29  30
ATOM     30  C   UNL     1       7.294   5.462  19.065  0.00  0.00    +0.000 C 
BRANCH  30  31
ATOM     31  C   UNL     1       7.454   6.190  17.740  0.00  0.00    +0.000 C 
BRANCH  31  32
ATOM     32  O   UNL     1       7.613   5.229  16.700  0.00  0.00    +0.000 OA
BRANCH  32  33
ATOM     33  C   UNL     1       6.501   5.247  15.804  0.00  0.00    +0.000 C 
BRANCH  33  34
ATOM     34  C   UNL     1       6.307   3.845  15.235  0.00  0.00    +0.000 C 
BRANCH  34  35
ATOM     35  O   UNL     1       6.387   3.898  13.812  0.00  0.00    +0.000 OA
BRANCH  35  36
ATOM     36  C   UNL     1       5.100   3.678  13.224  0.00  0.00    +0.000 C 
BRANCH  36  37
ATOM     37  C   UNL     1       5.270   3.090  11.821  0.00  0.00    +0.000 C 
BRANCH  37  38
ATOM     38  N   UNL     1       4.004   3.086  11.081  0.00  0.00    +0.000 NA
ATOM     39  H   UNL     1       3.934   2.197  10.580  0.00  0.00    +0.000 HD
ATOM     40  H   UNL     1       4.024   3.819  10.375  0.00  0.00    +0.000 HD
ENDBRANCH  37  38
ENDBRANCH  36  37
ENDBRANCH  35  36
ENDBRANCH  34  35
ENDBRANCH  33  34
ENDBRANCH  32  33
ENDBRANCH  31  32
ENDBRANCH  30  31
ENDBRANCH  29  30
ENDBRANCH  28  29
ENDBRANCH  27  28
ENDBRANCH  26  27
ENDBRANCH   4  26
TORSDOF 14
ENDMDL
MODEL 9
REMARK VINA RESULT:      -6.7      4.532     10.630
REMARK  Name = 
REMARK  14 active torsions:
REMARK  status: ('A' for Active; 'I' for Inactive)
REMARK    1  A    between atoms: C_7  and  C_8
REMARK    2  A    between atoms: C_11  and  O_12
REMARK    3  A    between atoms: O_12  and  C_13
REMARK    4  A    between atoms: C_13  and  C_14
REMARK    5  A    between atoms: C_14  and  O_15
REMARK    6  A    between atoms: O_15  and  C_16
REMARK    7  A    between atoms: C_16  and  C_17
REMARK    8  A    between atoms: C_17  and  O_18
REMARK    9  A    between atoms: O_18  and  C_19
REMARK   10  A    between atoms: C_19  and  C_20
REMARK   11  A    between atoms: C_20  and  O_21
REMARK   12  A    between atoms: O_21  and  C_22
REMARK   13  A    between atoms: C_22  and  C_23
REMARK   14  A    between atoms: C_23  and  N_24
REMARK                            x       y       z     vdW  Elec       q    Type
REMARK                         _______ _______ _______ _____ _____    ______ ____
ROOT
ATOM      1  C   UNL     1       2.490   6.650  18.543  0.00  0.00    +0.000 A 
ATOM      2  C   UNL     1       2.151   6.950  19.871  0.00  0.00    +0.000 A 
ATOM      3  C   UNL     1       1.668   8.199  20.241  0.00  0.00    +0.000 A 
ATOM      4  C   UNL     1       1.503   9.195  19.291  0.00  0.00    +0.000 A 
ATOM      5  C   UNL     1       1.825   8.931  17.964  0.00  0.00    +0.000 A 
ATOM      6  C   UNL     1       2.290   7.663  17.594  0.00  0.00    +0.000 A 
ENDROOT
BRANCH   1  13
ATOM      7  N   UNL     1       7.036   5.283  14.257  0.00  0.00    +0.000 NA
ATOM      8  C   UNL     1       6.081   5.511  15.106  0.00  0.00    +0.000 C 
ATOM      9  N   UNL     1       5.655   6.768  15.417  0.00  0.00    +0.000 N 
ATOM     10  N   UNL     1       5.527   4.437  15.713  0.00  0.00    +0.000 N 
ATOM     11  C   UNL     1       4.542   4.339  16.684  0.00  0.00    +0.000 A 
ATOM     12  N   UNL     1       3.883   5.432  17.061  0.00  0.00    +0.000 NA
ATOM     13  C   UNL     1       3.035   5.343  18.114  0.00  0.00    +0.000 A 
ATOM     14  C   UNL     1       2.811   4.135  18.789  0.00  0.00    +0.000 A 
ATOM     15  C   UNL     1       2.005   3.955  19.947  0.00  0.00    +0.000 A 
ATOM     16  C   UNL     1       1.941   2.746  20.620  0.00  0.00    +0.000 A 
ATOM     17 CL   UNL     1       1.040   2.635  22.071  0.00  0.00    +0.000 Cl
ATOM     18  C   UNL     1       2.678   1.699  20.135  0.00  0.00    +0.000 A 
ATOM     19  C   UNL     1       3.429   1.834  18.959  0.00  0.00    +0.000 A 
ATOM     20  C   UNL     1       3.524   3.045  18.286  0.00  0.00    +0.000 A 
ATOM     21  N   UNL     1       4.345   3.132  17.234  0.00  0.00    +0.000 NA
ATOM     22  H   UNL     1       7.447   6.125  13.843  0.00  0.00    +0.000 HD
ATOM     23  H   UNL     1       5.873   7.481  14.735  0.00  0.00    +0.000 HD
ATOM     24  H   UNL     1       4.704   6.827  15.776  0.00  0.00    +0.000 HD
ATOM     25  H   UNL     1       5.962   3.550  15.512  0.00  0.00    +0.000 HD
ENDBRANCH   1  13
BRANCH   4  26
ATOM     26  O   UNL     1       0.955  10.345  19.766  0.00  0.00    +0.000 OA
BRANCH  26  27
ATOM     27  C   UNL     1       0.168  11.077  18.834  0.00  0.00    +0.000 C 
BRANCH  27  28
ATOM     28  C   UNL     1      -0.307  12.354  19.511  0.00  0.00    +0.000 C 
BRANCH  28  29
ATOM     29  O   UNL     1      -1.515  12.782  18.890  0.00  0.00    +0.000 OA
BRANCH  29  30
ATOM     30  C   UNL     1      -2.572  11.856  19.123  0.00  0.00    +0.000 C 
BRANCH  30  31
ATOM     31  C   UNL     1      -3.721  12.574  19.813  0.00  0.00    +0.000 C 
BRANCH  31  32
ATOM     32  O   UNL     1      -3.409  12.722  21.196  0.00  0.00    +0.000 OA
BRANCH  32  33
ATOM     33  C   UNL     1      -4.593  12.716  21.996  0.00  0.00    +0.000 C 
BRANCH  33  34
ATOM     34  C   UNL     1      -5.801  12.538  21.083  0.00  0.00    +0.000 C 
BRANCH  34  35
ATOM     35  O   UNL     1      -6.658  11.534  21.624  0.00  0.00    +0.000 OA
BRANCH  35  36
ATOM     36  C   UNL     1      -7.596  11.085  20.640  0.00  0.00    +0.000 C 
BRANCH  36  37
ATOM     37  C   UNL     1      -6.867  10.267  19.571  0.00  0.00    +0.000 C 
BRANCH  37  38
ATOM     38  N   UNL     1      -7.565   9.009  19.286  0.00  0.00    +0.000 NA
ATOM     39  H   UNL     1      -8.289   9.201  18.588  0.00  0.00    +0.000 HD
ATOM     40  H   UNL     1      -8.045   8.691  20.126  0.00  0.00    +0.000 HD
ENDBRANCH  37  38
ENDBRANCH  36  37
ENDBRANCH  35  36
ENDBRANCH  34  35
ENDBRANCH  33  34
ENDBRANCH  32  33
ENDBRANCH  31  32
ENDBRANCH  30  31
ENDBRANCH  29  30
ENDBRANCH  28  29
ENDBRANCH  27  28
ENDBRANCH  26  27
ENDBRANCH   4  26
TORSDOF 14
ENDMDL
