MODEL 1
REMARK VINA RESULT:      -4.9      0.000      0.000
REMARK  Name = 
REMARK  5 active torsions:
REMARK  status: ('A' for Active; 'I' for Inactive)
REMARK    1  A    between atoms: C_1  and  C_2
REMARK    2  A    between atoms: C_4  and  C_5
REMARK    3  A    between atoms: C_6  and  C_7
REMARK    4  A    between atoms: C_7  and  C_8
REMARK    5  A    between atoms: C_8  and  N_9
REMARK                            x       y       z     vdW  Elec       q    Type
REMARK                         _______ _______ _______ _____ _____    ______ ____
ROOT
ATOM      1  C   UNL     1       6.776   4.647  13.939  0.00  0.00    +0.000 C 
ATOM      2  C   UNL     1       6.660   4.937  15.393  0.00  0.00    +0.000 A 
ATOM      3  N   UNL     1       7.424   5.783  16.045  0.00  0.00    +0.000 NA
ATOM      4  C   UNL     1       7.054   5.840  17.380  0.00  0.00    +0.000 A 
ATOM      5  C   UNL     1       7.782   6.781  18.268  0.00  0.00    +0.000 C 
ATOM      6  C   UNL     1       6.009   4.997  17.731  0.00  0.00    +0.000 A 
ATOM      7  S   UNL     1       5.462   4.152  16.339  0.00  0.00    +0.000 S 
ENDROOT
BRANCH   6   8
ATOM      8  C   UNL     1       5.340   4.821  19.062  0.00  0.00    +0.000 C 
BRANCH   8   9
ATOM      9  C   UNL     1       4.424   3.592  19.124  0.00  0.00    +0.000 C 
BRANCH   9  10
ATOM     10  N   UNL     1       5.095   2.472  19.788  0.00  0.00    +0.000 NA
ATOM     11  H   UNL     1       4.621   1.599  19.558  0.00  0.00    +0.000 HD
ATOM     12  H   UNL     1       5.010   2.581  20.799  0.00  0.00    +0.000 HD
ENDBRANCH   9  10
ENDBRANCH   8   9
ENDBRANCH   6   8
TORSDOF 3
ENDMDL
MODEL 2
REMARK VINA RESULT:      -4.8      1.219      2.640
REMARK  Name = 
REMARK  5 active torsions:
REMARK  status: ('A' for Active; 'I' for Inactive)
REMARK    1  A    between atoms: C_1  and  C_2
REMARK    2  A    between atoms: C_4  and  C_5
REMARK    3  A    between atoms: C_6  and  C_7
REMARK    4  A    between atoms: C_7  and  C_8
REMARK    5  A    between atoms: C_8  and  N_9
REMARK                            x       y       z     vdW  Elec       q    Type
REMARK                         _______ _______ _______ _____ _____    ______ ____
ROOT
ATOM      1  C   UNL     1       7.780   7.736  17.631  0.00  0.00    +0.000 C 
ATOM      2  C   UNL     1       7.018   6.542  17.179  0.00  0.00    +0.000 A 
ATOM      3  N   UNL     1       7.176   5.956  16.014  0.00  0.00    +0.000 NA
ATOM      4  C   UNL     1       6.330   4.864  15.903  0.00  0.00    +0.000 A 
ATOM      5  C   UNL     1       6.401   4.048  14.664  0.00  0.00    +0.000 C 
ATOM      6  C   UNL     1       5.506   4.651  16.999  0.00  0.00    +0.000 A 
ATOM      7  S   UNL     1       5.840   5.829  18.204  0.00  0.00    +0.000 S 
ENDROOT
BRANCH   6   8
ATOM      8  C   UNL     1       4.501   3.562  17.231  0.00  0.00    +0.000 C 
BRANCH   8   9
ATOM      9  C   UNL     1       4.082   3.427  18.701  0.00  0.00    +0.000 C 
BRANCH   9  10
ATOM     10  N   UNL     1       4.932   2.460  19.401  0.00  0.00    +0.000 NA
ATOM     11  H   UNL     1       4.753   2.506  20.404  0.00  0.00    +0.000 HD
ATOM     12  H   UNL     1       5.910   2.721  19.277  0.00  0.00    +0.000 HD
ENDBRANCH   9  10
ENDBRANCH   8   9
ENDBRANCH   6   8
TORSDOF 3
ENDMDL
MODEL 3
REMARK VINA RESULT:      -4.7      1.247      4.154
REMARK  Name = 
REMARK  5 active torsions:
REMARK  status: ('A' for Active; 'I' for Inactive)
REMARK    1  A    between atoms: C_1  and  C_2
REMARK    2  A    between atoms: C_4  and  C_5
REMARK    3  A    between atoms: C_6  and  C_7
REMARK    4  A    between atoms: C_7  and  C_8
REMARK    5  A    between atoms: C_8  and  N_9
REMARK                            x       y       z     vdW  Elec       q    Type
REMARK                         _______ _______ _______ _____ _____    ______ ____
ROOT
ATOM      1  C   UNL     1       3.802   2.679  19.880  0.00  0.00    +0.000 C 
ATOM      2  C   UNL     1       4.588   3.518  18.936  0.00  0.00    +0.000 A 
ATOM      3  N   UNL     1       5.727   4.101  19.231  0.00  0.00    +0.000 NA
ATOM      4  C   UNL     1       6.213   4.796  18.135  0.00  0.00    +0.000 A 
ATOM      5  C   UNL     1       7.520   5.488  18.269  0.00  0.00    +0.000 C 
ATOM      6  C   UNL     1       5.403   4.750  17.010  0.00  0.00    +0.000 A 
ATOM      7  S   UNL     1       4.026   3.775  17.335  0.00  0.00    +0.000 S 
ENDROOT
BRANCH   6   8
ATOM      8  C   UNL     1       5.628   5.354  15.655  0.00  0.00    +0.000 C 
BRANCH   8   9
ATOM      9  C   UNL     1       6.649   4.584  14.808  0.00  0.00    +0.000 C 
BRANCH   9  10
ATOM     10  N   UNL     1       7.753   5.456  14.398  0.00  0.00    +0.000 NA
ATOM     11  H   UNL     1       8.584   4.895  14.210  0.00  0.00    +0.000 HD
ATOM     12  H   UNL     1       7.998   6.074  15.171  0.00  0.00    +0.000 HD
ENDBRANCH   9  10
ENDBRANCH   8   9
ENDBRANCH   6   8
TORSDOF 3
ENDMDL
MODEL 4
REMARK VINA RESULT:      -4.6      2.028      2.873
REMARK  Name = 
REMARK  5 active torsions:
REMARK  status: ('A' for Active; 'I' for Inactive)
REMARK    1  A    between atoms: C_1  and  C_2
REMARK    2  A    between atoms: C_4  and  C_5
REMARK    3  A    between atoms: C_6  and  C_7
REMARK    4  A    between atoms: C_7  and  C_8
REMARK    5  A    between atoms: C_8  and  N_9
REMARK                            x       y       z     vdW  Elec       q    Type
REMARK                         _______ _______ _______ _____ _____    ______ ____
ROOT
ATOM      1  C   UNL     1       6.385   4.208  14.011  0.00  0.00    +0.000 C 
ATOM      2  C   UNL     1       6.003   4.386  15.437  0.00  0.00    +0.000 A 
ATOM      3  N   UNL     1       4.821   4.098  15.931  0.00  0.00    +0.000 NA
ATOM      4  C   UNL     1       4.788   4.362  17.292  0.00  0.00    +0.000 A 
ATOM      5  C   UNL     1       3.538   4.054  18.033  0.00  0.00    +0.000 C 
ATOM      6  C   UNL     1       5.963   4.883  17.813  0.00  0.00    +0.000 A 
ATOM      7  S   UNL     1       7.139   5.001  16.567  0.00  0.00    +0.000 S 
ENDROOT
BRANCH   6   8
ATOM      8  C   UNL     1       6.288   5.254  19.230  0.00  0.00    +0.000 C 
BRANCH   8   9
ATOM      9  C   UNL     1       7.755   5.658  19.430  0.00  0.00    +0.000 C 
BRANCH   9  10
ATOM     10  N   UNL     1       8.211   5.321  20.780  0.00  0.00    +0.000 NA
ATOM     11  H   UNL     1       7.422   4.999  21.341  0.00  0.00    +0.000 HD
ATOM     12  H   UNL     1       8.557   6.164  21.239  0.00  0.00    +0.000 HD
ENDBRANCH   9  10
ENDBRANCH   8   9
ENDBRANCH   6   8
TORSDOF 3
ENDMDL
MODEL 5
REMARK VINA RESULT:      -4.6      1.733      3.020
REMARK  Name = 
REMARK  5 active torsions:
REMARK  status: ('A' for Active; 'I' for Inactive)
REMARK    1  A    between atoms: C_1  and  C_2
REMARK    2  A    between atoms: C_4  and  C_5
REMARK    3  A    between atoms: C_6  and  C_7
REMARK    4  A    between atoms: C_7  and  C_8
REMARK    5  A    between atoms: C_8  and  N_9
REMARK                            x       y       z     vdW  Elec       q    Type
REMARK                         _______ _______ _______ _____ _____    ______ ____
ROOT
ATOM      1  C   UNL     1       8.074   5.785  19.166  0.00  0.00    +0.000 C 
ATOM      2  C   UNL     1       7.054   5.188  18.263  0.00  0.00    +0.000 A 
ATOM      3  N   UNL     1       7.265   4.883  17.003  0.00  0.00    +0.000 NA
ATOM      4  C   UNL     1       6.124   4.331  16.442  0.00  0.00    +0.000 A 
ATOM      5  C   UNL     1       6.188   3.883  15.027  0.00  0.00    +0.000 C 
ATOM      6  C   UNL     1       5.035   4.249  17.297  0.00  0.00    +0.000 A 
ATOM      7  S   UNL     1       5.478   4.842  18.847  0.00  0.00    +0.000 S 
ENDROOT
BRANCH   6   8
ATOM      8  C   UNL     1       3.668   3.687  17.039  0.00  0.00    +0.000 C 
BRANCH   8   9
ATOM      9  C   UNL     1       3.218   2.674  18.100  0.00  0.00    +0.000 C 
BRANCH   9  10
ATOM     10  N   UNL     1       4.029   1.456  18.038  0.00  0.00    +0.000 NA
ATOM     11  H   UNL     1       4.340   1.296  17.080  0.00  0.00    +0.000 HD
ATOM     12  H   UNL     1       3.450   0.653  18.284  0.00  0.00    +0.000 HD
ENDBRANCH   9  10
ENDBRANCH   8   9
ENDBRANCH   6   8
TORSDOF 3
ENDMDL
MODEL 6
REMARK VINA RESULT:      -4.6      1.806      3.011
REMARK  Name = 
REMARK  5 active torsions:
REMARK  status: ('A' for Active; 'I' for Inactive)
REMARK    1  A    between atoms: C_1  and  C_2
REMARK    2  A    between atoms: C_4  and  C_5
REMARK    3  A    between atoms: C_6  and  C_7
REMARK    4  A    between atoms: C_7  and  C_8
REMARK    5  A    between atoms: C_8  and  N_9
REMARK                            x       y       z     vdW  Elec       q    Type
REMARK                         _______ _______ _______ _____ _____    ______ ____
ROOT
ATOM      1  C   UNL     1       7.994   7.530  18.061  0.00  0.00    +0.000 C 
ATOM      2  C   UNL     1       7.210   6.459  17.389  0.00  0.00    +0.000 A 
ATOM      3  N   UNL     1       7.420   6.043  16.161  0.00  0.00    +0.000 NA
ATOM      4  C   UNL     1       6.534   5.028  15.836  0.00  0.00    +0.000 A 
ATOM      5  C   UNL     1       6.651   4.401  14.495  0.00  0.00    +0.000 C 
ATOM      6  C   UNL     1       5.628   4.704  16.836  0.00  0.00    +0.000 A 
ATOM      7  S   UNL     1       5.933   5.671  18.222  0.00  0.00    +0.000 S 
ENDROOT
BRANCH   6   8
ATOM      8  C   UNL     1       4.560   3.650  16.841  0.00  0.00    +0.000 C 
BRANCH   8   9
ATOM      9  C   UNL     1       3.421   3.945  17.825  0.00  0.00    +0.000 C 
BRANCH   9  10
ATOM     10  N   UNL     1       2.140   3.463  17.303  0.00  0.00    +0.000 NA
ATOM     11  H   UNL     1       1.383   3.756  17.921  0.00  0.00    +0.000 HD
ATOM     12  H   UNL     1       2.134   2.443  17.313  0.00  0.00    +0.000 HD
ENDBRANCH   9  10
ENDBRANCH   8   9
ENDBRANCH   6   8
TORSDOF 3
ENDMDL
MODEL 7
REMARK VINA RESULT:      -4.5      1.515      1.515
REMARK  Name = 
REMARK  5 active torsions:
REMARK  status: ('A' for Active; 'I' for Inactive)
REMARK    1  A    between atoms: C_1  and  C_2
REMARK    2  A    between atoms: C_4  and  C_5
REMARK    3  A    between atoms: C_6  and  C_7
REMARK    4  A    between atoms: C_7  and  C_8
REMARK    5  A    between atoms: C_8  and  N_9
REMARK                            x       y       z     vdW  Elec       q    Type
REMARK                         _______ _______ _______ _____ _____    ______ ____
ROOT
ATOM      1  C   UNL     1       6.376   4.150  14.024  0.00  0.00    +0.000 C 
ATOM      2  C   UNL     1       6.418   4.743  15.388  0.00  0.00    +0.000 A 
ATOM      3  N   UNL     1       7.131   5.794  15.720  0.00  0.00    +0.000 NA
ATOM      4  C   UNL     1       6.942   6.104  17.057  0.00  0.00    +0.000 A 
ATOM      5  C   UNL     1       7.639   7.297  17.604  0.00  0.00    +0.000 C 
ATOM      6  C   UNL     1       6.091   5.247  17.740  0.00  0.00    +0.000 A 
ATOM      7  S   UNL     1       5.490   4.056  16.658  0.00  0.00    +0.000 S 
ENDROOT
BRANCH   6   8
ATOM      8  C   UNL     1       5.643   5.297  19.171  0.00  0.00    +0.000 C 
BRANCH   8   9
ATOM      9  C   UNL     1       4.128   5.122  19.339  0.00  0.00    +0.000 C 
BRANCH   9  10
ATOM     10  N   UNL     1       3.406   6.289  18.826  0.00  0.00    +0.000 NA
ATOM     11  H   UNL     1       4.041   7.085  18.758  0.00  0.00    +0.000 HD
ATOM     12  H   UNL     1       2.685   6.560  19.495  0.00  0.00    +0.000 HD
ENDBRANCH   9  10
ENDBRANCH   8   9
ENDBRANCH   6   8
TORSDOF 3
ENDMDL
MODEL 8
REMARK VINA RESULT:      -4.5      2.958      4.220
REMARK  Name = 
REMARK  5 active torsions:
REMARK  status: ('A' for Active; 'I' for Inactive)
REMARK    1  A    between atoms: C_1  and  C_2
REMARK    2  A    between atoms: C_4  and  C_5
REMARK    3  A    between atoms: C_6  and  C_7
REMARK    4  A    between atoms: C_7  and  C_8
REMARK    5  A    between atoms: C_8  and  N_9
REMARK                            x       y       z     vdW  Elec       q    Type
REMARK                         _______ _______ _______ _____ _____    ______ ____
ROOT
ATOM      1  C   UNL     1       4.849   6.241  16.613  0.00  0.00    +0.000 C 
ATOM      2  C   UNL     1       4.041   5.270  17.398  0.00  0.00    +0.000 A 
ATOM      3  N   UNL     1       4.138   3.964  17.290  0.00  0.00    +0.000 NA
ATOM      4  C   UNL     1       3.262   3.341  18.165  0.00  0.00    +0.000 A 
ATOM      5  C   UNL     1       3.264   1.856  18.215  0.00  0.00    +0.000 C 
ATOM      6  C   UNL     1       2.479   4.202  18.919  0.00  0.00    +0.000 A 
ATOM      7  S   UNL     1       2.889   5.828  18.541  0.00  0.00    +0.000 S 
ENDROOT
BRANCH   6   8
ATOM      8  C   UNL     1       1.459   3.880  19.971  0.00  0.00    +0.000 C 
BRANCH   8   9
ATOM      9  C   UNL     1       2.038   3.859  21.391  0.00  0.00    +0.000 C 
BRANCH   9  10
ATOM     10  N   UNL     1       1.824   2.555  22.023  0.00  0.00    +0.000 NA
ATOM     11  H   UNL     1       1.551   2.684  22.998  0.00  0.00    +0.000 HD
ATOM     12  H   UNL     1       2.706   2.042  22.043  0.00  0.00    +0.000 HD
ENDBRANCH   9  10
ENDBRANCH   8   9
ENDBRANCH   6   8
TORSDOF 3
ENDMDL
MODEL 9
REMARK VINA RESULT:      -4.5      1.852      3.853
REMARK  Name = 
REMARK  5 active torsions:
REMARK  status: ('A' for Active; 'I' for Inactive)
REMARK    1  A    between atoms: C_1  and  C_2
REMARK    2  A    between atoms: C_4  and  C_5
REMARK    3  A    between atoms: C_6  and  C_7
REMARK    4  A    between atoms: C_7  and  C_8
REMARK    5  A    between atoms: C_8  and  N_9
REMARK                            x       y       z     vdW  Elec       q    Type
REMARK                         _______ _______ _______ _____ _____    ______ ____
ROOT
ATOM      1  C   UNL     1       2.597   3.528  17.680  0.00  0.00    +0.000 C 
ATOM      2  C   UNL     1       4.011   3.909  17.418  0.00  0.00    +0.000 A 
ATOM      3  N   UNL     1       4.570   3.917  16.230  0.00  0.00    +0.000 NA
ATOM      4  C   UNL     1       5.890   4.332  16.320  0.00  0.00    +0.000 A 
ATOM      5  C   UNL     1       6.674   4.446  15.064  0.00  0.00    +0.000 C 
ATOM      6  C   UNL     1       6.326   4.611  17.607  0.00  0.00    +0.000 A 
ATOM      7  S   UNL     1       5.031   4.384  18.713  0.00  0.00    +0.000 S 
ENDROOT
BRANCH   6   8
ATOM      8  C   UNL     1       7.667   5.105  18.067  0.00  0.00    +0.000 C 
BRANCH   8   9
ATOM      9  C   UNL     1       7.693   6.612  18.353  0.00  0.00    +0.000 C 
BRANCH   9  10
ATOM     10  N   UNL     1       7.536   7.382  17.117  0.00  0.00    +0.000 NA
ATOM     11  H   UNL     1       6.699   7.962  17.175  0.00  0.00    +0.000 HD
ATOM     12  H   UNL     1       7.381   6.741  16.338  0.00  0.00    +0.000 HD
ENDBRANCH   9  10
ENDBRANCH   8   9
ENDBRANCH   6   8
TORSDOF 3
ENDMDL
