MODEL 1
REMARK VINA RESULT:      -6.5      0.000      0.000
REMARK  Name = 
REMARK  4 active torsions:
REMARK  status: ('A' for Active; 'I' for Inactive)
REMARK    1  A    between atoms: C_2  and  O_3
REMARK    2  A    between atoms: C_2  and  C_4
REMARK    3  A    between atoms: C_12  and  C_13
REMARK    4  A    between atoms: C_13  and  S_14
REMARK                            x       y       z     vdW  Elec       q    Type
REMARK                         _______ _______ _______ _____ _____    ______ ____
ROOT
ATOM      1  C   UNL     1       3.878   3.591  19.794  0.00  0.00    +0.000 C 
ATOM      2  C   UNL     1       2.481   3.581  20.438  0.00  0.00    +0.000 C 
ATOM      3  C   UNL     1       2.043   4.977  20.793  0.00  0.00    +0.000 C 
ATOM      4  C   UNL     1       1.995   5.782  19.517  0.00  0.00    +0.000 C 
ATOM      5  N   UNL     1       3.272   5.818  18.821  0.00  0.00    +0.000 N 
ATOM      6  C   UNL     1       3.482   6.889  17.949  0.00  0.00    +0.000 C 
ATOM      7  O   UNL     1       2.683   7.813  17.809  0.00  0.00    +0.000 OA
ATOM      8  C   UNL     1       4.818   6.929  17.261  0.00  0.00    +0.000 C 
ATOM      9  C   UNL     1       5.224   5.550  16.792  0.00  0.00    +0.000 C 
ATOM     10  C   UNL     1       5.224   4.654  18.009  0.00  0.00    +0.000 C 
ATOM     11  O   UNL     1       6.218   4.023  18.372  0.00  0.00    +0.000 OA
ATOM     12  N   UNL     1       3.984   4.541  18.647  0.00  0.00    +0.000 N 
ENDROOT
BRANCH   1  14
ATOM     13  O   UNL     1       3.437   1.412  18.728  0.00  0.00    +0.000 OA
ATOM     14  C   UNL     1       4.169   2.100  19.433  0.00  0.00    +0.000 C 
BRANCH  14  15
ATOM     15  O   UNL     1       5.239   1.533  20.028  0.00  0.00    +0.000 OA
ATOM     16  H   UNL     1       6.106   1.944  19.797  0.00  0.00    +0.000 HD
ENDBRANCH  14  15
ENDBRANCH   1  14
BRANCH   9  17
ATOM     17  C   UNL     1       6.607   5.513  16.127  0.00  0.00    +0.000 C 
BRANCH  17  18
ATOM     18  S   UNL     1       6.660   4.515  14.607  0.00  0.00    +0.000 S 
ATOM     19  H   UNL     1       5.633   3.706  14.902  0.00  0.00    +0.000 HD
ENDBRANCH  17  18
ENDBRANCH   9  17
TORSDOF 4
ENDMDL
MODEL 2
REMARK VINA RESULT:      -6.4      1.078      1.078
REMARK  Name = 
REMARK  4 active torsions:
REMARK  status: ('A' for Active; 'I' for Inactive)
REMARK    1  A    between atoms: C_2  and  O_3
REMARK    2  A    between atoms: C_2  and  C_4
REMARK    3  A    between atoms: C_12  and  C_13
REMARK    4  A    between atoms: C_13  and  S_14
REMARK                            x       y       z     vdW  Elec       q    Type
REMARK                         _______ _______ _______ _____ _____    ______ ____
ROOT
ATOM      1  C   UNL     1       3.674   3.335  19.846  0.00  0.00    +0.000 C 
ATOM      2  C   UNL     1       2.223   3.108  20.304  0.00  0.00    +0.000 C 
ATOM      3  C   UNL     1       1.568   4.411  20.681  0.00  0.00    +0.000 C 
ATOM      4  C   UNL     1       1.569   5.295  19.457  0.00  0.00    +0.000 C 
ATOM      5  N   UNL     1       2.905   5.538  18.934  0.00  0.00    +0.000 N 
ATOM      6  C   UNL     1       3.077   6.689  18.160  0.00  0.00    +0.000 C 
ATOM      7  O   UNL     1       2.187   7.516  17.973  0.00  0.00    +0.000 OA
ATOM      8  C   UNL     1       4.468   6.941  17.652  0.00  0.00    +0.000 C 
ATOM      9  C   UNL     1       5.104   5.661  17.159  0.00  0.00    +0.000 C 
ATOM     10  C   UNL     1       5.075   4.684  18.312  0.00  0.00    +0.000 C 
ATOM     11  O   UNL     1       6.092   4.153  18.762  0.00  0.00    +0.000 OA
ATOM     12  N   UNL     1       3.793   4.374  18.778  0.00  0.00    +0.000 N 
ENDROOT
BRANCH   1  14
ATOM     13  O   UNL     1       3.642   1.198  18.618  0.00  0.00    +0.000 OA
ATOM     14  C   UNL     1       4.198   1.922  19.438  0.00  0.00    +0.000 C 
BRANCH  14  15
ATOM     15  O   UNL     1       5.265   1.455  20.119  0.00  0.00    +0.000 OA
ATOM     16  H   UNL     1       5.965   1.044  19.558  0.00  0.00    +0.000 HD
ENDBRANCH  14  15
ENDBRANCH   1  14
BRANCH   9  17
ATOM     17  C   UNL     1       6.549   5.842  16.676  0.00  0.00    +0.000 C 
BRANCH  17  18
ATOM     18  S   UNL     1       7.417   7.229  17.471  0.00  0.00    +0.000 S 
ATOM     19  H   UNL     1       8.531   7.179  16.727  0.00  0.00    +0.000 HD
ENDBRANCH  17  18
ENDBRANCH   9  17
TORSDOF 4
ENDMDL
MODEL 3
REMARK VINA RESULT:      -6.1      2.892      4.090
REMARK  Name = 
REMARK  4 active torsions:
REMARK  status: ('A' for Active; 'I' for Inactive)
REMARK    1  A    between atoms: C_2  and  O_3
REMARK    2  A    between atoms: C_2  and  C_4
REMARK    3  A    between atoms: C_12  and  C_13
REMARK    4  A    between atoms: C_13  and  S_14
REMARK                            x       y       z     vdW  Elec       q    Type
REMARK                         _______ _______ _______ _____ _____    ______ ____
ROOT
ATOM      1  C   UNL     1       2.317   3.044  19.719  0.00  0.00    +0.000 C 
ATOM      2  C   UNL     1       3.245   1.957  19.149  0.00  0.00    +0.000 C 
ATOM      3  C   UNL     1       3.532   2.205  17.691  0.00  0.00    +0.000 C 
ATOM      4  C   UNL     1       4.213   3.547  17.580  0.00  0.00    +0.000 C 
ATOM      5  N   UNL     1       3.416   4.635  18.126  0.00  0.00    +0.000 N 
ATOM      6  C   UNL     1       3.694   5.918  17.649  0.00  0.00    +0.000 C 
ATOM      7  O   UNL     1       4.509   6.145  16.757  0.00  0.00    +0.000 OA
ATOM      8  C   UNL     1       2.842   7.027  18.201  0.00  0.00    +0.000 C 
ATOM      9  C   UNL     1       2.637   6.860  19.689  0.00  0.00    +0.000 C 
ATOM     10  C   UNL     1       2.022   5.496  19.898  0.00  0.00    +0.000 C 
ATOM     11  O   UNL     1       0.944   5.331  20.473  0.00  0.00    +0.000 OA
ATOM     12  N   UNL     1       2.809   4.429  19.452  0.00  0.00    +0.000 N 
ENDROOT
BRANCH   1  14
ATOM     13  O   UNL     1       3.087   2.341  21.953  0.00  0.00    +0.000 OA
ATOM     14  C   UNL     1       2.157   2.691  21.231  0.00  0.00    +0.000 C 
BRANCH  14  15
ATOM     15  O   UNL     1       0.899   2.677  21.718  0.00  0.00    +0.000 OA
ATOM     16  H   UNL     1       0.837   2.706  22.703  0.00  0.00    +0.000 HD
ENDBRANCH  14  15
ENDBRANCH   1  14
BRANCH   9  17
ATOM     17  C   UNL     1       1.730   7.933  20.306  0.00  0.00    +0.000 C 
BRANCH  17  18
ATOM     18  S   UNL     1       1.279   9.262  19.147  0.00  0.00    +0.000 S 
ATOM     19  H   UNL     1       2.461   9.346  18.521  0.00  0.00    +0.000 HD
ENDBRANCH  17  18
ENDBRANCH   9  17
TORSDOF 4
ENDMDL
MODEL 4
REMARK VINA RESULT:      -6.0      1.486      1.819
REMARK  Name = 
REMARK  4 active torsions:
REMARK  status: ('A' for Active; 'I' for Inactive)
REMARK    1  A    between atoms: C_2  and  O_3
REMARK    2  A    between atoms: C_2  and  C_4
REMARK    3  A    between atoms: C_12  and  C_13
REMARK    4  A    between atoms: C_13  and  S_14
REMARK                            x       y       z     vdW  Elec       q    Type
REMARK                         _______ _______ _______ _____ _____    ______ ____
ROOT
ATOM      1  C   UNL     1       2.241   3.576  19.342  0.00  0.00    +0.000 C 
ATOM      2  C   UNL     1       1.176   4.402  20.083  0.00  0.00    +0.000 C 
ATOM      3  C   UNL     1       1.753   5.700  20.583  0.00  0.00    +0.000 C 
ATOM      4  C   UNL     1       2.238   6.478  19.384  0.00  0.00    +0.000 C 
ATOM      5  N   UNL     1       3.230   5.756  18.603  0.00  0.00    +0.000 N 
ATOM      6  C   UNL     1       4.085   6.524  17.809  0.00  0.00    +0.000 C 
ATOM      7  O   UNL     1       4.080   7.754  17.804  0.00  0.00    +0.000 OA
ATOM      8  C   UNL     1       5.124   5.766  17.031  0.00  0.00    +0.000 C 
ATOM      9  C   UNL     1       4.535   4.514  16.421  0.00  0.00    +0.000 C 
ATOM     10  C   UNL     1       3.953   3.704  17.557  0.00  0.00    +0.000 C 
ATOM     11  O   UNL     1       4.297   2.545  17.793  0.00  0.00    +0.000 OA
ATOM     12  N   UNL     1       2.939   4.351  18.272  0.00  0.00    +0.000 N 
ENDROOT
BRANCH   1  14
ATOM     13  O   UNL     1       0.314   2.295  18.491  0.00  0.00    +0.000 OA
ATOM     14  C   UNL     1       1.492   2.302  18.838  0.00  0.00    +0.000 C 
BRANCH  14  15
ATOM     15  O   UNL     1       2.172   1.139  18.898  0.00  0.00    +0.000 OA
ATOM     16  H   UNL     1       2.771   0.971  18.131  0.00  0.00    +0.000 HD
ENDBRANCH  14  15
ENDBRANCH   1  14
BRANCH   9  17
ATOM     17  C   UNL     1       5.559   3.665  15.657  0.00  0.00    +0.000 C 
BRANCH  17  18
ATOM     18  S   UNL     1       6.545   4.615  14.458  0.00  0.00    +0.000 S 
ATOM     19  H   UNL     1       5.793   4.354  13.379  0.00  0.00    +0.000 HD
ENDBRANCH  17  18
ENDBRANCH   9  17
TORSDOF 4
ENDMDL
MODEL 5
REMARK VINA RESULT:      -6.0      1.271      1.536
REMARK  Name = 
REMARK  4 active torsions:
REMARK  status: ('A' for Active; 'I' for Inactive)
REMARK    1  A    between atoms: C_2  and  O_3
REMARK    2  A    between atoms: C_2  and  C_4
REMARK    3  A    between atoms: C_12  and  C_13
REMARK    4  A    between atoms: C_13  and  S_14
REMARK                            x       y       z     vdW  Elec       q    Type
REMARK                         _______ _______ _______ _____ _____    ______ ____
ROOT
ATOM      1  C   UNL     1       3.846   2.943  20.590  0.00  0.00    +0.000 C 
ATOM      2  C   UNL     1       2.478   2.457  21.098  0.00  0.00    +0.000 C 
ATOM      3  C   UNL     1       1.485   3.589  21.136  0.00  0.00    +0.000 C 
ATOM      4  C   UNL     1       1.333   4.112  19.729  0.00  0.00    +0.000 C 
ATOM      5  N   UNL     1       2.590   4.567  19.154  0.00  0.00    +0.000 N 
ATOM      6  C   UNL     1       2.505   5.494  18.112  0.00  0.00    +0.000 C 
ATOM      7  O   UNL     1       1.444   5.981  17.726  0.00  0.00    +0.000 OA
ATOM      8  C   UNL     1       3.813   5.976  17.549  0.00  0.00    +0.000 C 
ATOM      9  C   UNL     1       4.788   4.831  17.394  0.00  0.00    +0.000 C 
ATOM     10  C   UNL     1       4.941   4.196  18.757  0.00  0.00    +0.000 C 
ATOM     11  O   UNL     1       6.031   4.084  19.321  0.00  0.00    +0.000 OA
ATOM     12  N   UNL     1       3.757   3.680  19.293  0.00  0.00    +0.000 N 
ENDROOT
BRANCH   1  14
ATOM     13  O   UNL     1       5.475   1.317  21.473  0.00  0.00    +0.000 OA
ATOM     14  C   UNL     1       4.743   1.666  20.551  0.00  0.00    +0.000 C 
BRANCH  14  15
ATOM     15  O   UNL     1       4.774   0.985  19.387  0.00  0.00    +0.000 OA
ATOM     16  H   UNL     1       5.674   0.879  18.995  0.00  0.00    +0.000 HD
ENDBRANCH  14  15
ENDBRANCH   1  14
BRANCH   9  17
ATOM     17  C   UNL     1       6.164   5.267  16.872  0.00  0.00    +0.000 C 
BRANCH  17  18
ATOM     18  S   UNL     1       6.622   4.497  15.288  0.00  0.00    +0.000 S 
ATOM     19  H   UNL     1       5.392   4.462  14.757  0.00  0.00    +0.000 HD
ENDBRANCH  17  18
ENDBRANCH   9  17
TORSDOF 4
ENDMDL
MODEL 6
REMARK VINA RESULT:      -6.0      1.489      1.659
REMARK  Name = 
REMARK  4 active torsions:
REMARK  status: ('A' for Active; 'I' for Inactive)
REMARK    1  A    between atoms: C_2  and  O_3
REMARK    2  A    between atoms: C_2  and  C_4
REMARK    3  A    between atoms: C_12  and  C_13
REMARK    4  A    between atoms: C_13  and  S_14
REMARK                            x       y       z     vdW  Elec       q    Type
REMARK                         _______ _______ _______ _____ _____    ______ ____
ROOT
ATOM      1  C   UNL     1       3.271   2.919  19.414  0.00  0.00    +0.000 C 
ATOM      2  C   UNL     1       2.085   2.581  20.333  0.00  0.00    +0.000 C 
ATOM      3  C   UNL     1       1.879   3.661  21.363  0.00  0.00    +0.000 C 
ATOM      4  C   UNL     1       1.586   4.946  20.628  0.00  0.00    +0.000 C 
ATOM      5  N   UNL     1       2.646   5.327  19.707  0.00  0.00    +0.000 N 
ATOM      6  C   UNL     1       2.727   6.680  19.368  0.00  0.00    +0.000 C 
ATOM      7  O   UNL     1       2.005   7.545  19.861  0.00  0.00    +0.000 OA
ATOM      8  C   UNL     1       3.845   7.063  18.439  0.00  0.00    +0.000 C 
ATOM      9  C   UNL     1       3.994   6.049  17.327  0.00  0.00    +0.000 C 
ATOM     10  C   UNL     1       4.217   4.706  17.984  0.00  0.00    +0.000 C 
ATOM     11  O   UNL     1       5.209   4.010  17.758  0.00  0.00    +0.000 OA
ATOM     12  N   UNL     1       3.172   4.283  18.812  0.00  0.00    +0.000 N 
ENDROOT
BRANCH   1  14
ATOM     13  O   UNL     1       2.545   1.638  17.436  0.00  0.00    +0.000 OA
ATOM     14  C   UNL     1       3.326   1.754  18.376  0.00  0.00    +0.000 C 
BRANCH  14  15
ATOM     15  O   UNL     1       4.227   0.778  18.612  0.00  0.00    +0.000 OA
ATOM     16  H   UNL     1       4.146   0.346  19.496  0.00  0.00    +0.000 HD
ENDBRANCH  14  15
ENDBRANCH   1  14
BRANCH   9  17
ATOM     17  C   UNL     1       5.156   6.354  16.373  0.00  0.00    +0.000 C 
BRANCH  17  18
ATOM     18  S   UNL     1       6.618   7.052  17.202  0.00  0.00    +0.000 S 
ATOM     19  H   UNL     1       6.105   8.265  17.451  0.00  0.00    +0.000 HD
ENDBRANCH  17  18
ENDBRANCH   9  17
TORSDOF 4
ENDMDL
MODEL 7
REMARK VINA RESULT:      -5.8      2.569      4.443
REMARK  Name = 
REMARK  4 active torsions:
REMARK  status: ('A' for Active; 'I' for Inactive)
REMARK    1  A    between atoms: C_2  and  O_3
REMARK    2  A    between atoms: C_2  and  C_4
REMARK    3  A    between atoms: C_12  and  C_13
REMARK    4  A    between atoms: C_13  and  S_14
REMARK                            x       y       z     vdW  Elec       q    Type
REMARK                         _______ _______ _______ _____ _____    ______ ____
ROOT
ATOM      1  C   UNL     1       6.207   5.056  17.561  0.00  0.00    +0.000 C 
ATOM      2  C   UNL     1       6.498   6.356  16.792  0.00  0.00    +0.000 C 
ATOM      3  C   UNL     1       5.293   6.795  16.001  0.00  0.00    +0.000 C 
ATOM      4  C   UNL     1       4.169   7.039  16.978  0.00  0.00    +0.000 C 
ATOM      5  N   UNL     1       3.845   5.865  17.775  0.00  0.00    +0.000 N 
ATOM      6  C   UNL     1       2.560   5.810  18.320  0.00  0.00    +0.000 C 
ATOM      7  O   UNL     1       1.694   6.655  18.095  0.00  0.00    +0.000 OA
ATOM      8  C   UNL     1       2.231   4.578  19.116  0.00  0.00    +0.000 C 
ATOM      9  C   UNL     1       3.389   4.186  20.005  0.00  0.00    +0.000 C 
ATOM     10  C   UNL     1       4.589   3.994  19.106  0.00  0.00    +0.000 C 
ATOM     11  O   UNL     1       5.223   2.939  19.057  0.00  0.00    +0.000 OA
ATOM     12  N   UNL     1       4.966   5.136  18.390  0.00  0.00    +0.000 N 
ENDROOT
BRANCH   1  14
ATOM     13  O   UNL     1       7.777   5.277  19.448  0.00  0.00    +0.000 OA
ATOM     14  C   UNL     1       7.510   4.760  18.368  0.00  0.00    +0.000 C 
BRANCH  14  15
ATOM     15  O   UNL     1       8.423   3.967  17.769  0.00  0.00    +0.000 OA
ATOM     16  H   UNL     1       8.354   3.929  16.785  0.00  0.00    +0.000 HD
ENDBRANCH  14  15
ENDBRANCH   1  14
BRANCH   9  17
ATOM     17  C   UNL     1       3.137   2.902  20.806  0.00  0.00    +0.000 C 
BRANCH  17  18
ATOM     18  S   UNL     1       1.458   2.791  21.500  0.00  0.00    +0.000 S 
ATOM     19  H   UNL     1       1.750   1.960  22.511  0.00  0.00    +0.000 HD
ENDBRANCH  17  18
ENDBRANCH   9  17
TORSDOF 4
ENDMDL
MODEL 8
REMARK VINA RESULT:      -5.8      1.023      1.120
REMARK  Name = 
REMARK  4 active torsions:
REMARK  status: ('A' for Active; 'I' for Inactive)
REMARK    1  A    between atoms: C_2  and  O_3
REMARK    2  A    between atoms: C_2  and  C_4
REMARK    3  A    between atoms: C_12  and  C_13
REMARK    4  A    between atoms: C_13  and  S_14
REMARK                            x       y       z     vdW  Elec       q    Type
REMARK                         _______ _______ _______ _____ _____    ______ ____
ROOT
ATOM      1  C   UNL     1       3.208   4.403  20.278  0.00  0.00    +0.000 C 
ATOM      2  C   UNL     1       1.833   4.927  20.725  0.00  0.00    +0.000 C 
ATOM      3  C   UNL     1       1.780   6.430  20.652  0.00  0.00    +0.000 C 
ATOM      4  C   UNL     1       2.019   6.828  19.216  0.00  0.00    +0.000 C 
ATOM      5  N   UNL     1       3.289   6.345  18.697  0.00  0.00    +0.000 N 
ATOM      6  C   UNL     1       3.829   7.038  17.611  0.00  0.00    +0.000 C 
ATOM      7  O   UNL     1       3.324   8.055  17.140  0.00  0.00    +0.000 OA
ATOM      8  C   UNL     1       5.156   6.545  17.106  0.00  0.00    +0.000 C 
ATOM      9  C   UNL     1       5.190   5.034  17.062  0.00  0.00    +0.000 C 
ATOM     10  C   UNL     1       4.882   4.547  18.459  0.00  0.00    +0.000 C 
ATOM     11  O   UNL     1       5.644   3.815  19.092  0.00  0.00    +0.000 OA
ATOM     12  N   UNL     1       3.629   4.934  18.946  0.00  0.00    +0.000 N 
ENDROOT
BRANCH   1  14
ATOM     13  O   UNL     1       2.159   2.208  19.882  0.00  0.00    +0.000 OA
ATOM     14  C   UNL     1       3.095   2.848  20.352  0.00  0.00    +0.000 C 
BRANCH  14  15
ATOM     15  O   UNL     1       4.041   2.207  21.069  0.00  0.00    +0.000 OA
ATOM     16  H   UNL     1       4.904   2.091  20.603  0.00  0.00    +0.000 HD
ENDBRANCH  14  15
ENDBRANCH   1  14
BRANCH   9  17
ATOM     17  C   UNL     1       6.539   4.466  16.605  0.00  0.00    +0.000 C 
BRANCH  17  18
ATOM     18  S   UNL     1       6.882   4.729  14.837  0.00  0.00    +0.000 S 
ATOM     19  H   UNL     1       7.757   3.725  14.685  0.00  0.00    +0.000 HD
ENDBRANCH  17  18
ENDBRANCH   9  17
TORSDOF 4
ENDMDL
MODEL 9
REMARK VINA RESULT:      -5.7      3.056      4.946
REMARK  Name = 
REMARK  4 active torsions:
REMARK  status: ('A' for Active; 'I' for Inactive)
REMARK    1  A    between atoms: C_2  and  O_3
REMARK    2  A    between atoms: C_2  and  C_4
REMARK    3  A    between atoms: C_12  and  C_13
REMARK    4  A    between atoms: C_13  and  S_14
REMARK                            x       y       z     vdW  Elec       q    Type
REMARK                         _______ _______ _______ _____ _____    ______ ____
ROOT
ATOM      1  C   UNL     1       6.726   4.673  17.808  0.00  0.00    +0.000 C 
ATOM      2  C   UNL     1       7.107   4.884  16.332  0.00  0.00    +0.000 C 
ATOM      3  C   UNL     1       6.407   3.886  15.448  0.00  0.00    +0.000 C 
ATOM      4  C   UNL     1       4.921   4.091  15.610  0.00  0.00    +0.000 C 
ATOM      5  N   UNL     1       4.475   3.941  16.987  0.00  0.00    +0.000 N 
ATOM      6  C   UNL     1       3.129   3.618  17.180  0.00  0.00    +0.000 C 
ATOM      7  O   UNL     1       2.351   3.389  16.256  0.00  0.00    +0.000 OA
ATOM      8  C   UNL     1       2.691   3.437  18.606  0.00  0.00    +0.000 C 
ATOM      9  C   UNL     1       3.292   4.503  19.495  0.00  0.00    +0.000 C 
ATOM     10  C   UNL     1       4.792   4.415  19.333  0.00  0.00    +0.000 C 
ATOM     11  O   UNL     1       5.556   4.230  20.282  0.00  0.00    +0.000 OA
ATOM     12  N   UNL     1       5.249   4.637  18.029  0.00  0.00    +0.000 N 
ENDROOT
BRANCH   1  14
ATOM     13  O   UNL     1       7.595   6.951  18.173  0.00  0.00    +0.000 OA
ATOM     14  C   UNL     1       7.473   5.801  18.587  0.00  0.00    +0.000 C 
BRANCH  14  15
ATOM     15  O   UNL     1       8.098   5.436  19.725  0.00  0.00    +0.000 OA
ATOM     16  H   UNL     1       8.152   4.461  19.872  0.00  0.00    +0.000 HD
ENDBRANCH  14  15
ENDBRANCH   1  14
BRANCH   9  17
ATOM     17  C   UNL     1       2.926   4.342  20.976  0.00  0.00    +0.000 C 
BRANCH  17  18
ATOM     18  S   UNL     1       1.776   2.968  21.299  0.00  0.00    +0.000 S 
ATOM     19  H   UNL     1       0.811   3.692  21.883  0.00  0.00    +0.000 HD
ENDBRANCH  17  18
ENDBRANCH   9  17
TORSDOF 4
ENDMDL
