MODEL 1
REMARK VINA RESULT:      -8.4      0.000      0.000
REMARK  Name = 
REMARK  7 active torsions:
REMARK  status: ('A' for Active; 'I' for Inactive)
REMARK    1  A    between atoms: C_1  and  C_2
REMARK    2  A    between atoms: C_6  and  N_7
REMARK    3  A    between atoms: C_8  and  C_10
REMARK    4  A    between atoms: C_10  and  S_11
REMARK    5  A    between atoms: S_11  and  C_12
REMARK    6  A    between atoms: C_21  and  N_22
REMARK    7  A    between atoms: C_27  and  C_28
REMARK                            x       y       z     vdW  Elec       q    Type
REMARK                         _______ _______ _______ _____ _____    ______ ____
ROOT
ATOM      1  C   UNL     1       5.898   4.224  16.541  0.00  0.00    +0.000 A 
ATOM      2  N   UNL     1       5.706   3.414  15.466  0.00  0.00    +0.000 NA
ATOM      3  C   UNL     1       6.271   3.791  14.310  0.00  0.00    +0.000 A 
ATOM      4  C   UNL     1       6.064   3.016  13.176  0.00  0.00    +0.000 A 
ATOM      5  C   UNL     1       6.587   3.383  11.935  0.00  0.00    +0.000 A 
ATOM      6  C   UNL     1       7.339   4.545  11.835  0.00  0.00    +0.000 A 
ATOM      7  C   UNL     1       7.565   5.322  12.977  0.00  0.00    +0.000 A 
ATOM      8  C   UNL     1       7.044   4.968  14.221  0.00  0.00    +0.000 A 
ATOM      9  N   UNL     1       7.263   5.748  15.303  0.00  0.00    +0.000 NA
ATOM     10  C   UNL     1       6.700   5.394  16.491  0.00  0.00    +0.000 A 
ENDROOT
BRANCH  10  11
ATOM     11  N   UNL     1       6.891   6.227  17.598  0.00  0.00    +0.000 N 
ATOM     12  C   UNL     1       6.872   7.680  17.411  0.00  0.00    +0.000 C 
ATOM     13  C   UNL     1       8.168   8.177  18.043  0.00  0.00    +0.000 C 
ATOM     14  C   UNL     1       8.422   7.171  19.148  0.00  0.00    +0.000 C 
ATOM     15  C   UNL     1       7.960   5.851  18.537  0.00  0.00    +0.000 C 
ENDBRANCH  10  11
BRANCH   1  16
ATOM     16  S   UNL     1       4.897   3.814  17.971  0.00  0.00    +0.000 S 
BRANCH  16  17
ATOM     17  C   UNL     1       3.283   3.551  17.181  0.00  0.00    +0.000 C 
BRANCH  17  19
ATOM     18  N   UNL     1       3.015   5.831  17.988  0.00  0.00    +0.000 N 
ATOM     19  C   UNL     1       2.348   4.685  17.569  0.00  0.00    +0.000 C 
ATOM     20  O   UNL     1       1.131   4.554  17.437  0.00  0.00    +0.000 OA
ATOM     21  H   UNL     1       4.023   5.784  17.945  0.00  0.00    +0.000 HD
BRANCH  18  27
ATOM     22  C   UNL     1       0.901   8.541  21.659  0.00  0.00    +0.000 C 
ATOM     23  C   UNL     1       1.395   8.357  20.246  0.00  0.00    +0.000 A 
ATOM     24  C   UNL     1       1.312   9.451  19.374  0.00  0.00    +0.000 A 
ATOM     25  C   UNL     1       1.767   9.344  18.068  0.00  0.00    +0.000 A 
ATOM     26  C   UNL     1       2.327   8.149  17.625  0.00  0.00    +0.000 A 
ATOM     27  C   UNL     1       2.441   7.034  18.468  0.00  0.00    +0.000 A 
ATOM     28  C   UNL     1       1.949   7.124  19.795  0.00  0.00    +0.000 A 
ATOM     29  C   UNL     1       2.017   5.983  20.783  0.00  0.00    +0.000 C 
ENDBRANCH  18  27
ENDBRANCH  17  19
ENDBRANCH  16  17
ENDBRANCH   1  16
TORSDOF 5
ENDMDL
MODEL 2
REMARK VINA RESULT:      -8.2      3.481      5.719
REMARK  Name = 
REMARK  7 active torsions:
REMARK  status: ('A' for Active; 'I' for Inactive)
REMARK    1  A    between atoms: C_1  and  C_2
REMARK    2  A    between atoms: C_6  and  N_7
REMARK    3  A    between atoms: C_8  and  C_10
REMARK    4  A    between atoms: C_10  and  S_11
REMARK    5  A    between atoms: S_11  and  C_12
REMARK    6  A    between atoms: C_21  and  N_22
REMARK    7  A    between atoms: C_27  and  C_28
REMARK                            x       y       z     vdW  Elec       q    Type
REMARK                         _______ _______ _______ _____ _____    ______ ____
ROOT
ATOM      1  C   UNL     1       2.969   6.429  18.238  0.00  0.00    +0.000 A 
ATOM      2  N   UNL     1       3.822   6.816  17.252  0.00  0.00    +0.000 NA
ATOM      3  C   UNL     1       4.550   5.857  16.664  0.00  0.00    +0.000 A 
ATOM      4  C   UNL     1       5.467   6.215  15.683  0.00  0.00    +0.000 A 
ATOM      5  C   UNL     1       6.287   5.266  15.070  0.00  0.00    +0.000 A 
ATOM      6  C   UNL     1       6.178   3.934  15.444  0.00  0.00    +0.000 A 
ATOM      7  C   UNL     1       5.246   3.565  16.421  0.00  0.00    +0.000 A 
ATOM      8  C   UNL     1       4.424   4.505  17.043  0.00  0.00    +0.000 A 
ATOM      9  N   UNL     1       3.546   4.121  17.997  0.00  0.00    +0.000 NA
ATOM     10  C   UNL     1       2.794   5.073  18.615  0.00  0.00    +0.000 A 
ENDROOT
BRANCH  10  11
ATOM     11  N   UNL     1       1.918   4.679  19.633  0.00  0.00    +0.000 N 
ATOM     12  C   UNL     1       2.367   4.746  21.026  0.00  0.00    +0.000 C 
ATOM     13  C   UNL     1       2.098   3.357  21.596  0.00  0.00    +0.000 C 
ATOM     14  C   UNL     1       0.894   2.886  20.805  0.00  0.00    +0.000 C 
ATOM     15  C   UNL     1       1.147   3.446  19.407  0.00  0.00    +0.000 C 
ENDBRANCH  10  11
BRANCH   1  16
ATOM     16  S   UNL     1       2.235   7.779  19.161  0.00  0.00    +0.000 S 
BRANCH  16  17
ATOM     17  C   UNL     1       2.074   9.027  17.851  0.00  0.00    +0.000 C 
BRANCH  17  19
ATOM     18  N   UNL     1      -0.210   9.784  18.223  0.00  0.00    +0.000 N 
ATOM     19  C   UNL     1       1.135  10.126  18.323  0.00  0.00    +0.000 C 
ATOM     20  O   UNL     1       1.591  11.166  18.796  0.00  0.00    +0.000 OA
ATOM     21  H   UNL     1      -0.393   8.847  17.892  0.00  0.00    +0.000 HD
BRANCH  18  27
ATOM     22  C   UNL     1      -4.806  11.516  17.145  0.00  0.00    +0.000 C 
ATOM     23  C   UNL     1      -3.562  11.460  17.996  0.00  0.00    +0.000 A 
ATOM     24  C   UNL     1      -3.532  12.232  19.166  0.00  0.00    +0.000 A 
ATOM     25  C   UNL     1      -2.421  12.206  19.996  0.00  0.00    +0.000 A 
ATOM     26  C   UNL     1      -1.335  11.395  19.676  0.00  0.00    +0.000 A 
ATOM     27  C   UNL     1      -1.330  10.598  18.522  0.00  0.00    +0.000 A 
ATOM     28  C   UNL     1      -2.448  10.643  17.651  0.00  0.00    +0.000 A 
ATOM     29  C   UNL     1      -2.541   9.830  16.381  0.00  0.00    +0.000 C 
ENDBRANCH  18  27
ENDBRANCH  17  19
ENDBRANCH  16  17
ENDBRANCH   1  16
TORSDOF 5
ENDMDL
MODEL 3
REMARK VINA RESULT:      -8.1      3.624      6.540
REMARK  Name = 
REMARK  7 active torsions:
REMARK  status: ('A' for Active; 'I' for Inactive)
REMARK    1  A    between atoms: C_1  and  C_2
REMARK    2  A    between atoms: C_6  and  N_7
REMARK    3  A    between atoms: C_8  and  C_10
REMARK    4  A    between atoms: C_10  and  S_11
REMARK    5  A    between atoms: S_11  and  C_12
REMARK    6  A    between atoms: C_21  and  N_22
REMARK    7  A    between atoms: C_27  and  C_28
REMARK                            x       y       z     vdW  Elec       q    Type
REMARK                         _______ _______ _______ _____ _____    ______ ____
ROOT
ATOM      1  C   UNL     1       6.685   5.772  16.559  0.00  0.00    +0.000 A 
ATOM      2  N   UNL     1       7.399   5.785  15.401  0.00  0.00    +0.000 NA
ATOM      3  C   UNL     1       6.935   5.035  14.392  0.00  0.00    +0.000 A 
ATOM      4  C   UNL     1       7.657   4.984  13.205  0.00  0.00    +0.000 A 
ATOM      5  C   UNL     1       7.249   4.184  12.137  0.00  0.00    +0.000 A 
ATOM      6  C   UNL     1       6.091   3.430  12.259  0.00  0.00    +0.000 A 
ATOM      7  C   UNL     1       5.351   3.489  13.446  0.00  0.00    +0.000 A 
ATOM      8  C   UNL     1       5.751   4.281  14.522  0.00  0.00    +0.000 A 
ATOM      9  N   UNL     1       5.025   4.303  15.663  0.00  0.00    +0.000 NA
ATOM     10  C   UNL     1       5.472   5.053  16.708  0.00  0.00    +0.000 A 
ENDROOT
BRANCH  10  11
ATOM     11  N   UNL     1       4.744   5.039  17.902  0.00  0.00    +0.000 N 
ATOM     12  C   UNL     1       4.831   3.868  18.779  0.00  0.00    +0.000 C 
ATOM     13  C   UNL     1       3.385   3.454  19.033  0.00  0.00    +0.000 C 
ATOM     14  C   UNL     1       2.631   4.766  18.951  0.00  0.00    +0.000 C 
ATOM     15  C   UNL     1       3.355   5.522  17.840  0.00  0.00    +0.000 C 
ENDBRANCH  10  11
BRANCH   1  16
ATOM     16  S   UNL     1       7.499   6.568  17.944  0.00  0.00    +0.000 S 
BRANCH  16  17
ATOM     17  C   UNL     1       7.489   8.296  17.386  0.00  0.00    +0.000 C 
BRANCH  17  19
ATOM     18  N   UNL     1       8.543  10.436  17.869  0.00  0.00    +0.000 N 
ATOM     19  C   UNL     1       8.424   9.109  18.267  0.00  0.00    +0.000 C 
ATOM     20  O   UNL     1       8.941   8.594  19.258  0.00  0.00    +0.000 OA
ATOM     21  H   UNL     1       7.971  10.703  17.080  0.00  0.00    +0.000 HD
BRANCH  18  27
ATOM     22  C   UNL     1       9.644  15.261  18.762  0.00  0.00    +0.000 C 
ATOM     23  C   UNL     1       9.927  13.783  18.863  0.00  0.00    +0.000 A 
ATOM     24  C   UNL     1      11.055  13.378  19.589  0.00  0.00    +0.000 A 
ATOM     25  C   UNL     1      11.353  12.031  19.729  0.00  0.00    +0.000 A 
ATOM     26  C   UNL     1      10.519  11.073  19.160  0.00  0.00    +0.000 A 
ATOM     27  C   UNL     1       9.373  11.434  18.436  0.00  0.00    +0.000 A 
ATOM     28  C   UNL     1       9.078  12.810  18.261  0.00  0.00    +0.000 A 
ATOM     29  C   UNL     1       7.874  13.307  17.495  0.00  0.00    +0.000 C 
ENDBRANCH  18  27
ENDBRANCH  17  19
ENDBRANCH  16  17
ENDBRANCH   1  16
TORSDOF 5
ENDMDL
MODEL 4
REMARK VINA RESULT:      -8.0      0.468      1.485
REMARK  Name = 
REMARK  7 active torsions:
REMARK  status: ('A' for Active; 'I' for Inactive)
REMARK    1  A    between atoms: C_1  and  C_2
REMARK    2  A    between atoms: C_6  and  N_7
REMARK    3  A    between atoms: C_8  and  C_10
REMARK    4  A    between atoms: C_10  and  S_11
REMARK    5  A    between atoms: S_11  and  C_12
REMARK    6  A    between atoms: C_21  and  N_22
REMARK    7  A    between atoms: C_27  and  C_28
REMARK                            x       y       z     vdW  Elec       q    Type
REMARK                         _______ _______ _______ _____ _____    ______ ____
ROOT
ATOM      1  C   UNL     1       5.891   4.199  16.479  0.00  0.00    +0.000 A 
ATOM      2  N   UNL     1       5.712   3.403  15.391  0.00  0.00    +0.000 NA
ATOM      3  C   UNL     1       6.292   3.793  14.248  0.00  0.00    +0.000 A 
ATOM      4  C   UNL     1       6.099   3.032  13.102  0.00  0.00    +0.000 A 
ATOM      5  C   UNL     1       6.638   3.415  11.873  0.00  0.00    +0.000 A 
ATOM      6  C   UNL     1       7.393   4.576  11.796  0.00  0.00    +0.000 A 
ATOM      7  C   UNL     1       7.605   5.339  12.951  0.00  0.00    +0.000 A 
ATOM      8  C   UNL     1       7.067   4.970  14.183  0.00  0.00    +0.000 A 
ATOM      9  N   UNL     1       7.274   5.737  15.278  0.00  0.00    +0.000 NA
ATOM     10  C   UNL     1       6.694   5.368  16.454  0.00  0.00    +0.000 A 
ENDROOT
BRANCH  10  11
ATOM     11  N   UNL     1       6.872   6.187  17.574  0.00  0.00    +0.000 N 
ATOM     12  C   UNL     1       6.894   7.641  17.400  0.00  0.00    +0.000 C 
ATOM     13  C   UNL     1       8.181   8.102  18.074  0.00  0.00    +0.000 C 
ATOM     14  C   UNL     1       8.379   7.081  19.177  0.00  0.00    +0.000 C 
ATOM     15  C   UNL     1       7.903   5.777  18.540  0.00  0.00    +0.000 C 
ENDBRANCH  10  11
BRANCH   1  16
ATOM     16  S   UNL     1       4.871   3.772  17.891  0.00  0.00    +0.000 S 
BRANCH  16  17
ATOM     17  C   UNL     1       3.252   3.594  17.088  0.00  0.00    +0.000 C 
BRANCH  17  19
ATOM     18  N   UNL     1       2.892   5.535  18.512  0.00  0.00    +0.000 N 
ATOM     19  C   UNL     1       2.276   4.579  17.711  0.00  0.00    +0.000 C 
ATOM     20  O   UNL     1       1.077   4.516  17.438  0.00  0.00    +0.000 OA
ATOM     21  H   UNL     1       3.900   5.483  18.547  0.00  0.00    +0.000 HD
BRANCH  18  27
ATOM     22  C   UNL     1       1.258  10.260  19.053  0.00  0.00    +0.000 C 
ATOM     23  C   UNL     1       1.482   8.855  19.555  0.00  0.00    +0.000 A 
ATOM     24  C   UNL     1       1.011   8.532  20.835  0.00  0.00    +0.000 A 
ATOM     25  C   UNL     1       1.173   7.251  21.340  0.00  0.00    +0.000 A 
ATOM     26  C   UNL     1       1.792   6.273  20.566  0.00  0.00    +0.000 A 
ATOM     27  C   UNL     1       2.266   6.551  19.276  0.00  0.00    +0.000 A 
ATOM     28  C   UNL     1       2.134   7.866  18.763  0.00  0.00    +0.000 A 
ATOM     29  C   UNL     1       2.615   8.272  17.390  0.00  0.00    +0.000 C 
ENDBRANCH  18  27
ENDBRANCH  17  19
ENDBRANCH  16  17
ENDBRANCH   1  16
TORSDOF 5
ENDMDL
MODEL 5
REMARK VINA RESULT:      -7.9      3.157      5.400
REMARK  Name = 
REMARK  7 active torsions:
REMARK  status: ('A' for Active; 'I' for Inactive)
REMARK    1  A    between atoms: C_1  and  C_2
REMARK    2  A    between atoms: C_6  and  N_7
REMARK    3  A    between atoms: C_8  and  C_10
REMARK    4  A    between atoms: C_10  and  S_11
REMARK    5  A    between atoms: S_11  and  C_12
REMARK    6  A    between atoms: C_21  and  N_22
REMARK    7  A    between atoms: C_27  and  C_28
REMARK                            x       y       z     vdW  Elec       q    Type
REMARK                         _______ _______ _______ _____ _____    ______ ____
ROOT
ATOM      1  C   UNL     1       3.012   6.416  18.238  0.00  0.00    +0.000 A 
ATOM      2  N   UNL     1       3.867   6.813  17.257  0.00  0.00    +0.000 NA
ATOM      3  C   UNL     1       4.581   5.856  16.647  0.00  0.00    +0.000 A 
ATOM      4  C   UNL     1       5.498   6.222  15.669  0.00  0.00    +0.000 A 
ATOM      5  C   UNL     1       6.304   5.275  15.035  0.00  0.00    +0.000 A 
ATOM      6  C   UNL     1       6.178   3.937  15.381  0.00  0.00    +0.000 A 
ATOM      7  C   UNL     1       5.244   3.561  16.354  0.00  0.00    +0.000 A 
ATOM      8  C   UNL     1       4.438   4.498  16.998  0.00  0.00    +0.000 A 
ATOM      9  N   UNL     1       3.557   4.106  17.948  0.00  0.00    +0.000 NA
ATOM     10  C   UNL     1       2.820   5.055  18.587  0.00  0.00    +0.000 A 
ENDROOT
BRANCH  10  11
ATOM     11  N   UNL     1       1.943   4.652  19.600  0.00  0.00    +0.000 N 
ATOM     12  C   UNL     1       2.382   4.725  20.996  0.00  0.00    +0.000 C 
ATOM     13  C   UNL     1       2.126   3.333  21.565  0.00  0.00    +0.000 C 
ATOM     14  C   UNL     1       0.932   2.848  20.768  0.00  0.00    +0.000 C 
ATOM     15  C   UNL     1       1.188   3.411  19.371  0.00  0.00    +0.000 C 
ENDBRANCH  10  11
BRANCH   1  16
ATOM     16  S   UNL     1       2.300   7.757  19.191  0.00  0.00    +0.000 S 
BRANCH  16  17
ATOM     17  C   UNL     1       1.922   8.941  17.867  0.00  0.00    +0.000 C 
BRANCH  17  19
ATOM     18  N   UNL     1       0.052   9.898  19.096  0.00  0.00    +0.000 N 
ATOM     19  C   UNL     1       1.264  10.171  18.471  0.00  0.00    +0.000 C 
ATOM     20  O   UNL     1       1.837  11.260  18.431  0.00  0.00    +0.000 OA
ATOM     21  H   UNL     1      -0.218   8.924  19.107  0.00  0.00    +0.000 HD
BRANCH  18  27
ATOM     22  C   UNL     1      -1.681  12.332  23.140  0.00  0.00    +0.000 C 
ATOM     23  C   UNL     1      -1.695  12.002  21.669  0.00  0.00    +0.000 A 
ATOM     24  C   UNL     1      -2.612  12.679  20.853  0.00  0.00    +0.000 A 
ATOM     25  C   UNL     1      -2.657  12.429  19.490  0.00  0.00    +0.000 A 
ATOM     26  C   UNL     1      -1.774  11.513  18.923  0.00  0.00    +0.000 A 
ATOM     27  C   UNL     1      -0.833  10.824  19.701  0.00  0.00    +0.000 A 
ATOM     28  C   UNL     1      -0.801  11.050  21.101  0.00  0.00    +0.000 A 
ATOM     29  C   UNL     1       0.168  10.356  22.030  0.00  0.00    +0.000 C 
ENDBRANCH  18  27
ENDBRANCH  17  19
ENDBRANCH  16  17
ENDBRANCH   1  16
TORSDOF 5
ENDMDL
MODEL 6
REMARK VINA RESULT:      -7.8      3.144      5.624
REMARK  Name = 
REMARK  7 active torsions:
REMARK  status: ('A' for Active; 'I' for Inactive)
REMARK    1  A    between atoms: C_1  and  C_2
REMARK    2  A    between atoms: C_6  and  N_7
REMARK    3  A    between atoms: C_8  and  C_10
REMARK    4  A    between atoms: C_10  and  S_11
REMARK    5  A    between atoms: S_11  and  C_12
REMARK    6  A    between atoms: C_21  and  N_22
REMARK    7  A    between atoms: C_27  and  C_28
REMARK                            x       y       z     vdW  Elec       q    Type
REMARK                         _______ _______ _______ _____ _____    ______ ____
ROOT
ATOM      1  C   UNL     1       2.942   6.357  18.464  0.00  0.00    +0.000 A 
ATOM      2  N   UNL     1       3.774   6.812  17.489  0.00  0.00    +0.000 NA
ATOM      3  C   UNL     1       4.466   5.894  16.801  0.00  0.00    +0.000 A 
ATOM      4  C   UNL     1       5.361   6.318  15.826  0.00  0.00    +0.000 A 
ATOM      5  C   UNL     1       6.144   5.411  15.111  0.00  0.00    +0.000 A 
ATOM      6  C   UNL     1       6.019   4.054  15.373  0.00  0.00    +0.000 A 
ATOM      7  C   UNL     1       5.108   3.619  16.343  0.00  0.00    +0.000 A 
ATOM      8  C   UNL     1       4.324   4.516  17.067  0.00  0.00    +0.000 A 
ATOM      9  N   UNL     1       3.465   4.068  18.011  0.00  0.00    +0.000 NA
ATOM     10  C   UNL     1       2.750   4.977  18.729  0.00  0.00    +0.000 A 
ENDROOT
BRANCH  10  11
ATOM     11  N   UNL     1       1.896   4.514  19.736  0.00  0.00    +0.000 N 
ATOM     12  C   UNL     1       2.351   4.543  21.129  0.00  0.00    +0.000 C 
ATOM     13  C   UNL     1       2.137   3.125  21.646  0.00  0.00    +0.000 C 
ATOM     14  C   UNL     1       0.945   2.641  20.844  0.00  0.00    +0.000 C 
ATOM     15  C   UNL     1       1.169   3.263  19.468  0.00  0.00    +0.000 C 
ENDBRANCH  10  11
BRANCH   1  16
ATOM     16  S   UNL     1       2.262   7.637  19.520  0.00  0.00    +0.000 S 
BRANCH  16  17
ATOM     17  C   UNL     1       1.667   8.815  18.272  0.00  0.00    +0.000 C 
BRANCH  17  19
ATOM     18  N   UNL     1       1.030  10.108  20.233  0.00  0.00    +0.000 N 
ATOM     19  C   UNL     1       0.691   9.780  18.925  0.00  0.00    +0.000 C 
ATOM     20  O   UNL     1      -0.251  10.238  18.277  0.00  0.00    +0.000 OA
ATOM     21  H   UNL     1       1.892   9.703  20.570  0.00  0.00    +0.000 HD
BRANCH  18  27
ATOM     22  C   UNL     1      -0.236  14.638  22.013  0.00  0.00    +0.000 C 
ATOM     23  C   UNL     1      -0.307  13.131  22.015  0.00  0.00    +0.000 A 
ATOM     24  C   UNL     1      -1.167  12.515  22.935  0.00  0.00    +0.000 A 
ATOM     25  C   UNL     1      -1.285  11.134  22.970  0.00  0.00    +0.000 A 
ATOM     26  C   UNL     1      -0.558  10.353  22.075  0.00  0.00    +0.000 A 
ATOM     27  C   UNL     1       0.303  10.929  21.131  0.00  0.00    +0.000 A 
ATOM     28  C   UNL     1       0.455  12.339  21.109  0.00  0.00    +0.000 A 
ATOM     29  C   UNL     1       1.360  13.060  20.138  0.00  0.00    +0.000 C 
ENDBRANCH  18  27
ENDBRANCH  17  19
ENDBRANCH  16  17
ENDBRANCH   1  16
TORSDOF 5
ENDMDL
MODEL 7
REMARK VINA RESULT:      -7.8      3.266      5.594
REMARK  Name = 
REMARK  7 active torsions:
REMARK  status: ('A' for Active; 'I' for Inactive)
REMARK    1  A    between atoms: C_1  and  C_2
REMARK    2  A    between atoms: C_6  and  N_7
REMARK    3  A    between atoms: C_8  and  C_10
REMARK    4  A    between atoms: C_10  and  S_11
REMARK    5  A    between atoms: S_11  and  C_12
REMARK    6  A    between atoms: C_21  and  N_22
REMARK    7  A    between atoms: C_27  and  C_28
REMARK                            x       y       z     vdW  Elec       q    Type
REMARK                         _______ _______ _______ _____ _____    ______ ____
ROOT
ATOM      1  C   UNL     1       2.941   6.383  18.289  0.00  0.00    +0.000 A 
ATOM      2  N   UNL     1       3.773   6.789  17.292  0.00  0.00    +0.000 NA
ATOM      3  C   UNL     1       4.505   5.844  16.687  0.00  0.00    +0.000 A 
ATOM      4  C   UNL     1       5.401   6.221  15.693  0.00  0.00    +0.000 A 
ATOM      5  C   UNL     1       6.224   5.288  15.061  0.00  0.00    +0.000 A 
ATOM      6  C   UNL     1       6.139   3.952  15.427  0.00  0.00    +0.000 A 
ATOM      7  C   UNL     1       5.229   3.563  16.417  0.00  0.00    +0.000 A 
ATOM      8  C   UNL     1       4.404   4.487  17.058  0.00  0.00    +0.000 A 
ATOM      9  N   UNL     1       3.546   4.085  18.024  0.00  0.00    +0.000 NA
ATOM     10  C   UNL     1       2.791   5.022  18.660  0.00  0.00    +0.000 A 
ENDROOT
BRANCH  10  11
ATOM     11  N   UNL     1       1.938   4.609  19.689  0.00  0.00    +0.000 N 
ATOM     12  C   UNL     1       2.415   4.653  21.074  0.00  0.00    +0.000 C 
ATOM     13  C   UNL     1       2.161   3.254  21.625  0.00  0.00    +0.000 C 
ATOM     14  C   UNL     1       0.941   2.794  20.852  0.00  0.00    +0.000 C 
ATOM     15  C   UNL     1       1.165   3.379  19.459  0.00  0.00    +0.000 C 
ENDBRANCH  10  11
BRANCH   1  16
ATOM     16  S   UNL     1       2.204   7.717  19.233  0.00  0.00    +0.000 S 
BRANCH  16  17
ATOM     17  C   UNL     1       2.090   9.003  17.956  0.00  0.00    +0.000 C 
BRANCH  17  19
ATOM     18  N   UNL     1       0.476  10.004  19.479  0.00  0.00    +0.000 N 
ATOM     19  C   UNL     1       1.496  10.261  18.568  0.00  0.00    +0.000 C 
ATOM     20  O   UNL     1       1.965  11.365  18.288  0.00  0.00    +0.000 OA
ATOM     21  H   UNL     1       0.287   9.027  19.649  0.00  0.00    +0.000 HD
BRANCH  18  27
ATOM     22  C   UNL     1      -3.710  12.752  19.936  0.00  0.00    +0.000 C 
ATOM     23  C   UNL     1      -2.345  12.306  20.396  0.00  0.00    +0.000 A 
ATOM     24  C   UNL     1      -1.852  12.833  21.599  0.00  0.00    +0.000 A 
ATOM     25  C   UNL     1      -0.611  12.445  22.079  0.00  0.00    +0.000 A 
ATOM     26  C   UNL     1       0.145  11.512  21.374  0.00  0.00    +0.000 A 
ATOM     27  C   UNL     1      -0.316  10.951  20.174  0.00  0.00    +0.000 A 
ATOM     28  C   UNL     1      -1.570  11.366  19.658  0.00  0.00    +0.000 A 
ATOM     29  C   UNL     1      -2.156  10.829  18.373  0.00  0.00    +0.000 C 
ENDBRANCH  18  27
ENDBRANCH  17  19
ENDBRANCH  16  17
ENDBRANCH   1  16
TORSDOF 5
ENDMDL
MODEL 8
REMARK VINA RESULT:      -7.7      4.312      9.166
REMARK  Name = 
REMARK  7 active torsions:
REMARK  status: ('A' for Active; 'I' for Inactive)
REMARK    1  A    between atoms: C_1  and  C_2
REMARK    2  A    between atoms: C_6  and  N_7
REMARK    3  A    between atoms: C_8  and  C_10
REMARK    4  A    between atoms: C_10  and  S_11
REMARK    5  A    between atoms: S_11  and  C_12
REMARK    6  A    between atoms: C_21  and  N_22
REMARK    7  A    between atoms: C_27  and  C_28
REMARK                            x       y       z     vdW  Elec       q    Type
REMARK                         _______ _______ _______ _____ _____    ______ ____
ROOT
ATOM      1  C   UNL     1       0.088  11.117  20.512  0.00  0.00    +0.000 A 
ATOM      2  N   UNL     1       1.144  11.774  21.063  0.00  0.00    +0.000 NA
ATOM      3  C   UNL     1       1.595  12.855  20.412  0.00  0.00    +0.000 A 
ATOM      4  C   UNL     1       2.700  13.531  20.916  0.00  0.00    +0.000 A 
ATOM      5  C   UNL     1       3.244  14.634  20.256  0.00  0.00    +0.000 A 
ATOM      6  C   UNL     1       2.662  15.071  19.075  0.00  0.00    +0.000 A 
ATOM      7  C   UNL     1       1.539  14.404  18.570  0.00  0.00    +0.000 A 
ATOM      8  C   UNL     1       0.990  13.299  19.218  0.00  0.00    +0.000 A 
ATOM      9  N   UNL     1      -0.084  12.663  18.696  0.00  0.00    +0.000 NA
ATOM     10  C   UNL     1      -0.564  11.559  19.333  0.00  0.00    +0.000 A 
ENDROOT
BRANCH  10  11
ATOM     11  N   UNL     1      -1.646  10.877  18.767  0.00  0.00    +0.000 N 
ATOM     12  C   UNL     1      -1.411   9.976  17.636  0.00  0.00    +0.000 C 
ATOM     13  C   UNL     1      -2.391  10.428  16.558  0.00  0.00    +0.000 C 
ATOM     14  C   UNL     1      -3.555  10.977  17.358  0.00  0.00    +0.000 C 
ATOM     15  C   UNL     1      -2.879  11.650  18.550  0.00  0.00    +0.000 C 
ENDBRANCH  10  11
BRANCH   1  16
ATOM     16  S   UNL     1      -0.286   9.538  21.275  0.00  0.00    +0.000 S 
BRANCH  16  17
ATOM     17  C   UNL     1       1.383   8.836  21.420  0.00  0.00    +0.000 C 
BRANCH  17  19
ATOM     18  N   UNL     1       2.147   6.799  20.330  0.00  0.00    +0.000 N 
ATOM     19  C   UNL     1       1.732   8.111  20.131  0.00  0.00    +0.000 C 
ATOM     20  O   UNL     1       1.575   8.672  19.046  0.00  0.00    +0.000 OA
ATOM     21  H   UNL     1       2.127   6.481  21.289  0.00  0.00    +0.000 HD
BRANCH  18  27
ATOM     22  C   UNL     1       1.979   2.278  18.134  0.00  0.00    +0.000 C 
ATOM     23  C   UNL     1       2.532   3.674  18.284  0.00  0.00    +0.000 A 
ATOM     24  C   UNL     1       3.517   4.091  17.379  0.00  0.00    +0.000 A 
ATOM     25  C   UNL     1       4.048   5.370  17.459  0.00  0.00    +0.000 A 
ATOM     26  C   UNL     1       3.588   6.252  18.433  0.00  0.00    +0.000 A 
ATOM     27  C   UNL     1       2.595   5.879  19.350  0.00  0.00    +0.000 A 
ATOM     28  C   UNL     1       2.069   4.563  19.296  0.00  0.00    +0.000 A 
ATOM     29  C   UNL     1       1.002   4.058  20.239  0.00  0.00    +0.000 C 
ENDBRANCH  18  27
ENDBRANCH  17  19
ENDBRANCH  16  17
ENDBRANCH   1  16
TORSDOF 5
ENDMDL
MODEL 9
REMARK VINA RESULT:      -7.7      3.433      6.064
REMARK  Name = 
REMARK  7 active torsions:
REMARK  status: ('A' for Active; 'I' for Inactive)
REMARK    1  A    between atoms: C_1  and  C_2
REMARK    2  A    between atoms: C_6  and  N_7
REMARK    3  A    between atoms: C_8  and  C_10
REMARK    4  A    between atoms: C_10  and  S_11
REMARK    5  A    between atoms: S_11  and  C_12
REMARK    6  A    between atoms: C_21  and  N_22
REMARK    7  A    between atoms: C_27  and  C_28
REMARK                            x       y       z     vdW  Elec       q    Type
REMARK                         _______ _______ _______ _____ _____    ______ ____
ROOT
ATOM      1  C   UNL     1       3.188   6.569  18.016  0.00  0.00    +0.000 A 
ATOM      2  N   UNL     1       4.300   7.120  17.459  0.00  0.00    +0.000 NA
ATOM      3  C   UNL     1       5.485   6.696  17.916  0.00  0.00    +0.000 A 
ATOM      4  C   UNL     1       6.646   7.265  17.406  0.00  0.00    +0.000 A 
ATOM      5  C   UNL     1       7.907   6.897  17.878  0.00  0.00    +0.000 A 
ATOM      6  C   UNL     1       8.004   5.934  18.873  0.00  0.00    +0.000 A 
ATOM      7  C   UNL     1       6.839   5.345  19.380  0.00  0.00    +0.000 A 
ATOM      8  C   UNL     1       5.574   5.708  18.920  0.00  0.00    +0.000 A 
ATOM      9  N   UNL     1       4.465   5.135  19.442  0.00  0.00    +0.000 NA
ATOM     10  C   UNL     1       3.246   5.548  18.999  0.00  0.00    +0.000 A 
ENDROOT
BRANCH  10  11
ATOM     11  N   UNL     1       2.099   4.987  19.573  0.00  0.00    +0.000 N 
ATOM     12  C   UNL     1       2.051   4.787  21.024  0.00  0.00    +0.000 C 
ATOM     13  C   UNL     1       1.674   3.321  21.210  0.00  0.00    +0.000 C 
ATOM     14  C   UNL     1       0.829   3.024  19.987  0.00  0.00    +0.000 C 
ATOM     15  C   UNL     1       1.509   3.829  18.883  0.00  0.00    +0.000 C 
ENDBRANCH  10  11
BRANCH   1  16
ATOM     16  S   UNL     1       1.651   7.371  17.561  0.00  0.00    +0.000 S 
BRANCH  16  17
ATOM     17  C   UNL     1       2.019   9.085  18.035  0.00  0.00    +0.000 C 
BRANCH  17  19
ATOM     18  N   UNL     1      -0.086  10.307  18.058  0.00  0.00    +0.000 N 
ATOM     19  C   UNL     1       0.853   9.641  18.838  0.00  0.00    +0.000 C 
ATOM     20  O   UNL     1       0.780   9.427  20.048  0.00  0.00    +0.000 OA
ATOM     21  H   UNL     1       0.098  10.305  17.064  0.00  0.00    +0.000 HD
BRANCH  18  27
ATOM     22  C   UNL     1      -5.002  11.305  17.707  0.00  0.00    +0.000 C 
ATOM     23  C   UNL     1      -3.640  11.489  18.328  0.00  0.00    +0.000 A 
ATOM     24  C   UNL     1      -3.531  12.352  19.427  0.00  0.00    +0.000 A 
ATOM     25  C   UNL     1      -2.307  12.545  20.048  0.00  0.00    +0.000 A 
ATOM     26  C   UNL     1      -1.181  11.866  19.590  0.00  0.00    +0.000 A 
ATOM     27  C   UNL     1      -1.249  10.984  18.502  0.00  0.00    +0.000 A 
ATOM     28  C   UNL     1      -2.490  10.805  17.840  0.00  0.00    +0.000 A 
ATOM     29  C   UNL     1      -2.672   9.884  16.655  0.00  0.00    +0.000 C 
ENDBRANCH  18  27
ENDBRANCH  17  19
ENDBRANCH  16  17
ENDBRANCH   1  16
TORSDOF 5
ENDMDL
