MODEL 1
REMARK VINA RESULT:      -7.1      0.000      0.000
REMARK  Name = 
REMARK  12 active torsions:
REMARK  status: ('A' for Active; 'I' for Inactive)
REMARK    1  A    between atoms: C_1  and  C_2
REMARK    2  A    between atoms: C_3  and  C_4
REMARK    3  A    between atoms: C_4  and  C_5
REMARK    4  A    between atoms: C_4  and  C_9
REMARK    5  A    between atoms: C_5  and  C_6
REMARK    6  A    between atoms: C_6  and  O_8
REMARK    7  A    between atoms: C_12  and  O_13
REMARK    8  A    between atoms: O_13  and  C_14
REMARK    9  A    between atoms: C_14  and  C_15
REMARK   10  A    between atoms: C_14  and  C_16
REMARK   11  A    between atoms: C_16  and  C_17
REMARK   12  A    between atoms: C_17  and  C_18
REMARK                            x       y       z     vdW  Elec       q    Type
REMARK                         _______ _______ _______ _____ _____    ______ ____
ROOT
ATOM      1  C   UNL     1       5.296   6.024  17.670  0.00  0.00    +0.000 A 
ATOM      2  C   UNL     1       5.519   5.176  18.770  0.00  0.00    +0.000 A 
ATOM      3  C   UNL     1       4.473   4.769  19.599  0.00  0.00    +0.000 A 
ATOM      4  C   UNL     1       3.180   5.220  19.363  0.00  0.00    +0.000 A 
ATOM      5  C   UNL     1       2.944   6.090  18.299  0.00  0.00    +0.000 A 
ATOM      6  C   UNL     1       3.991   6.487  17.459  0.00  0.00    +0.000 A 
ENDROOT
BRANCH   1   7
ATOM      7  C   UNL     1       6.406   6.454  16.712  0.00  0.00    +0.000 C 
BRANCH   7  10
ATOM      8  C   UNL     1       8.742   9.599  18.451  0.00  0.00    +0.000 C 
ATOM      9  C   UNL     1       7.941   8.528  17.857  0.00  0.00    +0.000 C 
ATOM     10  C   UNL     1       7.232   7.571  17.329  0.00  0.00    +0.000 C 
ENDBRANCH   7  10
BRANCH   7  11
ATOM     11  C   UNL     1       7.332   5.282  16.373  0.00  0.00    +0.000 C 
BRANCH  11  12
ATOM     12  C   UNL     1       7.076   4.776  14.979  0.00  0.00    +0.000 C 
ATOM     13  O   UNL     1       6.334   3.838  14.727  0.00  0.00    +0.000 OA
BRANCH  12  14
ATOM     14  O   UNL     1       7.732   5.459  14.016  0.00  0.00    +0.000 OA
ATOM     15  H   UNL     1       7.662   5.057  13.126  0.00  0.00    +0.000 HD
ENDBRANCH  12  14
ENDBRANCH  11  12
ENDBRANCH   7  11
ENDBRANCH   1   7
BRANCH   4  16
ATOM     16  O   UNL     1       2.227   4.701  20.190  0.00  0.00    +0.000 OA
BRANCH  16  17
ATOM     17  C   UNL     1       2.153   3.275  20.290  0.00  0.00    +0.000 C 
ATOM     18  C   UNL     1       1.474   2.883  21.601  0.00  0.00    +0.000 C 
BRANCH  17  19
ATOM     19  C   UNL     1       1.298   2.775  19.112  0.00  0.00    +0.000 C 
BRANCH  19  20
ATOM     20  C   UNL     1       2.135   2.270  17.934  0.00  0.00    +0.000 C 
ATOM     21  C   UNL     1       3.383   1.547  18.419  0.00  0.00    +0.000 C 
ENDBRANCH  19  20
ENDBRANCH  17  19
ENDBRANCH  16  17
ENDBRANCH   4  16
TORSDOF 9
ENDMDL
MODEL 2
REMARK VINA RESULT:      -6.9      0.452      1.218
REMARK  Name = 
REMARK  12 active torsions:
REMARK  status: ('A' for Active; 'I' for Inactive)
REMARK    1  A    between atoms: C_1  and  C_2
REMARK    2  A    between atoms: C_3  and  C_4
REMARK    3  A    between atoms: C_4  and  C_5
REMARK    4  A    between atoms: C_4  and  C_9
REMARK    5  A    between atoms: C_5  and  C_6
REMARK    6  A    between atoms: C_6  and  O_8
REMARK    7  A    between atoms: C_12  and  O_13
REMARK    8  A    between atoms: O_13  and  C_14
REMARK    9  A    between atoms: C_14  and  C_15
REMARK   10  A    between atoms: C_14  and  C_16
REMARK   11  A    between atoms: C_16  and  C_17
REMARK   12  A    between atoms: C_17  and  C_18
REMARK                            x       y       z     vdW  Elec       q    Type
REMARK                         _______ _______ _______ _____ _____    ______ ____
ROOT
ATOM      1  C   UNL     1       5.437   6.048  17.691  0.00  0.00    +0.000 A 
ATOM      2  C   UNL     1       4.097   6.472  17.654  0.00  0.00    +0.000 A 
ATOM      3  C   UNL     1       3.166   6.023  18.592  0.00  0.00    +0.000 A 
ATOM      4  C   UNL     1       3.547   5.119  19.575  0.00  0.00    +0.000 A 
ATOM      5  C   UNL     1       4.863   4.659  19.607  0.00  0.00    +0.000 A 
ATOM      6  C   UNL     1       5.800   5.121  18.675  0.00  0.00    +0.000 A 
ENDROOT
BRANCH   1   7
ATOM      7  C   UNL     1       6.497   6.552  16.712  0.00  0.00    +0.000 C 
BRANCH   7  10
ATOM      8  C   UNL     1       8.813   9.683  18.502  0.00  0.00    +0.000 C 
ATOM      9  C   UNL     1       8.022   8.612  17.895  0.00  0.00    +0.000 C 
ATOM     10  C   UNL     1       7.318   7.661  17.350  0.00  0.00    +0.000 C 
ENDBRANCH   7  10
BRANCH   7  11
ATOM     11  C   UNL     1       7.438   5.423  16.282  0.00  0.00    +0.000 C 
BRANCH  11  12
ATOM     12  C   UNL     1       7.063   4.894  14.924  0.00  0.00    +0.000 C 
ATOM     13  O   UNL     1       6.195   4.052  14.744  0.00  0.00    +0.000 OA
BRANCH  12  14
ATOM     14  O   UNL     1       7.764   5.440  13.907  0.00  0.00    +0.000 OA
ATOM     15  H   UNL     1       7.991   4.806  13.195  0.00  0.00    +0.000 HD
ENDBRANCH  12  14
ENDBRANCH  11  12
ENDBRANCH   7  11
ENDBRANCH   1   7
BRANCH   4  16
ATOM     16  O   UNL     1       2.574   4.806  20.481  0.00  0.00    +0.000 OA
BRANCH  16  17
ATOM     17  C   UNL     1       2.182   3.432  20.569  0.00  0.00    +0.000 C 
ATOM     18  C   UNL     1       2.077   3.019  22.037  0.00  0.00    +0.000 C 
BRANCH  17  19
ATOM     19  C   UNL     1       0.796   3.306  19.912  0.00  0.00    +0.000 C 
BRANCH  19  20
ATOM     20  C   UNL     1       0.818   2.491  18.616  0.00  0.00    +0.000 C 
ATOM     21  C   UNL     1       2.239   2.092  18.244  0.00  0.00    +0.000 C 
ENDBRANCH  19  20
ENDBRANCH  17  19
ENDBRANCH  16  17
ENDBRANCH   4  16
TORSDOF 9
ENDMDL
MODEL 3
REMARK VINA RESULT:      -6.7      0.788      1.127
REMARK  Name = 
REMARK  12 active torsions:
REMARK  status: ('A' for Active; 'I' for Inactive)
REMARK    1  A    between atoms: C_1  and  C_2
REMARK    2  A    between atoms: C_3  and  C_4
REMARK    3  A    between atoms: C_4  and  C_5
REMARK    4  A    between atoms: C_4  and  C_9
REMARK    5  A    between atoms: C_5  and  C_6
REMARK    6  A    between atoms: C_6  and  O_8
REMARK    7  A    between atoms: C_12  and  O_13
REMARK    8  A    between atoms: O_13  and  C_14
REMARK    9  A    between atoms: C_14  and  C_15
REMARK   10  A    between atoms: C_14  and  C_16
REMARK   11  A    between atoms: C_16  and  C_17
REMARK   12  A    between atoms: C_17  and  C_18
REMARK                            x       y       z     vdW  Elec       q    Type
REMARK                         _______ _______ _______ _____ _____    ______ ____
ROOT
ATOM      1  C   UNL     1       5.197   5.688  17.993  0.00  0.00    +0.000 A 
ATOM      2  C   UNL     1       5.362   4.521  18.759  0.00  0.00    +0.000 A 
ATOM      3  C   UNL     1       4.436   4.156  19.737  0.00  0.00    +0.000 A 
ATOM      4  C   UNL     1       3.334   4.963  19.991  0.00  0.00    +0.000 A 
ATOM      5  C   UNL     1       3.171   6.143  19.266  0.00  0.00    +0.000 A 
ATOM      6  C   UNL     1       4.092   6.502  18.275  0.00  0.00    +0.000 A 
ENDROOT
BRANCH   1   7
ATOM      7  C   UNL     1       6.162   6.097  16.882  0.00  0.00    +0.000 C 
BRANCH   7  10
ATOM      8  C   UNL     1       8.551   9.426  18.143  0.00  0.00    +0.000 C 
ATOM      9  C   UNL     1       7.735   8.291  17.708  0.00  0.00    +0.000 C 
ATOM     10  C   UNL     1       7.008   7.279  17.326  0.00  0.00    +0.000 C 
ENDBRANCH   7  10
BRANCH   7  11
ATOM     11  C   UNL     1       7.090   4.941  16.497  0.00  0.00    +0.000 C 
BRANCH  11  12
ATOM     12  C   UNL     1       7.048   4.683  15.015  0.00  0.00    +0.000 C 
ATOM     13  O   UNL     1       7.603   5.395  14.190  0.00  0.00    +0.000 OA
BRANCH  12  14
ATOM     14  O   UNL     1       6.351   3.581  14.667  0.00  0.00    +0.000 OA
ATOM     15  H   UNL     1       5.380   3.678  14.763  0.00  0.00    +0.000 HD
ENDBRANCH  12  14
ENDBRANCH  11  12
ENDBRANCH   7  11
ENDBRANCH   1   7
BRANCH   4  16
ATOM     16  O   UNL     1       2.458   4.472  20.915  0.00  0.00    +0.000 OA
BRANCH  16  17
ATOM     17  C   UNL     1       2.035   3.114  20.759  0.00  0.00    +0.000 C 
ATOM     18  C   UNL     1       1.530   2.573  22.096  0.00  0.00    +0.000 C 
BRANCH  17  19
ATOM     19  C   UNL     1       0.877   3.106  19.745  0.00  0.00    +0.000 C 
BRANCH  19  20
ATOM     20  C   UNL     1       1.264   2.493  18.396  0.00  0.00    +0.000 C 
ATOM     21  C   UNL     1       1.635   3.572  17.390  0.00  0.00    +0.000 C 
ENDBRANCH  19  20
ENDBRANCH  17  19
ENDBRANCH  16  17
ENDBRANCH   4  16
TORSDOF 9
ENDMDL
MODEL 4
REMARK VINA RESULT:      -6.7      2.075      3.750
REMARK  Name = 
REMARK  12 active torsions:
REMARK  status: ('A' for Active; 'I' for Inactive)
REMARK    1  A    between atoms: C_1  and  C_2
REMARK    2  A    between atoms: C_3  and  C_4
REMARK    3  A    between atoms: C_4  and  C_5
REMARK    4  A    between atoms: C_4  and  C_9
REMARK    5  A    between atoms: C_5  and  C_6
REMARK    6  A    between atoms: C_6  and  O_8
REMARK    7  A    between atoms: C_12  and  O_13
REMARK    8  A    between atoms: O_13  and  C_14
REMARK    9  A    between atoms: C_14  and  C_15
REMARK   10  A    between atoms: C_14  and  C_16
REMARK   11  A    between atoms: C_16  and  C_17
REMARK   12  A    between atoms: C_17  and  C_18
REMARK                            x       y       z     vdW  Elec       q    Type
REMARK                         _______ _______ _______ _____ _____    ______ ____
ROOT
ATOM      1  C   UNL     1       5.099   4.115  17.445  0.00  0.00    +0.000 A 
ATOM      2  C   UNL     1       5.245   3.736  18.791  0.00  0.00    +0.000 A 
ATOM      3  C   UNL     1       4.233   3.053  19.469  0.00  0.00    +0.000 A 
ATOM      4  C   UNL     1       3.040   2.754  18.823  0.00  0.00    +0.000 A 
ATOM      5  C   UNL     1       2.862   3.153  17.498  0.00  0.00    +0.000 A 
ATOM      6  C   UNL     1       3.882   3.825  16.815  0.00  0.00    +0.000 A 
ENDROOT
BRANCH   1   7
ATOM      7  C   UNL     1       6.200   4.821  16.656  0.00  0.00    +0.000 C 
BRANCH   7  10
ATOM      8  C   UNL     1       6.167   3.535  12.567  0.00  0.00    +0.000 C 
ATOM      9  C   UNL     1       6.176   3.970  13.964  0.00  0.00    +0.000 C 
ATOM     10  C   UNL     1       6.186   4.363  15.207  0.00  0.00    +0.000 C 
ENDBRANCH   7  10
BRANCH   7  11
ATOM     11  C   UNL     1       6.025   6.342  16.696  0.00  0.00    +0.000 C 
BRANCH  11  12
ATOM     12  C   UNL     1       7.170   7.000  17.416  0.00  0.00    +0.000 C 
ATOM     13  O   UNL     1       7.633   8.087  17.098  0.00  0.00    +0.000 OA
BRANCH  12  14
ATOM     14  O   UNL     1       7.644   6.290  18.462  0.00  0.00    +0.000 OA
ATOM     15  H   UNL     1       7.728   6.809  19.289  0.00  0.00    +0.000 HD
ENDBRANCH  12  14
ENDBRANCH  11  12
ENDBRANCH   7  11
ENDBRANCH   1   7
BRANCH   4  16
ATOM     16  O   UNL     1       2.153   2.022  19.557  0.00  0.00    +0.000 OA
BRANCH  16  17
ATOM     17  C   UNL     1       1.272   2.742  20.426  0.00  0.00    +0.000 C 
ATOM     18  C   UNL     1       1.914   2.889  21.805  0.00  0.00    +0.000 C 
BRANCH  17  19
ATOM     19  C   UNL     1       1.066   4.140  19.816  0.00  0.00    +0.000 C 
BRANCH  19  20
ATOM     20  C   UNL     1       1.625   5.265  20.691  0.00  0.00    +0.000 C 
ATOM     21  C   UNL     1       2.363   6.298  19.850  0.00  0.00    +0.000 C 
ENDBRANCH  19  20
ENDBRANCH  17  19
ENDBRANCH  16  17
ENDBRANCH   4  16
TORSDOF 9
ENDMDL
MODEL 5
REMARK VINA RESULT:      -6.7      2.074      3.868
REMARK  Name = 
REMARK  12 active torsions:
REMARK  status: ('A' for Active; 'I' for Inactive)
REMARK    1  A    between atoms: C_1  and  C_2
REMARK    2  A    between atoms: C_3  and  C_4
REMARK    3  A    between atoms: C_4  and  C_5
REMARK    4  A    between atoms: C_4  and  C_9
REMARK    5  A    between atoms: C_5  and  C_6
REMARK    6  A    between atoms: C_6  and  O_8
REMARK    7  A    between atoms: C_12  and  O_13
REMARK    8  A    between atoms: O_13  and  C_14
REMARK    9  A    between atoms: C_14  and  C_15
REMARK   10  A    between atoms: C_14  and  C_16
REMARK   11  A    between atoms: C_16  and  C_17
REMARK   12  A    between atoms: C_17  and  C_18
REMARK                            x       y       z     vdW  Elec       q    Type
REMARK                         _______ _______ _______ _____ _____    ______ ____
ROOT
ATOM      1  C   UNL     1       4.957   3.934  17.515  0.00  0.00    +0.000 A 
ATOM      2  C   UNL     1       3.717   3.594  16.946  0.00  0.00    +0.000 A 
ATOM      3  C   UNL     1       2.723   2.959  17.693  0.00  0.00    +0.000 A 
ATOM      4  C   UNL     1       2.954   2.626  19.021  0.00  0.00    +0.000 A 
ATOM      5  C   UNL     1       4.191   2.922  19.594  0.00  0.00    +0.000 A 
ATOM      6  C   UNL     1       5.182   3.571  18.850  0.00  0.00    +0.000 A 
ENDROOT
BRANCH   1   7
ATOM      7  C   UNL     1       6.052   4.671  16.746  0.00  0.00    +0.000 C 
BRANCH   7  10
ATOM      8  C   UNL     1       5.984   3.548  12.610  0.00  0.00    +0.000 C 
ATOM      9  C   UNL     1       6.008   3.927  14.023  0.00  0.00    +0.000 C 
ATOM     10  C   UNL     1       6.028   4.270  15.281  0.00  0.00    +0.000 C 
ENDBRANCH   7  10
BRANCH   7  11
ATOM     11  C   UNL     1       5.876   6.189  16.847  0.00  0.00    +0.000 C 
BRANCH  11  12
ATOM     12  C   UNL     1       7.038   6.822  17.564  0.00  0.00    +0.000 C 
ATOM     13  O   UNL     1       7.528   6.368  18.588  0.00  0.00    +0.000 OA
BRANCH  12  14
ATOM     14  O   UNL     1       7.510   7.939  16.969  0.00  0.00    +0.000 OA
ATOM     15  H   UNL     1       8.471   7.914  16.782  0.00  0.00    +0.000 HD
ENDBRANCH  12  14
ENDBRANCH  11  12
ENDBRANCH   7  11
ENDBRANCH   1   7
BRANCH   4  16
ATOM     16  O   UNL     1       1.889   2.075  19.673  0.00  0.00    +0.000 OA
BRANCH  16  17
ATOM     17  C   UNL     1       1.202   2.902  20.618  0.00  0.00    +0.000 C 
ATOM     18  C   UNL     1       2.043   3.046  21.886  0.00  0.00    +0.000 C 
BRANCH  17  19
ATOM     19  C   UNL     1       1.025   4.288  19.972  0.00  0.00    +0.000 C 
BRANCH  19  20
ATOM     20  C   UNL     1       1.845   5.382  20.663  0.00  0.00    +0.000 C 
ATOM     21  C   UNL     1       2.491   6.308  19.644  0.00  0.00    +0.000 C 
ENDBRANCH  19  20
ENDBRANCH  17  19
ENDBRANCH  16  17
ENDBRANCH   4  16
TORSDOF 9
ENDMDL
MODEL 6
REMARK VINA RESULT:      -6.6      1.290      2.413
REMARK  Name = 
REMARK  12 active torsions:
REMARK  status: ('A' for Active; 'I' for Inactive)
REMARK    1  A    between atoms: C_1  and  C_2
REMARK    2  A    between atoms: C_3  and  C_4
REMARK    3  A    between atoms: C_4  and  C_5
REMARK    4  A    between atoms: C_4  and  C_9
REMARK    5  A    between atoms: C_5  and  C_6
REMARK    6  A    between atoms: C_6  and  O_8
REMARK    7  A    between atoms: C_12  and  O_13
REMARK    8  A    between atoms: O_13  and  C_14
REMARK    9  A    between atoms: C_14  and  C_15
REMARK   10  A    between atoms: C_14  and  C_16
REMARK   11  A    between atoms: C_16  and  C_17
REMARK   12  A    between atoms: C_17  and  C_18
REMARK                            x       y       z     vdW  Elec       q    Type
REMARK                         _______ _______ _______ _____ _____    ______ ____
ROOT
ATOM      1  C   UNL     1       5.445   4.782  17.259  0.00  0.00    +0.000 A 
ATOM      2  C   UNL     1       4.281   4.059  16.944  0.00  0.00    +0.000 A 
ATOM      3  C   UNL     1       3.567   3.366  17.923  0.00  0.00    +0.000 A 
ATOM      4  C   UNL     1       4.015   3.359  19.238  0.00  0.00    +0.000 A 
ATOM      5  C   UNL     1       5.187   4.041  19.564  0.00  0.00    +0.000 A 
ATOM      6  C   UNL     1       5.894   4.748  18.585  0.00  0.00    +0.000 A 
ENDROOT
BRANCH   1   7
ATOM      7  C   UNL     1       6.227   5.591  16.226  0.00  0.00    +0.000 C 
BRANCH   7  10
ATOM      8  C   UNL     1       8.272   8.848  18.118  0.00  0.00    +0.000 C 
ATOM      9  C   UNL     1       7.575   7.733  17.475  0.00  0.00    +0.000 C 
ATOM     10  C   UNL     1       6.953   6.744  16.899  0.00  0.00    +0.000 C 
ENDBRANCH   7  10
BRANCH   7  11
ATOM     11  C   UNL     1       7.252   4.719  15.495  0.00  0.00    +0.000 C 
BRANCH  11  12
ATOM     12  C   UNL     1       7.057   4.786  14.005  0.00  0.00    +0.000 C 
ATOM     13  O   UNL     1       7.712   5.512  13.270  0.00  0.00    +0.000 OA
BRANCH  12  14
ATOM     14  O   UNL     1       6.096   3.961  13.537  0.00  0.00    +0.000 OA
ATOM     15  H   UNL     1       5.733   3.350  14.212  0.00  0.00    +0.000 HD
ENDBRANCH  12  14
ENDBRANCH  11  12
ENDBRANCH   7  11
ENDBRANCH   1   7
BRANCH   4  16
ATOM     16  O   UNL     1       3.201   2.711  20.122  0.00  0.00    +0.000 OA
BRANCH  16  17
ATOM     17  C   UNL     1       1.995   3.378  20.510  0.00  0.00    +0.000 C 
ATOM     18  C   UNL     1       1.280   2.566  21.589  0.00  0.00    +0.000 C 
BRANCH  17  19
ATOM     19  C   UNL     1       2.392   4.746  21.092  0.00  0.00    +0.000 C 
BRANCH  19  20
ATOM     20  C   UNL     1       1.639   5.914  20.449  0.00  0.00    +0.000 C 
ATOM     21  C   UNL     1       2.539   6.687  19.495  0.00  0.00    +0.000 C 
ENDBRANCH  19  20
ENDBRANCH  17  19
ENDBRANCH  16  17
ENDBRANCH   4  16
TORSDOF 9
ENDMDL
MODEL 7
REMARK VINA RESULT:      -6.5      2.137      6.363
REMARK  Name = 
REMARK  12 active torsions:
REMARK  status: ('A' for Active; 'I' for Inactive)
REMARK    1  A    between atoms: C_1  and  C_2
REMARK    2  A    between atoms: C_3  and  C_4
REMARK    3  A    between atoms: C_4  and  C_5
REMARK    4  A    between atoms: C_4  and  C_9
REMARK    5  A    between atoms: C_5  and  C_6
REMARK    6  A    between atoms: C_6  and  O_8
REMARK    7  A    between atoms: C_12  and  O_13
REMARK    8  A    between atoms: O_13  and  C_14
REMARK    9  A    between atoms: C_14  and  C_15
REMARK   10  A    between atoms: C_14  and  C_16
REMARK   11  A    between atoms: C_16  and  C_17
REMARK   12  A    between atoms: C_17  and  C_18
REMARK                            x       y       z     vdW  Elec       q    Type
REMARK                         _______ _______ _______ _____ _____    ______ ____
ROOT
ATOM      1  C   UNL     1       2.926   5.434  19.192  0.00  0.00    +0.000 A 
ATOM      2  C   UNL     1       3.258   4.266  18.483  0.00  0.00    +0.000 A 
ATOM      3  C   UNL     1       3.988   4.320  17.294  0.00  0.00    +0.000 A 
ATOM      4  C   UNL     1       4.384   5.545  16.774  0.00  0.00    +0.000 A 
ATOM      5  C   UNL     1       4.034   6.717  17.444  0.00  0.00    +0.000 A 
ATOM      6  C   UNL     1       3.314   6.662  18.643  0.00  0.00    +0.000 A 
ENDROOT
BRANCH   1   7
ATOM      7  C   UNL     1       2.170   5.414  20.520  0.00  0.00    +0.000 C 
BRANCH   7  10
ATOM      8  C   UNL     1       0.544   9.287  21.372  0.00  0.00    +0.000 C 
ATOM      9  C   UNL     1       1.102   7.967  21.078  0.00  0.00    +0.000 C 
ATOM     10  C   UNL     1       1.595   6.789  20.819  0.00  0.00    +0.000 C 
ENDBRANCH   7  10
BRANCH   7  11
ATOM     11  C   UNL     1       1.028   4.394  20.494  0.00  0.00    +0.000 C 
BRANCH  11  12
ATOM     12  C   UNL     1       1.482   3.059  21.018  0.00  0.00    +0.000 C 
ATOM     13  O   UNL     1       1.395   2.019  20.383  0.00  0.00    +0.000 OA
BRANCH  12  14
ATOM     14  O   UNL     1       2.012   3.107  22.260  0.00  0.00    +0.000 OA
ATOM     15  H   UNL     1       1.507   3.666  22.886  0.00  0.00    +0.000 HD
ENDBRANCH  12  14
ENDBRANCH  11  12
ENDBRANCH   7  11
ENDBRANCH   1   7
BRANCH   4  16
ATOM     16  O   UNL     1       5.154   5.474  15.649  0.00  0.00    +0.000 OA
BRANCH  16  17
ATOM     17  C   UNL     1       6.076   4.383  15.555  0.00  0.00    +0.000 C 
ATOM     18  C   UNL     1       6.246   3.974  14.093  0.00  0.00    +0.000 C 
BRANCH  17  19
ATOM     19  C   UNL     1       7.429   4.877  16.099  0.00  0.00    +0.000 C 
BRANCH  19  20
ATOM     20  C   UNL     1       7.637   4.547  17.580  0.00  0.00    +0.000 C 
ATOM     21  C   UNL     1       7.585   5.806  18.434  0.00  0.00    +0.000 C 
ENDBRANCH  19  20
ENDBRANCH  17  19
ENDBRANCH  16  17
ENDBRANCH   4  16
TORSDOF 9
ENDMDL
MODEL 8
REMARK VINA RESULT:      -6.4      2.223      6.395
REMARK  Name = 
REMARK  12 active torsions:
REMARK  status: ('A' for Active; 'I' for Inactive)
REMARK    1  A    between atoms: C_1  and  C_2
REMARK    2  A    between atoms: C_3  and  C_4
REMARK    3  A    between atoms: C_4  and  C_5
REMARK    4  A    between atoms: C_4  and  C_9
REMARK    5  A    between atoms: C_5  and  C_6
REMARK    6  A    between atoms: C_6  and  O_8
REMARK    7  A    between atoms: C_12  and  O_13
REMARK    8  A    between atoms: O_13  and  C_14
REMARK    9  A    between atoms: C_14  and  C_15
REMARK   10  A    between atoms: C_14  and  C_16
REMARK   11  A    between atoms: C_16  and  C_17
REMARK   12  A    between atoms: C_17  and  C_18
REMARK                            x       y       z     vdW  Elec       q    Type
REMARK                         _______ _______ _______ _____ _____    ______ ____
ROOT
ATOM      1  C   UNL     1       4.388   5.808  18.054  0.00  0.00    +0.000 A 
ATOM      2  C   UNL     1       4.429   6.402  16.780  0.00  0.00    +0.000 A 
ATOM      3  C   UNL     1       5.443   6.101  15.869  0.00  0.00    +0.000 A 
ATOM      4  C   UNL     1       6.455   5.217  16.220  0.00  0.00    +0.000 A 
ATOM      5  C   UNL     1       6.452   4.644  17.491  0.00  0.00    +0.000 A 
ATOM      6  C   UNL     1       5.427   4.935  18.399  0.00  0.00    +0.000 A 
ENDROOT
BRANCH   1   7
ATOM      7  C   UNL     1       3.270   6.075  19.061  0.00  0.00    +0.000 C 
BRANCH   7  10
ATOM      8  C   UNL     1       1.169   9.669  18.044  0.00  0.00    +0.000 C 
ATOM      9  C   UNL     1       1.890   8.444  18.390  0.00  0.00    +0.000 C 
ATOM     10  C   UNL     1       2.528   7.351  18.699  0.00  0.00    +0.000 C 
ENDBRANCH   7  10
BRANCH   7  11
ATOM     11  C   UNL     1       2.271   4.915  19.102  0.00  0.00    +0.000 C 
BRANCH  11  12
ATOM     12  C   UNL     1       2.309   4.215  20.434  0.00  0.00    +0.000 C 
ATOM     13  O   UNL     1       2.210   3.003  20.562  0.00  0.00    +0.000 OA
BRANCH  12  14
ATOM     14  O   UNL     1       2.477   5.043  21.487  0.00  0.00    +0.000 OA
ATOM     15  H   UNL     1       3.145   4.734  22.133  0.00  0.00    +0.000 HD
ENDBRANCH  12  14
ENDBRANCH  11  12
ENDBRANCH   7  11
ENDBRANCH   1   7
BRANCH   4  16
ATOM     16  O   UNL     1       7.351   4.941  15.227  0.00  0.00    +0.000 OA
BRANCH  16  17
ATOM     17  C   UNL     1       6.869   4.988  13.880  0.00  0.00    +0.000 C 
ATOM     18  C   UNL     1       8.039   5.204  12.921  0.00  0.00    +0.000 C 
BRANCH  17  19
ATOM     19  C   UNL     1       6.217   3.626  13.578  0.00  0.00    +0.000 C 
BRANCH  19  20
ATOM     20  C   UNL     1       6.072   3.350  12.079  0.00  0.00    +0.000 C 
ATOM     21  C   UNL     1       4.606   3.249  11.680  0.00  0.00    +0.000 C 
ENDBRANCH  19  20
ENDBRANCH  17  19
ENDBRANCH  16  17
ENDBRANCH   4  16
TORSDOF 9
ENDMDL
MODEL 9
REMARK VINA RESULT:      -6.4      1.507      2.612
REMARK  Name = 
REMARK  12 active torsions:
REMARK  status: ('A' for Active; 'I' for Inactive)
REMARK    1  A    between atoms: C_1  and  C_2
REMARK    2  A    between atoms: C_3  and  C_4
REMARK    3  A    between atoms: C_4  and  C_5
REMARK    4  A    between atoms: C_4  and  C_9
REMARK    5  A    between atoms: C_5  and  C_6
REMARK    6  A    between atoms: C_6  and  O_8
REMARK    7  A    between atoms: C_12  and  O_13
REMARK    8  A    between atoms: O_13  and  C_14
REMARK    9  A    between atoms: C_14  and  C_15
REMARK   10  A    between atoms: C_14  and  C_16
REMARK   11  A    between atoms: C_16  and  C_17
REMARK   12  A    between atoms: C_17  and  C_18
REMARK                            x       y       z     vdW  Elec       q    Type
REMARK                         _______ _______ _______ _____ _____    ______ ____
ROOT
ATOM      1  C   UNL     1       4.596   4.047  17.050  0.00  0.00    +0.000 A 
ATOM      2  C   UNL     1       3.316   3.579  16.705  0.00  0.00    +0.000 A 
ATOM      3  C   UNL     1       2.504   2.928  17.635  0.00  0.00    +0.000 A 
ATOM      4  C   UNL     1       2.962   2.709  18.928  0.00  0.00    +0.000 A 
ATOM      5  C   UNL     1       4.242   3.135  19.280  0.00  0.00    +0.000 A 
ATOM      6  C   UNL     1       5.051   3.800  18.352  0.00  0.00    +0.000 A 
ENDROOT
BRANCH   1   7
ATOM      7  C   UNL     1       5.496   4.805  16.076  0.00  0.00    +0.000 C 
BRANCH   7  10
ATOM      8  C   UNL     1       7.930   7.637  18.180  0.00  0.00    +0.000 C 
ATOM      9  C   UNL     1       7.097   6.669  17.466  0.00  0.00    +0.000 C 
ATOM     10  C   UNL     1       6.358   5.808  16.825  0.00  0.00    +0.000 C 
ENDBRANCH   7  10
BRANCH   7  11
ATOM     11  C   UNL     1       6.408   3.848  15.302  0.00  0.00    +0.000 C 
BRANCH  11  12
ATOM     12  C   UNL     1       6.744   4.400  13.943  0.00  0.00    +0.000 C 
ATOM     13  O   UNL     1       6.231   4.002  12.907  0.00  0.00    +0.000 OA
BRANCH  12  14
ATOM     14  O   UNL     1       7.660   5.392  13.963  0.00  0.00    +0.000 OA
ATOM     15  H   UNL     1       7.985   5.651  13.075  0.00  0.00    +0.000 HD
ENDBRANCH  12  14
ENDBRANCH  11  12
ENDBRANCH   7  11
ENDBRANCH   1   7
BRANCH   4  16
ATOM     16  O   UNL     1       2.058   2.130  19.771  0.00  0.00    +0.000 OA
BRANCH  16  17
ATOM     17  C   UNL     1       1.316   3.001  20.632  0.00  0.00    +0.000 C 
ATOM     18  C   UNL     1       2.098   3.238  21.924  0.00  0.00    +0.000 C 
BRANCH  17  19
ATOM     19  C   UNL     1       1.147   4.342  19.895  0.00  0.00    +0.000 C 
BRANCH  19  20
ATOM     20  C   UNL     1       1.774   5.522  20.642  0.00  0.00    +0.000 C 
ATOM     21  C   UNL     1       2.474   6.471  19.679  0.00  0.00    +0.000 C 
ENDBRANCH  19  20
ENDBRANCH  17  19
ENDBRANCH  16  17
ENDBRANCH   4  16
TORSDOF 9
ENDMDL
