MODEL 1
REMARK VINA RESULT:      -8.1      0.000      0.000
REMARK  Name = 
REMARK  7 active torsions:
REMARK  status: ('A' for Active; 'I' for Inactive)
REMARK    1  A    between atoms: O_1  and  C_2
REMARK    2  A    between atoms: C_2  and  C_3
REMARK    3  A    between atoms: C_2  and  C_13
REMARK    4  A    between atoms: C_2  and  C_19
REMARK    5  A    between atoms: C_3  and  N_4
REMARK    6  A    between atoms: N_4  and  C_5
REMARK    7  A    between atoms: C_5  and  C_6
REMARK                            x       y       z     vdW  Elec       q    Type
REMARK                         _______ _______ _______ _____ _____    ______ ____
ROOT
ATOM      1  C   UNL     1       3.164   5.795  19.021  0.00  0.00    +0.000 C 
ENDROOT
BRANCH   1   2
ATOM      2  C   UNL     1       2.514   7.187  18.981  0.00  0.00    +0.000 A 
ATOM      3  C   UNL     1       1.819   7.669  20.112  0.00  0.00    +0.000 A 
ATOM      4  C   UNL     1       1.163   8.905  20.097  0.00  0.00    +0.000 A 
ATOM      5  C   UNL     1       1.180   9.672  18.943  0.00  0.00    +0.000 A 
ATOM      6  F   UNL     1       0.538  10.847  18.918  0.00  0.00    +0.000 F 
ATOM      7  C   UNL     1       1.841   9.227  17.805  0.00  0.00    +0.000 A 
ATOM      8  C   UNL     1       2.505   7.993  17.825  0.00  0.00    +0.000 A 
ENDBRANCH   1   2
BRANCH   1   9
ATOM      9  C   UNL     1       2.341   4.702  19.740  0.00  0.00    +0.000 A 
ATOM     10  C   UNL     1       2.623   4.363  21.076  0.00  0.00    +0.000 A 
ATOM     11  C   UNL     1       2.007   3.267  21.685  0.00  0.00    +0.000 A 
ATOM     12  C   UNL     1       1.091   2.498  20.975  0.00  0.00    +0.000 A 
ATOM     13  C   UNL     1       0.745   2.856  19.676  0.00  0.00    +0.000 A 
ATOM     14  C   UNL     1       1.344   3.964  19.072  0.00  0.00    +0.000 A 
ENDBRANCH   1   9
BRANCH   1  15
ATOM     15  O   UNL     1       4.388   5.966  19.775  0.00  0.00    +0.000 OA
ATOM     16  H   UNL     1       4.715   5.054  19.905  0.00  0.00    +0.000 HD
ENDBRANCH   1  15
BRANCH   1  17
ATOM     17  C   UNL     1       3.641   5.286  17.596  0.00  0.00    +0.000 C 
BRANCH  17  18
ATOM     18  N   UNL     1       4.645   4.194  17.724  0.00  0.00    +0.000 NA
ATOM     19  H   UNL     1       4.210   3.303  17.466  0.00  0.00    +0.000 HD
BRANCH  18  20
ATOM     20  C   UNL     1       5.796   4.397  16.848  0.00  0.00    +0.000 C 
BRANCH  20  21
ATOM     21  C   UNL     1       6.605   5.583  17.328  0.00  0.00    +0.000 A 
ATOM     22  C   UNL     1       7.491   5.455  18.413  0.00  0.00    +0.000 A 
ATOM     23  C   UNL     1       8.208   6.563  18.876  0.00  0.00    +0.000 A 
ATOM     24  C   UNL     1       8.038   7.803  18.266  0.00  0.00    +0.000 A 
ATOM     25 CL   UNL     1       8.918   9.167  18.840  0.00  0.00    +0.000 Cl
ATOM     26  C   UNL     1       7.155   7.948  17.198  0.00  0.00    +0.000 A 
ATOM     27  C   UNL     1       6.438   6.841  16.735  0.00  0.00    +0.000 A 
ENDBRANCH  20  21
ENDBRANCH  18  20
ENDBRANCH  17  18
ENDBRANCH   1  17
TORSDOF 7
ENDMDL
MODEL 2
REMARK VINA RESULT:      -8.0      2.305      3.048
REMARK  Name = 
REMARK  7 active torsions:
REMARK  status: ('A' for Active; 'I' for Inactive)
REMARK    1  A    between atoms: O_1  and  C_2
REMARK    2  A    between atoms: C_2  and  C_3
REMARK    3  A    between atoms: C_2  and  C_13
REMARK    4  A    between atoms: C_2  and  C_19
REMARK    5  A    between atoms: C_3  and  N_4
REMARK    6  A    between atoms: N_4  and  C_5
REMARK    7  A    between atoms: C_5  and  C_6
REMARK                            x       y       z     vdW  Elec       q    Type
REMARK                         _______ _______ _______ _____ _____    ______ ____
ROOT
ATOM      1  C   UNL     1       3.084   6.039  18.989  0.00  0.00    +0.000 C 
ENDROOT
BRANCH   1   2
ATOM      2  C   UNL     1       2.261   7.333  19.076  0.00  0.00    +0.000 A 
ATOM      3  C   UNL     1       2.054   8.113  17.916  0.00  0.00    +0.000 A 
ATOM      4  C   UNL     1       1.361   9.327  17.963  0.00  0.00    +0.000 A 
ATOM      5  C   UNL     1       0.876   9.789  19.176  0.00  0.00    +0.000 A 
ATOM      6  F   UNL     1       0.228  10.960  19.229  0.00  0.00    +0.000 F 
ATOM      7  C   UNL     1       1.071   9.059  20.342  0.00  0.00    +0.000 A 
ATOM      8  C   UNL     1       1.757   7.839  20.291  0.00  0.00    +0.000 A 
ENDBRANCH   1   2
BRANCH   1   9
ATOM      9  C   UNL     1       2.258   4.736  18.891  0.00  0.00    +0.000 A 
ATOM     10  C   UNL     1       1.386   4.367  19.932  0.00  0.00    +0.000 A 
ATOM     11  C   UNL     1       0.763   3.117  19.938  0.00  0.00    +0.000 A 
ATOM     12  C   UNL     1       0.990   2.219  18.901  0.00  0.00    +0.000 A 
ATOM     13  C   UNL     1       1.793   2.588  17.827  0.00  0.00    +0.000 A 
ATOM     14  C   UNL     1       2.401   3.846  17.808  0.00  0.00    +0.000 A 
ENDBRANCH   1   9
BRANCH   1  15
ATOM     15  O   UNL     1       3.828   5.975  20.229  0.00  0.00    +0.000 OA
ATOM     16  H   UNL     1       4.587   5.395  20.020  0.00  0.00    +0.000 HD
ENDBRANCH   1  15
BRANCH   1  17
ATOM     17  C   UNL     1       4.196   6.079  17.858  0.00  0.00    +0.000 C 
BRANCH  17  18
ATOM     18  N   UNL     1       5.553   5.869  18.431  0.00  0.00    +0.000 NA
ATOM     19  H   UNL     1       5.497   5.900  19.453  0.00  0.00    +0.000 HD
BRANCH  18  20
ATOM     20  C   UNL     1       6.117   4.574  18.058  0.00  0.00    +0.000 C 
BRANCH  20  21
ATOM     21  C   UNL     1       6.272   4.495  16.554  0.00  0.00    +0.000 A 
ATOM     22  C   UNL     1       5.433   3.664  15.790  0.00  0.00    +0.000 A 
ATOM     23  C   UNL     1       5.604   3.566  14.405  0.00  0.00    +0.000 A 
ATOM     24  C   UNL     1       6.616   4.291  13.779  0.00  0.00    +0.000 A 
ATOM     25 CL   UNL     1       6.827   4.166  12.075  0.00  0.00    +0.000 Cl
ATOM     26  C   UNL     1       7.462   5.109  14.524  0.00  0.00    +0.000 A 
ATOM     27  C   UNL     1       7.291   5.207  15.907  0.00  0.00    +0.000 A 
ENDBRANCH  20  21
ENDBRANCH  18  20
ENDBRANCH  17  18
ENDBRANCH   1  17
TORSDOF 7
ENDMDL
MODEL 3
REMARK VINA RESULT:      -7.9      2.339      3.025
REMARK  Name = 
REMARK  7 active torsions:
REMARK  status: ('A' for Active; 'I' for Inactive)
REMARK    1  A    between atoms: O_1  and  C_2
REMARK    2  A    between atoms: C_2  and  C_3
REMARK    3  A    between atoms: C_2  and  C_13
REMARK    4  A    between atoms: C_2  and  C_19
REMARK    5  A    between atoms: C_3  and  N_4
REMARK    6  A    between atoms: N_4  and  C_5
REMARK    7  A    between atoms: C_5  and  C_6
REMARK                            x       y       z     vdW  Elec       q    Type
REMARK                         _______ _______ _______ _____ _____    ______ ____
ROOT
ATOM      1  C   UNL     1       2.945   6.244  18.959  0.00  0.00    +0.000 C 
ENDROOT
BRANCH   1   2
ATOM      2  C   UNL     1       2.156   7.558  19.063  0.00  0.00    +0.000 A 
ATOM      3  C   UNL     1       2.038   8.397  17.932  0.00  0.00    +0.000 A 
ATOM      4  C   UNL     1       1.379   9.630  18.000  0.00  0.00    +0.000 A 
ATOM      5  C   UNL     1       0.840  10.050  19.205  0.00  0.00    +0.000 A 
ATOM      6  F   UNL     1       0.225  11.237  19.279  0.00  0.00    +0.000 F 
ATOM      7  C   UNL     1       0.948   9.261  20.344  0.00  0.00    +0.000 A 
ATOM      8  C   UNL     1       1.599   8.023  20.272  0.00  0.00    +0.000 A 
ENDBRANCH   1   2
BRANCH   1   9
ATOM      9  C   UNL     1       2.093   4.956  19.024  0.00  0.00    +0.000 A 
ATOM     10  C   UNL     1       1.560   4.516  20.250  0.00  0.00    +0.000 A 
ATOM     11  C   UNL     1       0.935   3.272  20.357  0.00  0.00    +0.000 A 
ATOM     12  C   UNL     1       0.819   2.451  19.240  0.00  0.00    +0.000 A 
ATOM     13  C   UNL     1       1.275   2.894  18.003  0.00  0.00    +0.000 A 
ATOM     14  C   UNL     1       1.882   4.147  17.889  0.00  0.00    +0.000 A 
ENDBRANCH   1   9
BRANCH   1  15
ATOM     15  O   UNL     1       3.819   6.230  20.113  0.00  0.00    +0.000 OA
ATOM     16  H   UNL     1       3.759   7.140  20.466  0.00  0.00    +0.000 HD
ENDBRANCH   1  15
BRANCH   1  17
ATOM     17  C   UNL     1       3.926   6.200  17.714  0.00  0.00    +0.000 C 
BRANCH  17  18
ATOM     18  N   UNL     1       5.310   5.844  18.133  0.00  0.00    +0.000 NA
ATOM     19  H   UNL     1       5.384   5.922  19.151  0.00  0.00    +0.000 HD
BRANCH  18  20
ATOM     20  C   UNL     1       5.664   4.475  17.765  0.00  0.00    +0.000 C 
BRANCH  20  21
ATOM     21  C   UNL     1       6.062   4.422  16.305  0.00  0.00    +0.000 A 
ATOM     22  C   UNL     1       7.182   5.135  15.841  0.00  0.00    +0.000 A 
ATOM     23  C   UNL     1       7.524   5.113  14.485  0.00  0.00    +0.000 A 
ATOM     24  C   UNL     1       6.746   4.386  13.587  0.00  0.00    +0.000 A 
ATOM     25 CL   UNL     1       7.165   4.363  11.917  0.00  0.00    +0.000 Cl
ATOM     26  C   UNL     1       5.627   3.685  14.029  0.00  0.00    +0.000 A 
ATOM     27  C   UNL     1       5.285   3.707  15.384  0.00  0.00    +0.000 A 
ENDBRANCH  20  21
ENDBRANCH  18  20
ENDBRANCH  17  18
ENDBRANCH   1  17
TORSDOF 7
ENDMDL
MODEL 4
REMARK VINA RESULT:      -7.9      0.139      1.675
REMARK  Name = 
REMARK  7 active torsions:
REMARK  status: ('A' for Active; 'I' for Inactive)
REMARK    1  A    between atoms: O_1  and  C_2
REMARK    2  A    between atoms: C_2  and  C_3
REMARK    3  A    between atoms: C_2  and  C_13
REMARK    4  A    between atoms: C_2  and  C_19
REMARK    5  A    between atoms: C_3  and  N_4
REMARK    6  A    between atoms: N_4  and  C_5
REMARK    7  A    between atoms: C_5  and  C_6
REMARK                            x       y       z     vdW  Elec       q    Type
REMARK                         _______ _______ _______ _____ _____    ______ ____
ROOT
ATOM      1  C   UNL     1       3.260   5.803  19.009  0.00  0.00    +0.000 C 
ENDROOT
BRANCH   1   2
ATOM      2  C   UNL     1       2.488   7.131  19.016  0.00  0.00    +0.000 A 
ATOM      3  C   UNL     1       2.490   7.950  17.865  0.00  0.00    +0.000 A 
ATOM      4  C   UNL     1       1.849   9.194  17.851  0.00  0.00    +0.000 A 
ATOM      5  C   UNL     1       1.208   9.645  18.993  0.00  0.00    +0.000 A 
ATOM      6  F   UNL     1       0.609  10.843  18.989  0.00  0.00    +0.000 F 
ATOM      7  C   UNL     1       1.196   8.876  20.150  0.00  0.00    +0.000 A 
ATOM      8  C   UNL     1       1.830   7.627  20.160  0.00  0.00    +0.000 A 
ENDBRANCH   1   2
BRANCH   1   9
ATOM      9  C   UNL     1       2.545   4.619  19.700  0.00  0.00    +0.000 A 
ATOM     10  C   UNL     1       1.443   3.997  19.084  0.00  0.00    +0.000 A 
ATOM     11  C   UNL     1       0.683   3.044  19.766  0.00  0.00    +0.000 A 
ATOM     12  C   UNL     1       1.016   2.687  21.068  0.00  0.00    +0.000 A 
ATOM     13  C   UNL     1       2.142   3.237  21.672  0.00  0.00    +0.000 A 
ATOM     14  C   UNL     1       2.916   4.175  20.984  0.00  0.00    +0.000 A 
ENDBRANCH   1   9
BRANCH   1  15
ATOM     15  O   UNL     1       4.472   6.060  19.758  0.00  0.00    +0.000 OA
ATOM     16  H   UNL     1       4.396   7.000  20.014  0.00  0.00    +0.000 HD
ENDBRANCH   1  15
BRANCH   1  17
ATOM     17  C   UNL     1       3.765   5.380  17.565  0.00  0.00    +0.000 C 
BRANCH  17  18
ATOM     18  N   UNL     1       4.696   4.222  17.640  0.00  0.00    +0.000 NA
ATOM     19  H   UNL     1       4.231   3.389  17.267  0.00  0.00    +0.000 HD
BRANCH  18  20
ATOM     20  C   UNL     1       5.912   4.438  16.859  0.00  0.00    +0.000 C 
BRANCH  20  21
ATOM     21  C   UNL     1       6.651   5.651  17.383  0.00  0.00    +0.000 A 
ATOM     22  C   UNL     1       6.494   6.906  16.768  0.00  0.00    +0.000 A 
ATOM     23  C   UNL     1       7.207   8.016  17.233  0.00  0.00    +0.000 A 
ATOM     24  C   UNL     1       8.083   7.877  18.306  0.00  0.00    +0.000 A 
ATOM     25 CL   UNL     1       8.964   9.243  18.874  0.00  0.00    +0.000 Cl
ATOM     26  C   UNL     1       8.258   6.638  18.917  0.00  0.00    +0.000 A 
ATOM     27  C   UNL     1       7.546   5.529  18.453  0.00  0.00    +0.000 A 
ENDBRANCH  20  21
ENDBRANCH  18  20
ENDBRANCH  17  18
ENDBRANCH   1  17
TORSDOF 7
ENDMDL
MODEL 5
REMARK VINA RESULT:      -7.8      0.317      1.395
REMARK  Name = 
REMARK  7 active torsions:
REMARK  status: ('A' for Active; 'I' for Inactive)
REMARK    1  A    between atoms: O_1  and  C_2
REMARK    2  A    between atoms: C_2  and  C_3
REMARK    3  A    between atoms: C_2  and  C_13
REMARK    4  A    between atoms: C_2  and  C_19
REMARK    5  A    between atoms: C_3  and  N_4
REMARK    6  A    between atoms: N_4  and  C_5
REMARK    7  A    between atoms: C_5  and  C_6
REMARK                            x       y       z     vdW  Elec       q    Type
REMARK                         _______ _______ _______ _____ _____    ______ ____
ROOT
ATOM      1  C   UNL     1       3.271   5.724  18.899  0.00  0.00    +0.000 C 
ENDROOT
BRANCH   1   2
ATOM      2  C   UNL     1       2.525   7.067  18.928  0.00  0.00    +0.000 A 
ATOM      3  C   UNL     1       2.521   7.894  17.782  0.00  0.00    +0.000 A 
ATOM      4  C   UNL     1       1.905   9.150  17.787  0.00  0.00    +0.000 A 
ATOM      5  C   UNL     1       1.293   9.606  18.944  0.00  0.00    +0.000 A 
ATOM      6  F   UNL     1       0.718  10.815  18.958  0.00  0.00    +0.000 F 
ATOM      7  C   UNL     1       1.287   8.829  20.096  0.00  0.00    +0.000 A 
ATOM      8  C   UNL     1       1.897   7.568  20.087  0.00  0.00    +0.000 A 
ENDBRANCH   1   2
BRANCH   1   9
ATOM      9  C   UNL     1       2.467   4.511  19.419  0.00  0.00    +0.000 A 
ATOM     10  C   UNL     1       1.577   3.829  18.567  0.00  0.00    +0.000 A 
ATOM     11  C   UNL     1       0.721   2.843  19.063  0.00  0.00    +0.000 A 
ATOM     12  C   UNL     1       0.746   2.512  20.413  0.00  0.00    +0.000 A 
ATOM     13  C   UNL     1       1.665   3.122  21.260  0.00  0.00    +0.000 A 
ATOM     14  C   UNL     1       2.538   4.094  20.762  0.00  0.00    +0.000 A 
ENDBRANCH   1   9
BRANCH   1  15
ATOM     15  O   UNL     1       4.401   5.894  19.787  0.00  0.00    +0.000 OA
ATOM     16  H   UNL     1       4.768   4.993  19.878  0.00  0.00    +0.000 HD
ENDBRANCH   1  15
BRANCH   1  17
ATOM     17  C   UNL     1       3.917   5.399  17.487  0.00  0.00    +0.000 C 
BRANCH  17  18
ATOM     18  N   UNL     1       4.846   4.238  17.577  0.00  0.00    +0.000 NA
ATOM     19  H   UNL     1       4.379   3.403  17.212  0.00  0.00    +0.000 HD
BRANCH  18  20
ATOM     20  C   UNL     1       6.064   4.443  16.796  0.00  0.00    +0.000 C 
BRANCH  20  21
ATOM     21  C   UNL     1       6.824   5.637  17.334  0.00  0.00    +0.000 A 
ATOM     22  C   UNL     1       7.598   5.526  18.502  0.00  0.00    +0.000 A 
ATOM     23  C   UNL     1       8.269   6.641  19.016  0.00  0.00    +0.000 A 
ATOM     24  C   UNL     1       8.164   7.871  18.370  0.00  0.00    +0.000 A 
ATOM     25 CL   UNL     1       8.987   9.243  19.005  0.00  0.00    +0.000 Cl
ATOM     26  C   UNL     1       7.391   7.999  17.218  0.00  0.00    +0.000 A 
ATOM     27  C   UNL     1       6.721   6.885  16.705  0.00  0.00    +0.000 A 
ENDBRANCH  20  21
ENDBRANCH  18  20
ENDBRANCH  17  18
ENDBRANCH   1  17
TORSDOF 7
ENDMDL
MODEL 6
REMARK VINA RESULT:      -7.8      0.388      1.418
REMARK  Name = 
REMARK  7 active torsions:
REMARK  status: ('A' for Active; 'I' for Inactive)
REMARK    1  A    between atoms: O_1  and  C_2
REMARK    2  A    between atoms: C_2  and  C_3
REMARK    3  A    between atoms: C_2  and  C_13
REMARK    4  A    between atoms: C_2  and  C_19
REMARK    5  A    between atoms: C_3  and  N_4
REMARK    6  A    between atoms: N_4  and  C_5
REMARK    7  A    between atoms: C_5  and  C_6
REMARK                            x       y       z     vdW  Elec       q    Type
REMARK                         _______ _______ _______ _____ _____    ______ ____
ROOT
ATOM      1  C   UNL     1       3.303   5.718  18.857  0.00  0.00    +0.000 C 
ENDROOT
BRANCH   1   2
ATOM      2  C   UNL     1       2.604   7.085  18.917  0.00  0.00    +0.000 A 
ATOM      3  C   UNL     1       1.957   7.490  20.106  0.00  0.00    +0.000 A 
ATOM      4  C   UNL     1       1.258   8.701  20.183  0.00  0.00    +0.000 A 
ATOM      5  C   UNL     1       1.185   9.519  19.068  0.00  0.00    +0.000 A 
ATOM      6  F   UNL     1       0.502  10.669  19.132  0.00  0.00    +0.000 F 
ATOM      7  C   UNL     1       1.797   9.149  17.876  0.00  0.00    +0.000 A 
ATOM      8  C   UNL     1       2.503   7.942  17.803  0.00  0.00    +0.000 A 
ENDBRANCH   1   2
BRANCH   1   9
ATOM      9  C   UNL     1       2.446   4.517  19.317  0.00  0.00    +0.000 A 
ATOM     10  C   UNL     1       1.545   3.904  18.426  0.00  0.00    +0.000 A 
ATOM     11  C   UNL     1       0.644   2.934  18.870  0.00  0.00    +0.000 A 
ATOM     12  C   UNL     1       0.635   2.548  20.206  0.00  0.00    +0.000 A 
ATOM     13  C   UNL     1       1.563   3.089  21.090  0.00  0.00    +0.000 A 
ATOM     14  C   UNL     1       2.480   4.045  20.644  0.00  0.00    +0.000 A 
ENDBRANCH   1   9
BRANCH   1  15
ATOM     15  O   UNL     1       4.418   5.817  19.775  0.00  0.00    +0.000 OA
ATOM     16  H   UNL     1       5.205   5.724  19.203  0.00  0.00    +0.000 HD
ENDBRANCH   1  15
BRANCH   1  17
ATOM     17  C   UNL     1       3.971   5.418  17.449  0.00  0.00    +0.000 C 
BRANCH  17  18
ATOM     18  N   UNL     1       4.881   4.243  17.526  0.00  0.00    +0.000 NA
ATOM     19  H   UNL     1       4.424   3.433  17.097  0.00  0.00    +0.000 HD
BRANCH  18  20
ATOM     20  C   UNL     1       6.139   4.470  16.819  0.00  0.00    +0.000 C 
BRANCH  20  21
ATOM     21  C   UNL     1       6.830   5.694  17.380  0.00  0.00    +0.000 A 
ATOM     22  C   UNL     1       6.704   6.942  16.744  0.00  0.00    +0.000 A 
ATOM     23  C   UNL     1       7.375   8.063  17.245  0.00  0.00    +0.000 A 
ATOM     24  C   UNL     1       8.178   7.941  18.376  0.00  0.00    +0.000 A 
ATOM     25 CL   UNL     1       9.006   9.321  18.989  0.00  0.00    +0.000 Cl
ATOM     26  C   UNL     1       8.322   6.709  19.010  0.00  0.00    +0.000 A 
ATOM     27  C   UNL     1       7.652   5.590  18.509  0.00  0.00    +0.000 A 
ENDBRANCH  20  21
ENDBRANCH  18  20
ENDBRANCH  17  18
ENDBRANCH   1  17
TORSDOF 7
ENDMDL
MODEL 7
REMARK VINA RESULT:      -7.8      2.338      2.923
REMARK  Name = 
REMARK  7 active torsions:
REMARK  status: ('A' for Active; 'I' for Inactive)
REMARK    1  A    between atoms: O_1  and  C_2
REMARK    2  A    between atoms: C_2  and  C_3
REMARK    3  A    between atoms: C_2  and  C_13
REMARK    4  A    between atoms: C_2  and  C_19
REMARK    5  A    between atoms: C_3  and  N_4
REMARK    6  A    between atoms: N_4  and  C_5
REMARK    7  A    between atoms: C_5  and  C_6
REMARK                            x       y       z     vdW  Elec       q    Type
REMARK                         _______ _______ _______ _____ _____    ______ ____
ROOT
ATOM      1  C   UNL     1       2.970   6.249  18.950  0.00  0.00    +0.000 C 
ENDROOT
BRANCH   1   2
ATOM      2  C   UNL     1       2.216   7.587  19.011  0.00  0.00    +0.000 A 
ATOM      3  C   UNL     1       1.661   8.024  20.234  0.00  0.00    +0.000 A 
ATOM      4  C   UNL     1       0.917   9.206  20.320  0.00  0.00    +0.000 A 
ATOM      5  C   UNL     1       0.704   9.962  19.179  0.00  0.00    +0.000 A 
ATOM      6  F   UNL     1      -0.023  11.085  19.253  0.00  0.00    +0.000 F 
ATOM      7  C   UNL     1       1.221   9.559  17.954  0.00  0.00    +0.000 A 
ATOM      8  C   UNL     1       1.974   8.381  17.872  0.00  0.00    +0.000 A 
ENDBRANCH   1   2
BRANCH   1   9
ATOM      9  C   UNL     1       2.086   4.987  19.062  0.00  0.00    +0.000 A 
ATOM     10  C   UNL     1       1.514   4.626  20.296  0.00  0.00    +0.000 A 
ATOM     11  C   UNL     1       0.857   3.404  20.454  0.00  0.00    +0.000 A 
ATOM     12  C   UNL     1       0.746   2.527  19.380  0.00  0.00    +0.000 A 
ATOM     13  C   UNL     1       1.242   2.892  18.133  0.00  0.00    +0.000 A 
ATOM     14  C   UNL     1       1.882   4.123  17.968  0.00  0.00    +0.000 A 
ENDBRANCH   1   9
BRANCH   1  15
ATOM     15  O   UNL     1       3.849   6.252  20.099  0.00  0.00    +0.000 OA
ATOM     16  H   UNL     1       4.499   6.955  19.899  0.00  0.00    +0.000 HD
ENDBRANCH   1  15
BRANCH   1  17
ATOM     17  C   UNL     1       3.944   6.137  17.702  0.00  0.00    +0.000 C 
BRANCH  17  18
ATOM     18  N   UNL     1       5.370   6.149  18.132  0.00  0.00    +0.000 NA
ATOM     19  H   UNL     1       5.420   6.382  19.128  0.00  0.00    +0.000 HD
BRANCH  18  20
ATOM     20  C   UNL     1       6.014   4.851  17.946  0.00  0.00    +0.000 C 
BRANCH  20  21
ATOM     21  C   UNL     1       6.195   4.574  16.469  0.00  0.00    +0.000 A 
ATOM     22  C   UNL     1       7.235   5.186  15.747  0.00  0.00    +0.000 A 
ATOM     23  C   UNL     1       7.376   4.956  14.375  0.00  0.00    +0.000 A 
ATOM     24  C   UNL     1       6.476   4.121  13.716  0.00  0.00    +0.000 A 
ATOM     25 CL   UNL     1       6.648   3.842  12.026  0.00  0.00    +0.000 Cl
ATOM     26  C   UNL     1       5.434   3.517  14.416  0.00  0.00    +0.000 A 
ATOM     27  C   UNL     1       5.293   3.747  15.787  0.00  0.00    +0.000 A 
ENDBRANCH  20  21
ENDBRANCH  18  20
ENDBRANCH  17  18
ENDBRANCH   1  17
TORSDOF 7
ENDMDL
MODEL 8
REMARK VINA RESULT:      -7.8      2.372      3.220
REMARK  Name = 
REMARK  7 active torsions:
REMARK  status: ('A' for Active; 'I' for Inactive)
REMARK    1  A    between atoms: O_1  and  C_2
REMARK    2  A    between atoms: C_2  and  C_3
REMARK    3  A    between atoms: C_2  and  C_13
REMARK    4  A    between atoms: C_2  and  C_19
REMARK    5  A    between atoms: C_3  and  N_4
REMARK    6  A    between atoms: N_4  and  C_5
REMARK    7  A    between atoms: C_5  and  C_6
REMARK                            x       y       z     vdW  Elec       q    Type
REMARK                         _______ _______ _______ _____ _____    ______ ____
ROOT
ATOM      1  C   UNL     1       3.100   6.238  18.956  0.00  0.00    +0.000 C 
ENDROOT
BRANCH   1   2
ATOM      2  C   UNL     1       2.226   7.497  19.075  0.00  0.00    +0.000 A 
ATOM      3  C   UNL     1       2.008   8.310  17.940  0.00  0.00    +0.000 A 
ATOM      4  C   UNL     1       1.268   9.495  18.020  0.00  0.00    +0.000 A 
ATOM      5  C   UNL     1       0.746   9.893  19.240  0.00  0.00    +0.000 A 
ATOM      6  F   UNL     1       0.053  11.036  19.323  0.00  0.00    +0.000 F 
ATOM      7  C   UNL     1       0.950   9.129  20.382  0.00  0.00    +0.000 A 
ATOM      8  C   UNL     1       1.684   7.938  20.299  0.00  0.00    +0.000 A 
ENDBRANCH   1   2
BRANCH   1   9
ATOM      9  C   UNL     1       2.344   4.896  19.076  0.00  0.00    +0.000 A 
ATOM     10  C   UNL     1       2.047   4.142  17.925  0.00  0.00    +0.000 A 
ATOM     11  C   UNL     1       1.221   3.018  17.995  0.00  0.00    +0.000 A 
ATOM     12  C   UNL     1       0.687   2.619  19.216  0.00  0.00    +0.000 A 
ATOM     13  C   UNL     1       1.023   3.307  20.377  0.00  0.00    +0.000 A 
ATOM     14  C   UNL     1       1.866   4.420  20.312  0.00  0.00    +0.000 A 
ENDBRANCH   1   9
BRANCH   1  15
ATOM     15  O   UNL     1       4.020   6.305  20.071  0.00  0.00    +0.000 OA
ATOM     16  H   UNL     1       3.558   6.862  20.728  0.00  0.00    +0.000 HD
ENDBRANCH   1  15
BRANCH   1  17
ATOM     17  C   UNL     1       4.029   6.241  17.670  0.00  0.00    +0.000 C 
BRANCH  17  18
ATOM     18  N   UNL     1       5.433   5.895  18.022  0.00  0.00    +0.000 NA
ATOM     19  H   UNL     1       5.557   5.974  19.036  0.00  0.00    +0.000 HD
BRANCH  18  20
ATOM     20  C   UNL     1       5.780   4.530  17.638  0.00  0.00    +0.000 C 
BRANCH  20  21
ATOM     21  C   UNL     1       6.092   4.476  16.157  0.00  0.00    +0.000 A 
ATOM     22  C   UNL     1       5.298   3.710  15.285  0.00  0.00    +0.000 A 
ATOM     23  C   UNL     1       5.611   3.634  13.924  0.00  0.00    +0.000 A 
ATOM     24  C   UNL     1       6.721   4.315  13.430  0.00  0.00    +0.000 A 
ATOM     25 CL   UNL     1       7.109   4.217  11.755  0.00  0.00    +0.000 Cl
ATOM     26  C   UNL     1       7.524   5.068  14.283  0.00  0.00    +0.000 A 
ATOM     27  C   UNL     1       7.210   5.144  15.643  0.00  0.00    +0.000 A 
ENDBRANCH  20  21
ENDBRANCH  18  20
ENDBRANCH  17  18
ENDBRANCH   1  17
TORSDOF 7
ENDMDL
MODEL 9
REMARK VINA RESULT:      -7.7      2.349      3.054
REMARK  Name = 
REMARK  7 active torsions:
REMARK  status: ('A' for Active; 'I' for Inactive)
REMARK    1  A    between atoms: O_1  and  C_2
REMARK    2  A    between atoms: C_2  and  C_3
REMARK    3  A    between atoms: C_2  and  C_13
REMARK    4  A    between atoms: C_2  and  C_19
REMARK    5  A    between atoms: C_3  and  N_4
REMARK    6  A    between atoms: N_4  and  C_5
REMARK    7  A    between atoms: C_5  and  C_6
REMARK                            x       y       z     vdW  Elec       q    Type
REMARK                         _______ _______ _______ _____ _____    ______ ____
ROOT
ATOM      1  C   UNL     1       3.272   6.100  18.953  0.00  0.00    +0.000 C 
ENDROOT
BRANCH   1   2
ATOM      2  C   UNL     1       2.427   7.381  19.031  0.00  0.00    +0.000 A 
ATOM      3  C   UNL     1       1.878   7.785  20.269  0.00  0.00    +0.000 A 
ATOM      4  C   UNL     1       1.054   8.912  20.372  0.00  0.00    +0.000 A 
ATOM      5  C   UNL     1       0.755   9.644  19.235  0.00  0.00    +0.000 A 
ATOM      6  F   UNL     1      -0.048  10.713  19.327  0.00  0.00    +0.000 F 
ATOM      7  C   UNL     1       1.263   9.272  17.997  0.00  0.00    +0.000 A 
ATOM      8  C   UNL     1       2.095   8.149  17.897  0.00  0.00    +0.000 A 
ENDBRANCH   1   2
BRANCH   1   9
ATOM      9  C   UNL     1       2.472   4.778  18.986  0.00  0.00    +0.000 A 
ATOM     10  C   UNL     1       2.539   3.879  17.905  0.00  0.00    +0.000 A 
ATOM     11  C   UNL     1       1.696   2.767  17.842  0.00  0.00    +0.000 A 
ATOM     12  C   UNL     1       0.782   2.526  18.862  0.00  0.00    +0.000 A 
ATOM     13  C   UNL     1       0.746   3.361  19.973  0.00  0.00    +0.000 A 
ATOM     14  C   UNL     1       1.602   4.463  20.048  0.00  0.00    +0.000 A 
ENDBRANCH   1   9
BRANCH   1  15
ATOM     15  O   UNL     1       4.106   6.119  20.135  0.00  0.00    +0.000 OA
ATOM     16  H   UNL     1       3.812   5.338  20.645  0.00  0.00    +0.000 HD
ENDBRANCH   1  15
BRANCH   1  17
ATOM     17  C   UNL     1       4.296   6.100  17.741  0.00  0.00    +0.000 C 
BRANCH  17  18
ATOM     18  N   UNL     1       5.697   5.959  18.223  0.00  0.00    +0.000 NA
ATOM     19  H   UNL     1       5.715   6.057  19.243  0.00  0.00    +0.000 HD
BRANCH  18  20
ATOM     20  C   UNL     1       6.268   4.656  17.893  0.00  0.00    +0.000 C 
BRANCH  20  21
ATOM     21  C   UNL     1       6.364   4.503  16.390  0.00  0.00    +0.000 A 
ATOM     22  C   UNL     1       5.529   3.601  15.706  0.00  0.00    +0.000 A 
ATOM     23  C   UNL     1       5.647   3.436  14.322  0.00  0.00    +0.000 A 
ATOM     24  C   UNL     1       6.602   4.164  13.617  0.00  0.00    +0.000 A 
ATOM     25 CL   UNL     1       6.749   3.957  11.914  0.00  0.00    +0.000 Cl
ATOM     26  C   UNL     1       7.445   5.052  14.282  0.00  0.00    +0.000 A 
ATOM     27  C   UNL     1       7.327   5.217  15.664  0.00  0.00    +0.000 A 
ENDBRANCH  20  21
ENDBRANCH  18  20
ENDBRANCH  17  18
ENDBRANCH   1  17
TORSDOF 7
ENDMDL
