MODEL 1
REMARK VINA RESULT:      -6.2      0.000      0.000
REMARK  Name = 
REMARK  2 active torsions:
REMARK  status: ('A' for Active; 'I' for Inactive)
REMARK    1  A    between atoms: C_1  and  N_2
REMARK    2  A    between atoms: C_5  and  C_6
REMARK                            x       y       z     vdW  Elec       q    Type
REMARK                         _______ _______ _______ _____ _____    ______ ____
ROOT
ATOM      1  C   UNL     1       1.383   2.741  21.516  0.00  0.00    +0.000 C 
ATOM      2  N   UNL     1       2.305   3.102  20.438  0.00  0.00    +0.000 N 
ATOM      3  C   UNL     1       1.892   3.896  19.409  0.00  0.00    +0.000 A 
ATOM      4  C   UNL     1       2.771   4.254  18.385  0.00  0.00    +0.000 A 
ATOM      5  C   UNL     1       4.097   3.780  18.395  0.00  0.00    +0.000 A 
ATOM      6  C   UNL     1       4.492   2.954  19.464  0.00  0.00    +0.000 A 
ATOM      7  C   UNL     1       3.588   2.635  20.478  0.00  0.00    +0.000 A 
ENDROOT
BRANCH   5   8
ATOM      8  C   UNL     1       5.058   4.147  17.304  0.00  0.00    +0.000 A 
ATOM      9  C   UNL     1       4.660   4.126  15.948  0.00  0.00    +0.000 A 
ATOM     10  C   UNL     1       5.557   4.474  14.933  0.00  0.00    +0.000 A 
ATOM     11  C   UNL     1       6.868   4.834  15.247  0.00  0.00    +0.000 A 
ATOM     12  F   UNL     1       7.738   5.161  14.260  0.00  0.00    +0.000 F 
ATOM     13  C   UNL     1       7.282   4.853  16.579  0.00  0.00    +0.000 A 
ATOM     14  C   UNL     1       6.387   4.523  17.600  0.00  0.00    +0.000 A 
ENDBRANCH   5   8
TORSDOF 1
ENDMDL
MODEL 2
REMARK VINA RESULT:      -6.2      3.542      4.260
REMARK  Name = 
REMARK  2 active torsions:
REMARK  status: ('A' for Active; 'I' for Inactive)
REMARK    1  A    between atoms: C_1  and  N_2
REMARK    2  A    between atoms: C_5  and  C_6
REMARK                            x       y       z     vdW  Elec       q    Type
REMARK                         _______ _______ _______ _____ _____    ______ ____
ROOT
ATOM      1  C   UNL     1       0.436   9.893  20.549  0.00  0.00    +0.000 C 
ATOM      2  N   UNL     1       1.258   8.942  19.798  0.00  0.00    +0.000 N 
ATOM      3  C   UNL     1       1.660   7.770  20.369  0.00  0.00    +0.000 A 
ATOM      4  C   UNL     1       2.432   6.855  19.653  0.00  0.00    +0.000 A 
ATOM      5  C   UNL     1       2.823   7.142  18.331  0.00  0.00    +0.000 A 
ATOM      6  C   UNL     1       2.403   8.363  17.771  0.00  0.00    +0.000 A 
ATOM      7  C   UNL     1       1.615   9.243  18.515  0.00  0.00    +0.000 A 
ENDROOT
BRANCH   5   8
ATOM      8  C   UNL     1       3.657   6.176  17.543  0.00  0.00    +0.000 A 
ATOM      9  C   UNL     1       3.440   4.783  17.639  0.00  0.00    +0.000 A 
ATOM     10  C   UNL     1       4.215   3.885  16.899  0.00  0.00    +0.000 A 
ATOM     11  C   UNL     1       5.229   4.355  16.064  0.00  0.00    +0.000 A 
ATOM     12  F   UNL     1       5.986   3.480  15.355  0.00  0.00    +0.000 F 
ATOM     13  C   UNL     1       5.464   5.726  15.962  0.00  0.00    +0.000 A 
ATOM     14  C   UNL     1       4.682   6.630  16.685  0.00  0.00    +0.000 A 
ENDBRANCH   5   8
TORSDOF 1
ENDMDL
MODEL 3
REMARK VINA RESULT:      -6.2      3.425      6.048
REMARK  Name = 
REMARK  2 active torsions:
REMARK  status: ('A' for Active; 'I' for Inactive)
REMARK    1  A    between atoms: C_1  and  N_2
REMARK    2  A    between atoms: C_5  and  C_6
REMARK                            x       y       z     vdW  Elec       q    Type
REMARK                         _______ _______ _______ _____ _____    ______ ____
ROOT
ATOM      1  C   UNL     1       7.178   5.013  15.176  0.00  0.00    +0.000 C 
ATOM      2  N   UNL     1       6.246   4.653  16.245  0.00  0.00    +0.000 N 
ATOM      3  C   UNL     1       6.598   4.805  17.554  0.00  0.00    +0.000 A 
ATOM      4  C   UNL     1       5.708   4.475  18.576  0.00  0.00    +0.000 A 
ATOM      5  C   UNL     1       4.434   3.962  18.266  0.00  0.00    +0.000 A 
ATOM      6  C   UNL     1       4.101   3.806  16.907  0.00  0.00    +0.000 A 
ATOM      7  C   UNL     1       5.013   4.165  15.914  0.00  0.00    +0.000 A 
ENDROOT
BRANCH   5   8
ATOM      8  C   UNL     1       3.462   3.596  19.347  0.00  0.00    +0.000 A 
ATOM      9  C   UNL     1       2.171   4.170  19.389  0.00  0.00    +0.000 A 
ATOM     10  C   UNL     1       1.265   3.823  20.395  0.00  0.00    +0.000 A 
ATOM     11  C   UNL     1       1.631   2.912  21.386  0.00  0.00    +0.000 A 
ATOM     12  F   UNL     1       0.753   2.585  22.367  0.00  0.00    +0.000 F 
ATOM     13  C   UNL     1       2.903   2.340  21.368  0.00  0.00    +0.000 A 
ATOM     14  C   UNL     1       3.808   2.669  20.355  0.00  0.00    +0.000 A 
ENDBRANCH   5   8
TORSDOF 1
ENDMDL
MODEL 4
REMARK VINA RESULT:      -6.1      0.181      1.277
REMARK  Name = 
REMARK  2 active torsions:
REMARK  status: ('A' for Active; 'I' for Inactive)
REMARK    1  A    between atoms: C_1  and  N_2
REMARK    2  A    between atoms: C_5  and  C_6
REMARK                            x       y       z     vdW  Elec       q    Type
REMARK                         _______ _______ _______ _____ _____    ______ ____
ROOT
ATOM      1  C   UNL     1       1.402   2.903  21.574  0.00  0.00    +0.000 C 
ATOM      2  N   UNL     1       2.345   3.229  20.504  0.00  0.00    +0.000 N 
ATOM      3  C   UNL     1       3.535   2.571  20.403  0.00  0.00    +0.000 A 
ATOM      4  C   UNL     1       4.432   2.870  19.376  0.00  0.00    +0.000 A 
ATOM      5  C   UNL     1       4.123   3.873  18.438  0.00  0.00    +0.000 A 
ATOM      6  C   UNL     1       2.892   4.542  18.572  0.00  0.00    +0.000 A 
ATOM      7  C   UNL     1       2.015   4.201  19.602  0.00  0.00    +0.000 A 
ENDROOT
BRANCH   5   8
ATOM      8  C   UNL     1       5.072   4.215  17.329  0.00  0.00    +0.000 A 
ATOM      9  C   UNL     1       4.698   4.053  15.976  0.00  0.00    +0.000 A 
ATOM     10  C   UNL     1       5.583   4.378  14.943  0.00  0.00    +0.000 A 
ATOM     11  C   UNL     1       6.861   4.854  15.238  0.00  0.00    +0.000 A 
ATOM     12  F   UNL     1       7.721   5.159  14.235  0.00  0.00    +0.000 F 
ATOM     13  C   UNL     1       7.253   5.014  16.568  0.00  0.00    +0.000 A 
ATOM     14  C   UNL     1       6.367   4.707  17.604  0.00  0.00    +0.000 A 
ENDBRANCH   5   8
TORSDOF 1
ENDMDL
MODEL 5
REMARK VINA RESULT:      -6.1      0.813      1.632
REMARK  Name = 
REMARK  2 active torsions:
REMARK  status: ('A' for Active; 'I' for Inactive)
REMARK    1  A    between atoms: C_1  and  N_2
REMARK    2  A    between atoms: C_5  and  C_6
REMARK                            x       y       z     vdW  Elec       q    Type
REMARK                         _______ _______ _______ _____ _____    ______ ____
ROOT
ATOM      1  C   UNL     1       1.472   2.884  21.448  0.00  0.00    +0.000 C 
ATOM      2  N   UNL     1       2.400   3.203  20.362  0.00  0.00    +0.000 N 
ATOM      3  C   UNL     1       2.654   2.294  19.378  0.00  0.00    +0.000 A 
ATOM      4  C   UNL     1       3.528   2.598  18.333  0.00  0.00    +0.000 A 
ATOM      5  C   UNL     1       4.175   3.848  18.294  0.00  0.00    +0.000 A 
ATOM      6  C   UNL     1       3.901   4.762  19.329  0.00  0.00    +0.000 A 
ATOM      7  C   UNL     1       3.006   4.426  20.346  0.00  0.00    +0.000 A 
ENDROOT
BRANCH   5   8
ATOM      8  C   UNL     1       5.121   4.196  17.185  0.00  0.00    +0.000 A 
ATOM      9  C   UNL     1       6.455   4.574  17.459  0.00  0.00    +0.000 A 
ATOM     10  C   UNL     1       7.337   4.892  16.423  0.00  0.00    +0.000 A 
ATOM     11  C   UNL     1       6.905   4.856  15.097  0.00  0.00    +0.000 A 
ATOM     12  F   UNL     1       7.760   5.175  14.094  0.00  0.00    +0.000 F 
ATOM     13  C   UNL     1       5.590   4.493  14.805  0.00  0.00    +0.000 A 
ATOM     14  C   UNL     1       4.708   4.156  15.835  0.00  0.00    +0.000 A 
ENDBRANCH   5   8
TORSDOF 1
ENDMDL
MODEL 6
REMARK VINA RESULT:      -6.1      3.770      4.587
REMARK  Name = 
REMARK  2 active torsions:
REMARK  status: ('A' for Active; 'I' for Inactive)
REMARK    1  A    between atoms: C_1  and  N_2
REMARK    2  A    between atoms: C_5  and  C_6
REMARK                            x       y       z     vdW  Elec       q    Type
REMARK                         _______ _______ _______ _____ _____    ______ ____
ROOT
ATOM      1  C   UNL     1       0.255  10.272  20.460  0.00  0.00    +0.000 C 
ATOM      2  N   UNL     1       1.069   9.264  19.779  0.00  0.00    +0.000 N 
ATOM      3  C   UNL     1       1.498   8.153  20.443  0.00  0.00    +0.000 A 
ATOM      4  C   UNL     1       2.263   7.184  19.793  0.00  0.00    +0.000 A 
ATOM      5  C   UNL     1       2.617   7.352  18.441  0.00  0.00    +0.000 A 
ATOM      6  C   UNL     1       2.168   8.513  17.784  0.00  0.00    +0.000 A 
ATOM      7  C   UNL     1       1.390   9.450  18.464  0.00  0.00    +0.000 A 
ENDROOT
BRANCH   5   8
ATOM      8  C   UNL     1       3.442   6.326  17.723  0.00  0.00    +0.000 A 
ATOM      9  C   UNL     1       4.562   6.706  16.949  0.00  0.00    +0.000 A 
ATOM     10  C   UNL     1       5.333   5.747  16.285  0.00  0.00    +0.000 A 
ATOM     11  C   UNL     1       4.995   4.396  16.367  0.00  0.00    +0.000 A 
ATOM     12  F   UNL     1       5.739   3.469  15.714  0.00  0.00    +0.000 F 
ATOM     13  C   UNL     1       3.889   4.001  17.120  0.00  0.00    +0.000 A 
ATOM     14  C   UNL     1       3.124   4.952  17.800  0.00  0.00    +0.000 A 
ENDBRANCH   5   8
TORSDOF 1
ENDMDL
MODEL 7
REMARK VINA RESULT:      -6.1      3.820      4.465
REMARK  Name = 
REMARK  2 active torsions:
REMARK  status: ('A' for Active; 'I' for Inactive)
REMARK    1  A    between atoms: C_1  and  N_2
REMARK    2  A    between atoms: C_5  and  C_6
REMARK                            x       y       z     vdW  Elec       q    Type
REMARK                         _______ _______ _______ _____ _____    ______ ____
ROOT
ATOM      1  C   UNL     1       0.275  10.366  20.432  0.00  0.00    +0.000 C 
ATOM      2  N   UNL     1       1.067   9.351  19.736  0.00  0.00    +0.000 N 
ATOM      3  C   UNL     1       1.393   9.507  18.420  0.00  0.00    +0.000 A 
ATOM      4  C   UNL     1       2.160   8.548  17.756  0.00  0.00    +0.000 A 
ATOM      5  C   UNL     1       2.592   7.394  18.437  0.00  0.00    +0.000 A 
ATOM      6  C   UNL     1       2.232   7.255  19.790  0.00  0.00    +0.000 A 
ATOM      7  C   UNL     1       1.480   8.245  20.423  0.00  0.00    +0.000 A 
ENDROOT
BRANCH   5   8
ATOM      8  C   UNL     1       3.412   6.348  17.743  0.00  0.00    +0.000 A 
ATOM      9  C   UNL     1       3.060   4.981  17.816  0.00  0.00    +0.000 A 
ATOM     10  C   UNL     1       3.823   4.009  17.163  0.00  0.00    +0.000 A 
ATOM     11  C   UNL     1       4.958   4.376  16.440  0.00  0.00    +0.000 A 
ATOM     12  F   UNL     1       5.703   3.429  15.817  0.00  0.00    +0.000 F 
ATOM     13  C   UNL     1       5.328   5.719  16.363  0.00  0.00    +0.000 A 
ATOM     14  C   UNL     1       4.560   6.698  16.998  0.00  0.00    +0.000 A 
ENDBRANCH   5   8
TORSDOF 1
ENDMDL
MODEL 8
REMARK VINA RESULT:      -6.1      0.879      1.599
REMARK  Name = 
REMARK  2 active torsions:
REMARK  status: ('A' for Active; 'I' for Inactive)
REMARK    1  A    between atoms: C_1  and  N_2
REMARK    2  A    between atoms: C_5  and  C_6
REMARK                            x       y       z     vdW  Elec       q    Type
REMARK                         _______ _______ _______ _____ _____    ______ ____
ROOT
ATOM      1  C   UNL     1       1.363   2.707  21.158  0.00  0.00    +0.000 C 
ATOM      2  N   UNL     1       2.313   3.087  20.112  0.00  0.00    +0.000 N 
ATOM      3  C   UNL     1       3.060   4.222  20.231  0.00  0.00    +0.000 A 
ATOM      4  C   UNL     1       3.976   4.580  19.241  0.00  0.00    +0.000 A 
ATOM      5  C   UNL     1       4.127   3.779  18.094  0.00  0.00    +0.000 A 
ATOM      6  C   UNL     1       3.336   2.619  17.993  0.00  0.00    +0.000 A 
ATOM      7  C   UNL     1       2.444   2.286  19.013  0.00  0.00    +0.000 A 
ENDROOT
BRANCH   5   8
ATOM      8  C   UNL     1       5.102   4.147  17.015  0.00  0.00    +0.000 A 
ATOM      9  C   UNL     1       6.377   4.666  17.334  0.00  0.00    +0.000 A 
ATOM     10  C   UNL     1       7.286   5.003  16.327  0.00  0.00    +0.000 A 
ATOM     11  C   UNL     1       6.938   4.844  14.985  0.00  0.00    +0.000 A 
ATOM     12  F   UNL     1       7.818   5.181  14.010  0.00  0.00    +0.000 F 
ATOM     13  C   UNL     1       5.681   4.340  14.649  0.00  0.00    +0.000 A 
ATOM     14  C   UNL     1       4.774   3.985  15.651  0.00  0.00    +0.000 A 
ENDBRANCH   5   8
TORSDOF 1
ENDMDL
MODEL 9
REMARK VINA RESULT:      -6.1      3.583      5.617
REMARK  Name = 
REMARK  2 active torsions:
REMARK  status: ('A' for Active; 'I' for Inactive)
REMARK    1  A    between atoms: C_1  and  N_2
REMARK    2  A    between atoms: C_5  and  C_6
REMARK                            x       y       z     vdW  Elec       q    Type
REMARK                         _______ _______ _______ _____ _____    ______ ____
ROOT
ATOM      1  C   UNL     1       8.090   7.829  17.758  0.00  0.00    +0.000 C 
ATOM      2  N   UNL     1       6.962   6.906  17.888  0.00  0.00    +0.000 N 
ATOM      3  C   UNL     1       7.003   5.883  18.789  0.00  0.00    +0.000 A 
ATOM      4  C   UNL     1       5.924   5.009  18.926  0.00  0.00    +0.000 A 
ATOM      5  C   UNL     1       4.781   5.164  18.118  0.00  0.00    +0.000 A 
ATOM      6  C   UNL     1       4.771   6.222  17.190  0.00  0.00    +0.000 A 
ATOM      7  C   UNL     1       5.863   7.086  17.097  0.00  0.00    +0.000 A 
ENDROOT
BRANCH   5   8
ATOM      8  C   UNL     1       3.612   4.234  18.244  0.00  0.00    +0.000 A 
ATOM      9  C   UNL     1       2.301   4.671  17.947  0.00  0.00    +0.000 A 
ATOM     10  C   UNL     1       1.213   3.801  18.059  0.00  0.00    +0.000 A 
ATOM     11  C   UNL     1       1.406   2.486  18.484  0.00  0.00    +0.000 A 
ATOM     12  F   UNL     1       0.348   1.647  18.602  0.00  0.00    +0.000 F 
ATOM     13  C   UNL     1       2.691   2.037  18.790  0.00  0.00    +0.000 A 
ATOM     14  C   UNL     1       3.786   2.897  18.663  0.00  0.00    +0.000 A 
ENDBRANCH   5   8
TORSDOF 1
ENDMDL
