MODEL 1
REMARK VINA RESULT:      -8.7      0.000      0.000
REMARK  Name = 
REMARK  9 active torsions:
REMARK  status: ('A' for Active; 'I' for Inactive)
REMARK    1  A    between atoms: C_1  and  C_2
REMARK    2  A    between atoms: C_2  and  N_3
REMARK    3  A    between atoms: N_3  and  C_4
REMARK    4  A    between atoms: N_3  and  C_6
REMARK    5  A    between atoms: C_4  and  C_5
REMARK    6  A    between atoms: C_6  and  C_7
REMARK    7  A    between atoms: C_10  and  C_11
REMARK    8  A    between atoms: C_12  and  C_13
REMARK    9  A    between atoms: C_18  and  C_19
REMARK                            x       y       z     vdW  Elec       q    Type
REMARK                         _______ _______ _______ _____ _____    ______ ____
ROOT
ATOM      1  C   UNL     1       8.479   8.854  18.231  0.00  0.00    +0.000 A 
ATOM      2  N   UNL     1       7.821   9.131  17.093  0.00  0.00    +0.000 NA
ATOM      3  N   UNL     1       6.849   8.300  17.234  0.00  0.00    +0.000 N 
ATOM      4  C   UNL     1       7.304   7.117  17.709  0.00  0.00    +0.000 A 
ATOM      5  C   UNL     1       6.659   5.993  17.138  0.00  0.00    +0.000 A 
ATOM      6  C   UNL     1       6.591   4.692  17.478  0.00  0.00    +0.000 A 
ATOM      7  C   UNL     1       7.327   4.575  18.636  0.00  0.00    +0.000 A 
ATOM      8  C   UNL     1       8.024   5.844  19.250  0.00  0.00    +0.000 A 
ATOM      9  C   UNL     1       8.260   7.306  18.778  0.00  0.00    +0.000 A 
ATOM     10  H   UNL     1       6.005   8.413  16.695  0.00  0.00    +0.000 HD
ENDROOT
BRANCH   6  11
ATOM     11  C   UNL     1       5.534   3.842  16.678  0.00  0.00    +0.000 C 
ATOM     12  C   UNL     1       4.226   4.242  15.996  0.00  0.00    +0.000 C 
ATOM     13  C   UNL     1       4.105   3.814  17.480  0.00  0.00    +0.000 C 
ATOM     14  C   UNL     1       3.083   4.910  17.709  0.00  0.00    +0.000 C 
ATOM     15  O   UNL     1       3.381   6.021  18.100  0.00  0.00    +0.000 OA
ATOM     16  N   UNL     1       1.836   4.280  17.648  0.00  0.00    +0.000 N 
ATOM     17  C   UNL     1       1.963   3.406  18.729  0.00  0.00    +0.000 A 
ATOM     18  C   UNL     1       1.058   3.661  19.785  0.00  0.00    +0.000 A 
ATOM     19  C   UNL     1       1.381   3.300  21.066  0.00  0.00    +0.000 A 
ATOM     20  C   UNL     1       2.619   2.680  21.229  0.00  0.00    +0.000 A 
ATOM     21  C   UNL     1       3.576   2.488  20.100  0.00  0.00    +0.000 A 
ATOM     22  C   UNL     1       3.301   2.885  18.732  0.00  0.00    +0.000 A 
ATOM     23  H   UNL     1       1.828   3.618  16.865  0.00  0.00    +0.000 HD
ENDBRANCH   6  11
BRANCH   1  25
ATOM     24  C   UNL     1       9.590  10.764  19.761  0.00  0.00    +0.000 C 
ATOM     25  C   UNL     1       9.300  10.126  18.592  0.00  0.00    +0.000 C 
BRANCH  24  29
ATOM     26  C   UNL     1      10.835  14.999  20.893  0.00  0.00    +0.000 A 
ATOM     27  C   UNL     1      11.633  14.296  19.984  0.00  0.00    +0.000 A 
ATOM     28  C   UNL     1      11.303  12.925  19.575  0.00  0.00    +0.000 A 
ATOM     29  C   UNL     1      10.168  12.207  20.064  0.00  0.00    +0.000 A 
ATOM     30  C   UNL     1       9.460  12.937  21.031  0.00  0.00    +0.000 A 
ATOM     31  C   UNL     1       9.820  14.237  21.478  0.00  0.00    +0.000 A 
BRANCH  26  32
ATOM     32  C   UNL     1      10.944  16.508  21.225  0.00  0.00    +0.000 C 
BRANCH  32  33
ATOM     33  N   UNL     1      10.228  17.441  20.287  0.00  0.00    +0.000 NA
BRANCH  33  35
ATOM     34  C   UNL     1       8.373  17.723  22.019  0.00  0.00    +0.000 C 
ATOM     35  C   UNL     1       9.345  18.377  21.027  0.00  0.00    +0.000 C 
ENDBRANCH  33  35
BRANCH  33  36
ATOM     36  C   UNL     1      11.182  18.184  19.421  0.00  0.00    +0.000 C 
ATOM     37  C   UNL     1      11.475  17.531  18.072  0.00  0.00    +0.000 C 
ENDBRANCH  33  36
ENDBRANCH  32  33
ENDBRANCH  26  32
ENDBRANCH  24  29
ENDBRANCH   1  25
TORSDOF 7
ENDMDL
MODEL 2
REMARK VINA RESULT:      -8.3      8.521     12.693
REMARK  Name = 
REMARK  9 active torsions:
REMARK  status: ('A' for Active; 'I' for Inactive)
REMARK    1  A    between atoms: C_1  and  C_2
REMARK    2  A    between atoms: C_2  and  N_3
REMARK    3  A    between atoms: N_3  and  C_4
REMARK    4  A    between atoms: N_3  and  C_6
REMARK    5  A    between atoms: C_4  and  C_5
REMARK    6  A    between atoms: C_6  and  C_7
REMARK    7  A    between atoms: C_10  and  C_11
REMARK    8  A    between atoms: C_12  and  C_13
REMARK    9  A    between atoms: C_18  and  C_19
REMARK                            x       y       z     vdW  Elec       q    Type
REMARK                         _______ _______ _______ _____ _____    ______ ____
ROOT
ATOM      1  C   UNL     1       1.047   8.815  20.682  0.00  0.00    +0.000 A 
ATOM      2  N   UNL     1       1.256   8.696  22.004  0.00  0.00    +0.000 NA
ATOM      3  N   UNL     1       0.107   9.105  22.412  0.00  0.00    +0.000 N 
ATOM      4  C   UNL     1      -0.297  10.177  21.689  0.00  0.00    +0.000 A 
ATOM      5  C   UNL     1      -0.961  11.161  22.460  0.00  0.00    +0.000 A 
ATOM      6  C   UNL     1      -1.735  12.217  22.147  0.00  0.00    +0.000 A 
ATOM      7  C   UNL     1      -1.829  12.210  20.773  0.00  0.00    +0.000 A 
ATOM      8  C   UNL     1      -1.087  11.098  19.945  0.00  0.00    +0.000 A 
ATOM      9  C   UNL     1      -0.051   9.988  20.276  0.00  0.00    +0.000 A 
ATOM     10  H   UNL     1      -0.199   8.901  23.349  0.00  0.00    +0.000 HD
ENDROOT
BRANCH   6  11
ATOM     11  C   UNL     1      -2.474  12.894  23.363  0.00  0.00    +0.000 C 
ATOM     12  C   UNL     1      -3.822  12.594  24.016  0.00  0.00    +0.000 C 
ATOM     13  C   UNL     1      -3.853  13.618  22.855  0.00  0.00    +0.000 C 
ATOM     14  C   UNL     1      -5.158  13.020  22.367  0.00  0.00    +0.000 C 
ATOM     15  O   UNL     1      -5.210  12.139  21.532  0.00  0.00    +0.000 OA
ATOM     16  N   UNL     1      -6.163  13.862  22.852  0.00  0.00    +0.000 N 
ATOM     17  C   UNL     1      -5.816  15.043  22.195  0.00  0.00    +0.000 A 
ATOM     18  C   UNL     1      -6.784  15.494  21.269  0.00  0.00    +0.000 A 
ATOM     19  C   UNL     1      -6.404  16.262  20.201  0.00  0.00    +0.000 A 
ATOM     20  C   UNL     1      -5.044  16.554  20.114  0.00  0.00    +0.000 A 
ATOM     21  C   UNL     1      -4.042  16.005  21.074  0.00  0.00    +0.000 A 
ATOM     22  C   UNL     1      -4.384  15.157  22.201  0.00  0.00    +0.000 A 
ATOM     23  H   UNL     1      -5.955  14.113  23.824  0.00  0.00    +0.000 HD
ENDBRANCH   6  11
BRANCH   1  25
ATOM     24  C   UNL     1       2.461   7.666  18.707  0.00  0.00    +0.000 C 
ATOM     25  C   UNL     1       2.012   7.813  19.985  0.00  0.00    +0.000 C 
BRANCH  24  29
ATOM     26  C   UNL     1       4.880   4.566  16.403  0.00  0.00    +0.000 A 
ATOM     27  C   UNL     1       3.730   4.140  17.077  0.00  0.00    +0.000 A 
ATOM     28  C   UNL     1       2.902   5.076  17.847  0.00  0.00    +0.000 A 
ATOM     29  C   UNL     1       3.197   6.469  17.976  0.00  0.00    +0.000 A 
ATOM     30  C   UNL     1       4.404   6.812  17.347  0.00  0.00    +0.000 A 
ATOM     31  C   UNL     1       5.241   5.891  16.661  0.00  0.00    +0.000 A 
BRANCH  26  32
ATOM     32  C   UNL     1       5.700   3.736  15.384  0.00  0.00    +0.000 C 
BRANCH  32  33
ATOM     33  N   UNL     1       5.952   4.393  14.054  0.00  0.00    +0.000 NA
BRANCH  33  35
ATOM     34  C   UNL     1       7.933   5.260  12.695  0.00  0.00    +0.000 C 
ATOM     35  C   UNL     1       7.235   5.140  14.057  0.00  0.00    +0.000 C 
ENDBRANCH  33  35
BRANCH  33  36
ATOM     36  C   UNL     1       5.915   3.406  12.942  0.00  0.00    +0.000 C 
ATOM     37  C   UNL     1       4.719   3.535  12.002  0.00  0.00    +0.000 C 
ENDBRANCH  33  36
ENDBRANCH  32  33
ENDBRANCH  26  32
ENDBRANCH  24  29
ENDBRANCH   1  25
TORSDOF 7
ENDMDL
MODEL 3
REMARK VINA RESULT:      -8.2      8.050     10.809
REMARK  Name = 
REMARK  9 active torsions:
REMARK  status: ('A' for Active; 'I' for Inactive)
REMARK    1  A    between atoms: C_1  and  C_2
REMARK    2  A    between atoms: C_2  and  N_3
REMARK    3  A    between atoms: N_3  and  C_4
REMARK    4  A    between atoms: N_3  and  C_6
REMARK    5  A    between atoms: C_4  and  C_5
REMARK    6  A    between atoms: C_6  and  C_7
REMARK    7  A    between atoms: C_10  and  C_11
REMARK    8  A    between atoms: C_12  and  C_13
REMARK    9  A    between atoms: C_18  and  C_19
REMARK                            x       y       z     vdW  Elec       q    Type
REMARK                         _______ _______ _______ _____ _____    ______ ____
ROOT
ATOM      1  C   UNL     1       0.329   9.445  20.490  0.00  0.00    +0.000 A 
ATOM      2  N   UNL     1       0.423   8.646  21.566  0.00  0.00    +0.000 NA
ATOM      3  N   UNL     1       1.631   8.240  21.392  0.00  0.00    +0.000 N 
ATOM      4  C   UNL     1       1.854   7.967  20.085  0.00  0.00    +0.000 A 
ATOM      5  C   UNL     1       2.666   6.826  19.877  0.00  0.00    +0.000 A 
ATOM      6  C   UNL     1       3.341   6.351  18.814  0.00  0.00    +0.000 A 
ATOM      7  C   UNL     1       3.125   7.261  17.803  0.00  0.00    +0.000 A 
ATOM      8  C   UNL     1       2.225   8.523  18.069  0.00  0.00    +0.000 A 
ATOM      9  C   UNL     1       1.299   8.990  19.226  0.00  0.00    +0.000 A 
ATOM     10  H   UNL     1       2.141   7.828  22.157  0.00  0.00    +0.000 HD
ENDROOT
BRANCH   6  11
ATOM     11  C   UNL     1       4.328   5.162  19.120  0.00  0.00    +0.000 C 
ATOM     12  C   UNL     1       5.832   5.145  19.392  0.00  0.00    +0.000 C 
ATOM     13  C   UNL     1       5.418   5.004  17.907  0.00  0.00    +0.000 C 
ATOM     14  C   UNL     1       6.578   5.891  17.502  0.00  0.00    +0.000 C 
ATOM     15  O   UNL     1       6.475   7.094  17.370  0.00  0.00    +0.000 OA
ATOM     16  N   UNL     1       7.589   5.022  17.082  0.00  0.00    +0.000 N 
ATOM     17  C   UNL     1       6.946   4.424  15.997  0.00  0.00    +0.000 A 
ATOM     18  C   UNL     1       7.551   4.692  14.748  0.00  0.00    +0.000 A 
ATOM     19  C   UNL     1       6.800   4.665  13.603  0.00  0.00    +0.000 A 
ATOM     20  C   UNL     1       5.451   4.355  13.768  0.00  0.00    +0.000 A 
ATOM     21  C   UNL     1       4.833   4.142  15.110  0.00  0.00    +0.000 A 
ATOM     22  C   UNL     1       5.574   4.197  16.356  0.00  0.00    +0.000 A 
ATOM     23  H   UNL     1       7.648   4.231  17.731  0.00  0.00    +0.000 HD
ENDBRANCH   6  11
BRANCH   1  25
ATOM     24  C   UNL     1      -0.873  11.486  21.759  0.00  0.00    +0.000 C 
ATOM     25  C   UNL     1      -0.759  10.508  20.816  0.00  0.00    +0.000 C 
BRANCH  24  29
ATOM     26  C   UNL     1      -4.315  14.281  22.814  0.00  0.00    +0.000 A 
ATOM     27  C   UNL     1      -4.076  13.182  23.646  0.00  0.00    +0.000 A 
ATOM     28  C   UNL     1      -2.992  12.232  23.369  0.00  0.00    +0.000 A 
ATOM     29  C   UNL     1      -2.111  12.343  22.249  0.00  0.00    +0.000 A 
ATOM     30  C   UNL     1      -2.457  13.416  21.413  0.00  0.00    +0.000 A 
ATOM     31  C   UNL     1      -3.550  14.294  21.644  0.00  0.00    +0.000 A 
BRANCH  26  32
ATOM     32  C   UNL     1      -5.265  15.466  23.117  0.00  0.00    +0.000 C 
BRANCH  32  33
ATOM     33  N   UNL     1      -6.713  15.254  22.765  0.00  0.00    +0.000 NA
BRANCH  33  35
ATOM     34  C   UNL     1      -7.436  14.818  20.355  0.00  0.00    +0.000 C 
ATOM     35  C   UNL     1      -6.861  14.267  21.667  0.00  0.00    +0.000 C 
ENDBRANCH  33  35
BRANCH  33  36
ATOM     36  C   UNL     1      -7.511  14.850  23.953  0.00  0.00    +0.000 C 
ATOM     37  C   UNL     1      -7.699  13.345  24.126  0.00  0.00    +0.000 C 
ENDBRANCH  33  36
ENDBRANCH  32  33
ENDBRANCH  26  32
ENDBRANCH  24  29
ENDBRANCH   1  25
TORSDOF 7
ENDMDL
MODEL 4
REMARK VINA RESULT:      -8.2      2.862     12.149
REMARK  Name = 
REMARK  9 active torsions:
REMARK  status: ('A' for Active; 'I' for Inactive)
REMARK    1  A    between atoms: C_1  and  C_2
REMARK    2  A    between atoms: C_2  and  N_3
REMARK    3  A    between atoms: N_3  and  C_4
REMARK    4  A    between atoms: N_3  and  C_6
REMARK    5  A    between atoms: C_4  and  C_5
REMARK    6  A    between atoms: C_6  and  C_7
REMARK    7  A    between atoms: C_10  and  C_11
REMARK    8  A    between atoms: C_12  and  C_13
REMARK    9  A    between atoms: C_18  and  C_19
REMARK                            x       y       z     vdW  Elec       q    Type
REMARK                         _______ _______ _______ _____ _____    ______ ____
ROOT
ATOM      1  C   UNL     1       9.059  10.525  18.473  0.00  0.00    +0.000 A 
ATOM      2  N   UNL     1       8.252  11.281  17.709  0.00  0.00    +0.000 NA
ATOM      3  N   UNL     1       9.048  12.273  17.520  0.00  0.00    +0.000 N 
ATOM      4  C   UNL     1       9.698  12.582  18.667  0.00  0.00    +0.000 A 
ATOM      5  C   UNL     1       9.869  13.974  18.863  0.00  0.00    +0.000 A 
ATOM      6  C   UNL     1      10.649  14.705  19.679  0.00  0.00    +0.000 A 
ATOM      7  C   UNL     1      11.387  13.793  20.400  0.00  0.00    +0.000 A 
ATOM      8  C   UNL     1      11.180  12.253  20.153  0.00  0.00    +0.000 A 
ATOM      9  C   UNL     1      10.164  11.394  19.350  0.00  0.00    +0.000 A 
ATOM     10  H   UNL     1       8.880  12.920  16.767  0.00  0.00    +0.000 HD
ENDROOT
BRANCH   6  11
ATOM     11  C   UNL     1      10.689  16.249  19.368  0.00  0.00    +0.000 C 
ATOM     12  C   UNL     1      10.706  17.464  20.295  0.00  0.00    +0.000 C 
ATOM     13  C   UNL     1       9.303  16.964  19.871  0.00  0.00    +0.000 C 
ATOM     14  C   UNL     1       8.787  17.237  21.270  0.00  0.00    +0.000 C 
ATOM     15  O   UNL     1       8.774  16.396  22.146  0.00  0.00    +0.000 OA
ATOM     16  N   UNL     1       8.135  18.472  21.197  0.00  0.00    +0.000 N 
ATOM     17  C   UNL     1       7.126  18.149  20.288  0.00  0.00    +0.000 A 
ATOM     18  C   UNL     1       5.821  18.223  20.826  0.00  0.00    +0.000 A 
ATOM     19  C   UNL     1       4.818  17.456  20.296  0.00  0.00    +0.000 A 
ATOM     20  C   UNL     1       5.177  16.640  19.225  0.00  0.00    +0.000 A 
ATOM     21  C   UNL     1       6.580  16.539  18.727  0.00  0.00    +0.000 A 
ATOM     22  C   UNL     1       7.687  17.299  19.275  0.00  0.00    +0.000 A 
ATOM     23  H   UNL     1       8.699  19.120  20.637  0.00  0.00    +0.000 HD
ENDBRANCH   6  11
BRANCH   1  25
ATOM     24  C   UNL     1       7.666   8.442  17.504  0.00  0.00    +0.000 C 
ATOM     25  C   UNL     1       8.589   9.052  18.298  0.00  0.00    +0.000 C 
BRANCH  24  29
ATOM     26  C   UNL     1       5.379   4.501  17.422  0.00  0.00    +0.000 A 
ATOM     27  C   UNL     1       6.557   4.567  18.173  0.00  0.00    +0.000 A 
ATOM     28  C   UNL     1       7.354   5.797  18.244  0.00  0.00    +0.000 A 
ATOM     29  C   UNL     1       7.005   7.004  17.562  0.00  0.00    +0.000 A 
ATOM     30  C   UNL     1       5.862   6.845  16.763  0.00  0.00    +0.000 A 
ATOM     31  C   UNL     1       5.131   5.633  16.641  0.00  0.00    +0.000 A 
BRANCH  26  32
ATOM     32  C   UNL     1       4.343   3.350  17.449  0.00  0.00    +0.000 C 
BRANCH  32  33
ATOM     33  N   UNL     1       3.041   3.654  18.140  0.00  0.00    +0.000 NA
BRANCH  33  35
ATOM     34  C   UNL     1       0.794   2.667  18.843  0.00  0.00    +0.000 C 
ATOM     35  C   UNL     1       2.125   2.488  18.101  0.00  0.00    +0.000 C 
ENDBRANCH  33  35
BRANCH  33  36
ATOM     36  C   UNL     1       3.258   4.113  19.538  0.00  0.00    +0.000 C 
ATOM     37  C   UNL     1       2.899   5.573  19.803  0.00  0.00    +0.000 C 
ENDBRANCH  33  36
ENDBRANCH  32  33
ENDBRANCH  26  32
ENDBRANCH  24  29
ENDBRANCH   1  25
TORSDOF 7
ENDMDL
MODEL 5
REMARK VINA RESULT:      -8.1      2.791     12.143
REMARK  Name = 
REMARK  9 active torsions:
REMARK  status: ('A' for Active; 'I' for Inactive)
REMARK    1  A    between atoms: C_1  and  C_2
REMARK    2  A    between atoms: C_2  and  N_3
REMARK    3  A    between atoms: N_3  and  C_4
REMARK    4  A    between atoms: N_3  and  C_6
REMARK    5  A    between atoms: C_4  and  C_5
REMARK    6  A    between atoms: C_6  and  C_7
REMARK    7  A    between atoms: C_10  and  C_11
REMARK    8  A    between atoms: C_12  and  C_13
REMARK    9  A    between atoms: C_18  and  C_19
REMARK                            x       y       z     vdW  Elec       q    Type
REMARK                         _______ _______ _______ _____ _____    ______ ____
ROOT
ATOM      1  C   UNL     1       9.232  10.531  18.551  0.00  0.00    +0.000 A 
ATOM      2  N   UNL     1       8.364  11.333  17.910  0.00  0.00    +0.000 NA
ATOM      3  N   UNL     1       9.197  12.227  17.510  0.00  0.00    +0.000 N 
ATOM      4  C   UNL     1      10.086  12.516  18.490  0.00  0.00    +0.000 A 
ATOM      5  C   UNL     1      10.422  13.890  18.561  0.00  0.00    +0.000 A 
ATOM      6  C   UNL     1      11.413  14.571  19.165  0.00  0.00    +0.000 A 
ATOM      7  C   UNL     1      12.189  13.619  19.787  0.00  0.00    +0.000 A 
ATOM      8  C   UNL     1      11.795  12.100  19.681  0.00  0.00    +0.000 A 
ATOM      9  C   UNL     1      10.564  11.318  19.144  0.00  0.00    +0.000 A 
ATOM     10  H   UNL     1       8.945  12.856  16.765  0.00  0.00    +0.000 HD
ENDROOT
BRANCH   6  11
ATOM     11  C   UNL     1      11.534  16.088  18.756  0.00  0.00    +0.000 C 
ATOM     12  C   UNL     1      11.763  17.343  19.597  0.00  0.00    +0.000 C 
ATOM     13  C   UNL     1      10.283  16.945  19.377  0.00  0.00    +0.000 C 
ATOM     14  C   UNL     1       9.969  17.333  20.808  0.00  0.00    +0.000 C 
ATOM     15  O   UNL     1       9.999  16.543  21.729  0.00  0.00    +0.000 OA
ATOM     16  N   UNL     1       9.412  18.614  20.736  0.00  0.00    +0.000 N 
ATOM     17  C   UNL     1       8.275  18.331  19.977  0.00  0.00    +0.000 A 
ATOM     18  C   UNL     1       7.056  18.545  20.662  0.00  0.00    +0.000 A 
ATOM     19  C   UNL     1       5.938  17.841  20.306  0.00  0.00    +0.000 A 
ATOM     20  C   UNL     1       6.096  16.942  19.252  0.00  0.00    +0.000 A 
ATOM     21  C   UNL     1       7.413  16.695  18.596  0.00  0.00    +0.000 A 
ATOM     22  C   UNL     1       8.637  17.385  18.959  0.00  0.00    +0.000 A 
ATOM     23  H   UNL     1       9.950  19.181  20.074  0.00  0.00    +0.000 HD
ENDBRANCH   6  11
BRANCH   1  25
ATOM     24  C   UNL     1       8.017   8.326  17.613  0.00  0.00    +0.000 C 
ATOM     25  C   UNL     1       8.602   9.109  18.563  0.00  0.00    +0.000 C 
BRANCH  24  29
ATOM     26  C   UNL     1       5.142   4.790  17.591  0.00  0.00    +0.000 A 
ATOM     27  C   UNL     1       6.193   4.782  18.513  0.00  0.00    +0.000 A 
ATOM     28  C   UNL     1       7.165   5.880  18.578  0.00  0.00    +0.000 A 
ATOM     29  C   UNL     1       7.124   7.022  17.720  0.00  0.00    +0.000 A 
ATOM     30  C   UNL     1       6.099   6.927  16.767  0.00  0.00    +0.000 A 
ATOM     31  C   UNL     1       5.201   5.831  16.660  0.00  0.00    +0.000 A 
BRANCH  26  32
ATOM     32  C   UNL     1       3.935   3.819  17.574  0.00  0.00    +0.000 C 
BRANCH  32  33
ATOM     33  N   UNL     1       2.771   4.203  18.446  0.00  0.00    +0.000 NA
BRANCH  33  35
ATOM     34  C   UNL     1       1.976   3.034  20.573  0.00  0.00    +0.000 C 
ATOM     35  C   UNL     1       3.040   3.890  19.872  0.00  0.00    +0.000 C 
ENDBRANCH  33  35
BRANCH  33  36
ATOM     36  C   UNL     1       2.409   5.635  18.276  0.00  0.00    +0.000 C 
ATOM     37  C   UNL     1       2.629   6.510  19.507  0.00  0.00    +0.000 C 
ENDBRANCH  33  36
ENDBRANCH  32  33
ENDBRANCH  26  32
ENDBRANCH  24  29
ENDBRANCH   1  25
TORSDOF 7
ENDMDL
MODEL 6
REMARK VINA RESULT:      -8.1      8.497     12.265
REMARK  Name = 
REMARK  9 active torsions:
REMARK  status: ('A' for Active; 'I' for Inactive)
REMARK    1  A    between atoms: C_1  and  C_2
REMARK    2  A    between atoms: C_2  and  N_3
REMARK    3  A    between atoms: N_3  and  C_4
REMARK    4  A    between atoms: N_3  and  C_6
REMARK    5  A    between atoms: C_4  and  C_5
REMARK    6  A    between atoms: C_6  and  C_7
REMARK    7  A    between atoms: C_10  and  C_11
REMARK    8  A    between atoms: C_12  and  C_13
REMARK    9  A    between atoms: C_18  and  C_19
REMARK                            x       y       z     vdW  Elec       q    Type
REMARK                         _______ _______ _______ _____ _____    ______ ____
ROOT
ATOM      1  C   UNL     1       0.014  10.497  19.859  0.00  0.00    +0.000 A 
ATOM      2  N   UNL     1      -1.156  10.147  19.298  0.00  0.00    +0.000 NA
ATOM      3  N   UNL     1      -1.635  11.327  19.115  0.00  0.00    +0.000 N 
ATOM      4  C   UNL     1      -1.387  12.110  20.193  0.00  0.00    +0.000 A 
ATOM      5  C   UNL     1      -2.455  12.981  20.516  0.00  0.00    +0.000 A 
ATOM      6  C   UNL     1      -2.557  14.072  21.297  0.00  0.00    +0.000 A 
ATOM      7  C   UNL     1      -1.295  14.278  21.808  0.00  0.00    +0.000 A 
ATOM      8  C   UNL     1      -0.127  13.298  21.422  0.00  0.00    +0.000 A 
ATOM      9  C   UNL     1      -0.033  11.940  20.672  0.00  0.00    +0.000 A 
ATOM     10  H   UNL     1      -2.393  11.470  18.468  0.00  0.00    +0.000 HD
ENDROOT
BRANCH   6  11
ATOM     11  C   UNL     1      -3.903  14.879  21.155  0.00  0.00    +0.000 C 
ATOM     12  C   UNL     1      -5.023  15.154  22.158  0.00  0.00    +0.000 C 
ATOM     13  C   UNL     1      -5.186  13.871  21.307  0.00  0.00    +0.000 C 
ATOM     14  C   UNL     1      -5.726  13.139  22.519  0.00  0.00    +0.000 C 
ATOM     15  O   UNL     1      -5.022  12.496  23.272  0.00  0.00    +0.000 OA
ATOM     16  N   UNL     1      -7.117  13.153  22.378  0.00  0.00    +0.000 N 
ATOM     17  C   UNL     1      -7.239  12.425  21.193  0.00  0.00    +0.000 A 
ATOM     18  C   UNL     1      -7.915  11.193  21.340  0.00  0.00    +0.000 A 
ATOM     19  C   UNL     1      -7.656  10.162  20.476  0.00  0.00    +0.000 A 
ATOM     20  C   UNL     1      -6.716  10.425  19.481  0.00  0.00    +0.000 A 
ATOM     21  C   UNL     1      -5.973  11.716  19.397  0.00  0.00    +0.000 A 
ATOM     22  C   UNL     1      -6.181  12.827  20.308  0.00  0.00    +0.000 A 
ATOM     23  H   UNL     1      -7.417  14.082  22.066  0.00  0.00    +0.000 HD
ENDBRANCH   6  11
BRANCH   1  25
ATOM     24  C   UNL     1       1.772   8.969  18.520  0.00  0.00    +0.000 C 
ATOM     25  C   UNL     1       1.006   9.330  19.588  0.00  0.00    +0.000 C 
BRANCH  24  29
ATOM     26  C   UNL     1       4.187   5.355  17.150  0.00  0.00    +0.000 A 
ATOM     27  C   UNL     1       3.200   5.161  18.122  0.00  0.00    +0.000 A 
ATOM     28  C   UNL     1       2.385   6.275  18.620  0.00  0.00    +0.000 A 
ATOM     29  C   UNL     1       2.531   7.624  18.169  0.00  0.00    +0.000 A 
ATOM     30  C   UNL     1       3.591   7.762  17.260  0.00  0.00    +0.000 A 
ATOM     31  C   UNL     1       4.425   6.694  16.830  0.00  0.00    +0.000 A 
BRANCH  26  32
ATOM     32  C   UNL     1       4.947   4.242  16.386  0.00  0.00    +0.000 C 
BRANCH  32  33
ATOM     33  N   UNL     1       6.410   4.105  16.708  0.00  0.00    +0.000 NA
BRANCH  33  35
ATOM     34  C   UNL     1       6.761   4.827  14.284  0.00  0.00    +0.000 C 
ATOM     35  C   UNL     1       7.248   4.855  15.740  0.00  0.00    +0.000 C 
ENDBRANCH  33  35
BRANCH  33  36
ATOM     36  C   UNL     1       6.704   4.527  18.104  0.00  0.00    +0.000 C 
ATOM     37  C   UNL     1       7.673   5.700  18.235  0.00  0.00    +0.000 C 
ENDBRANCH  33  36
ENDBRANCH  32  33
ENDBRANCH  26  32
ENDBRANCH  24  29
ENDBRANCH   1  25
TORSDOF 7
ENDMDL
MODEL 7
REMARK VINA RESULT:      -8.1      7.370     12.283
REMARK  Name = 
REMARK  9 active torsions:
REMARK  status: ('A' for Active; 'I' for Inactive)
REMARK    1  A    between atoms: C_1  and  C_2
REMARK    2  A    between atoms: C_2  and  N_3
REMARK    3  A    between atoms: N_3  and  C_4
REMARK    4  A    between atoms: N_3  and  C_6
REMARK    5  A    between atoms: C_4  and  C_5
REMARK    6  A    between atoms: C_6  and  C_7
REMARK    7  A    between atoms: C_10  and  C_11
REMARK    8  A    between atoms: C_12  and  C_13
REMARK    9  A    between atoms: C_18  and  C_19
REMARK                            x       y       z     vdW  Elec       q    Type
REMARK                         _______ _______ _______ _____ _____    ______ ____
ROOT
ATOM      1  C   UNL     1       1.531   9.448  18.255  0.00  0.00    +0.000 A 
ATOM      2  N   UNL     1       1.981  10.397  17.417  0.00  0.00    +0.000 NA
ATOM      3  N   UNL     1       1.863  11.410  18.201  0.00  0.00    +0.000 N 
ATOM      4  C   UNL     1       0.700  11.341  18.890  0.00  0.00    +0.000 A 
ATOM      5  C   UNL     1       0.069  12.597  19.061  0.00  0.00    +0.000 A 
ATOM      6  C   UNL     1      -0.916  13.037  19.866  0.00  0.00    +0.000 A 
ATOM      7  C   UNL     1      -1.277  11.951  20.633  0.00  0.00    +0.000 A 
ATOM      8  C   UNL     1      -0.550  10.572  20.426  0.00  0.00    +0.000 A 
ATOM      9  C   UNL     1       0.454  10.004  19.386  0.00  0.00    +0.000 A 
ATOM     10  H   UNL     1       2.359  12.264  18.003  0.00  0.00    +0.000 HD
ENDROOT
BRANCH   6  11
ATOM     11  C   UNL     1      -1.121  14.598  19.887  0.00  0.00    +0.000 C 
ATOM     12  C   UNL     1      -0.168  15.736  20.251  0.00  0.00    +0.000 C 
ATOM     13  C   UNL     1      -1.007  15.165  21.420  0.00  0.00    +0.000 C 
ATOM     14  C   UNL     1       0.193  15.289  22.338  0.00  0.00    +0.000 C 
ATOM     15  O   UNL     1       0.982  14.384  22.521  0.00  0.00    +0.000 OA
ATOM     16  N   UNL     1      -0.003  16.473  23.056  0.00  0.00    +0.000 N 
ATOM     17  C   UNL     1      -1.182  16.145  23.728  0.00  0.00    +0.000 A 
ATOM     18  C   UNL     1      -1.045  16.077  25.134  0.00  0.00    +0.000 A 
ATOM     19  C   UNL     1      -1.883  15.280  25.866  0.00  0.00    +0.000 A 
ATOM     20  C   UNL     1      -2.843  14.578  25.140  0.00  0.00    +0.000 A 
ATOM     21  C   UNL     1      -2.916  14.623  23.650  0.00  0.00    +0.000 A 
ATOM     22  C   UNL     1      -2.030  15.421  22.823  0.00  0.00    +0.000 A 
ATOM     23  H   UNL     1      -0.340  17.203  22.421  0.00  0.00    +0.000 HD
ENDBRANCH   6  11
BRANCH   1  25
ATOM     24  C   UNL     1       3.397   7.547  17.905  0.00  0.00    +0.000 C 
ATOM     25  C   UNL     1       2.159   8.104  17.787  0.00  0.00    +0.000 C 
BRANCH  24  29
ATOM     26  C   UNL     1       5.532   4.362  15.442  0.00  0.00    +0.000 A 
ATOM     27  C   UNL     1       4.727   3.945  16.506  0.00  0.00    +0.000 A 
ATOM     28  C   UNL     1       4.012   4.910  17.351  0.00  0.00    +0.000 A 
ATOM     29  C   UNL     1       4.081   6.325  17.165  0.00  0.00    +0.000 A 
ATOM     30  C   UNL     1       4.969   6.678  16.137  0.00  0.00    +0.000 A 
ATOM     31  C   UNL     1       5.714   5.746  15.365  0.00  0.00    +0.000 A 
BRANCH  26  32
ATOM     32  C   UNL     1       6.146   3.450  14.350  0.00  0.00    +0.000 C 
BRANCH  32  33
ATOM     33  N   UNL     1       5.927   3.888  12.928  0.00  0.00    +0.000 NA
BRANCH  33  35
ATOM     34  C   UNL     1       7.913   5.454  12.577  0.00  0.00    +0.000 C 
ATOM     35  C   UNL     1       7.216   4.130  12.234  0.00  0.00    +0.000 C 
ENDBRANCH  33  35
BRANCH  33  36
ATOM     36  C   UNL     1       5.095   2.911  12.177  0.00  0.00    +0.000 C 
ATOM     37  C   UNL     1       4.061   3.527  11.238  0.00  0.00    +0.000 C 
ENDBRANCH  33  36
ENDBRANCH  32  33
ENDBRANCH  26  32
ENDBRANCH  24  29
ENDBRANCH   1  25
TORSDOF 7
ENDMDL
MODEL 8
REMARK VINA RESULT:      -7.9      7.799     12.121
REMARK  Name = 
REMARK  9 active torsions:
REMARK  status: ('A' for Active; 'I' for Inactive)
REMARK    1  A    between atoms: C_1  and  C_2
REMARK    2  A    between atoms: C_2  and  N_3
REMARK    3  A    between atoms: N_3  and  C_4
REMARK    4  A    between atoms: N_3  and  C_6
REMARK    5  A    between atoms: C_4  and  C_5
REMARK    6  A    between atoms: C_6  and  C_7
REMARK    7  A    between atoms: C_10  and  C_11
REMARK    8  A    between atoms: C_12  and  C_13
REMARK    9  A    between atoms: C_18  and  C_19
REMARK                            x       y       z     vdW  Elec       q    Type
REMARK                         _______ _______ _______ _____ _____    ______ ____
ROOT
ATOM      1  C   UNL     1       1.225  10.425  18.195  0.00  0.00    +0.000 A 
ATOM      2  N   UNL     1      -0.117  10.349  18.195  0.00  0.00    +0.000 NA
ATOM      3  N   UNL     1      -0.374  11.599  18.028  0.00  0.00    +0.000 N 
ATOM      4  C   UNL     1       0.454  12.356  18.786  0.00  0.00    +0.000 A 
ATOM      5  C   UNL     1      -0.178  13.488  19.356  0.00  0.00    +0.000 A 
ATOM      6  C   UNL     1       0.281  14.614  19.932  0.00  0.00    +0.000 A 
ATOM      7  C   UNL     1       1.654  14.524  19.874  0.00  0.00    +0.000 A 
ATOM      8  C   UNL     1       2.327  13.258  19.225  0.00  0.00    +0.000 A 
ATOM      9  C   UNL     1       1.819  11.879  18.723  0.00  0.00    +0.000 A 
ATOM     10  H   UNL     1      -1.284  11.890  17.712  0.00  0.00    +0.000 HD
ENDROOT
BRANCH   6  11
ATOM     11  C   UNL     1      -0.804  15.725  20.198  0.00  0.00    +0.000 C 
ATOM     12  C   UNL     1      -0.911  16.787  21.291  0.00  0.00    +0.000 C 
ATOM     13  C   UNL     1      -1.584  15.429  21.608  0.00  0.00    +0.000 C 
ATOM     14  C   UNL     1      -1.101  15.527  23.041  0.00  0.00    +0.000 C 
ATOM     15  O   UNL     1      -0.052  15.045  23.419  0.00  0.00    +0.000 OA
ATOM     16  N   UNL     1      -2.194  15.997  23.775  0.00  0.00    +0.000 N 
ATOM     17  C   UNL     1      -3.087  14.946  23.563  0.00  0.00    +0.000 A 
ATOM     18  C   UNL     1      -3.431  14.235  24.736  0.00  0.00    +0.000 A 
ATOM     19  C   UNL     1      -3.818  12.925  24.655  0.00  0.00    +0.000 A 
ATOM     20  C   UNL     1      -3.850  12.379  23.373  0.00  0.00    +0.000 A 
ATOM     21  C   UNL     1      -3.417  13.140  22.164  0.00  0.00    +0.000 A 
ATOM     22  C   UNL     1      -2.962  14.517  22.198  0.00  0.00    +0.000 A 
ATOM     23  H   UNL     1      -2.654  16.750  23.254  0.00  0.00    +0.000 HD
ENDBRANCH   6  11
BRANCH   1  25
ATOM     24  C   UNL     1       2.528   8.079  18.339  0.00  0.00    +0.000 C 
ATOM     25  C   UNL     1       1.750   9.030  17.749  0.00  0.00    +0.000 C 
BRANCH  24  29
ATOM     26  C   UNL     1       4.977   4.773  16.379  0.00  0.00    +0.000 A 
ATOM     27  C   UNL     1       3.898   4.405  17.190  0.00  0.00    +0.000 A 
ATOM     28  C   UNL     1       3.066   5.410  17.862  0.00  0.00    +0.000 A 
ATOM     29  C   UNL     1       3.286   6.818  17.752  0.00  0.00    +0.000 A 
ATOM     30  C   UNL     1       4.429   7.115  16.994  0.00  0.00    +0.000 A 
ATOM     31  C   UNL     1       5.274   6.138  16.401  0.00  0.00    +0.000 A 
BRANCH  26  32
ATOM     32  C   UNL     1       5.778   3.832  15.445  0.00  0.00    +0.000 C 
BRANCH  32  33
ATOM     33  N   UNL     1       6.108   4.382  14.084  0.00  0.00    +0.000 NA
BRANCH  33  35
ATOM     34  C   UNL     1       7.992   5.394  12.689  0.00  0.00    +0.000 C 
ATOM     35  C   UNL     1       7.437   5.041  14.076  0.00  0.00    +0.000 C 
ENDBRANCH  33  35
BRANCH  33  36
ATOM     36  C   UNL     1       6.031   3.329  13.036  0.00  0.00    +0.000 C 
ATOM     37  C   UNL     1       4.824   3.427  12.107  0.00  0.00    +0.000 C 
ENDBRANCH  33  36
ENDBRANCH  32  33
ENDBRANCH  26  32
ENDBRANCH  24  29
ENDBRANCH   1  25
TORSDOF 7
ENDMDL
MODEL 9
REMARK VINA RESULT:      -7.9      2.924     12.318
REMARK  Name = 
REMARK  9 active torsions:
REMARK  status: ('A' for Active; 'I' for Inactive)
REMARK    1  A    between atoms: C_1  and  C_2
REMARK    2  A    between atoms: C_2  and  N_3
REMARK    3  A    between atoms: N_3  and  C_4
REMARK    4  A    between atoms: N_3  and  C_6
REMARK    5  A    between atoms: C_4  and  C_5
REMARK    6  A    between atoms: C_6  and  C_7
REMARK    7  A    between atoms: C_10  and  C_11
REMARK    8  A    between atoms: C_12  and  C_13
REMARK    9  A    between atoms: C_18  and  C_19
REMARK                            x       y       z     vdW  Elec       q    Type
REMARK                         _______ _______ _______ _____ _____    ______ ____
ROOT
ATOM      1  C   UNL     1       9.004  10.761  18.090  0.00  0.00    +0.000 A 
ATOM      2  N   UNL     1       7.978  11.615  17.940  0.00  0.00    +0.000 NA
ATOM      3  N   UNL     1       8.588  12.520  17.258  0.00  0.00    +0.000 N 
ATOM      4  C   UNL     1       9.829  12.731  17.758  0.00  0.00    +0.000 A 
ATOM      5  C   UNL     1      10.220  14.092  17.742  0.00  0.00    +0.000 A 
ATOM      6  C   UNL     1      11.404  14.717  17.880  0.00  0.00    +0.000 A 
ATOM      7  C   UNL     1      12.333  13.714  18.047  0.00  0.00    +0.000 A 
ATOM      8  C   UNL     1      11.868  12.212  18.050  0.00  0.00    +0.000 A 
ATOM      9  C   UNL     1      10.494  11.486  18.073  0.00  0.00    +0.000 A 
ATOM     10  H   UNL     1       8.061  13.199  16.733  0.00  0.00    +0.000 HD
ENDROOT
BRANCH   6  11
ATOM     11  C   UNL     1      11.398  16.254  17.536  0.00  0.00    +0.000 C 
ATOM     12  C   UNL     1      11.828  17.472  18.353  0.00  0.00    +0.000 C 
ATOM     13  C   UNL     1      10.346  17.049  18.509  0.00  0.00    +0.000 C 
ATOM     14  C   UNL     1      10.416  17.359  19.991  0.00  0.00    +0.000 C 
ATOM     15  O   UNL     1      10.696  16.525  20.828  0.00  0.00    +0.000 OA
ATOM     16  N   UNL     1       9.847  18.628  20.137  0.00  0.00    +0.000 N 
ATOM     17  C   UNL     1       8.553  18.356  19.690  0.00  0.00    +0.000 A 
ATOM     18  C   UNL     1       7.557  18.506  20.681  0.00  0.00    +0.000 A 
ATOM     19  C   UNL     1       6.391  17.794  20.593  0.00  0.00    +0.000 A 
ATOM     20  C   UNL     1       6.274  16.952  19.489  0.00  0.00    +0.000 A 
ATOM     21  C   UNL     1       7.375  16.770  18.497  0.00  0.00    +0.000 A 
ATOM     22  C   UNL     1       8.644  17.470  18.563  0.00  0.00    +0.000 A 
ATOM     23  H   UNL     1      10.187  19.240  19.388  0.00  0.00    +0.000 HD
ENDBRANCH   6  11
BRANCH   1  25
ATOM     24  C   UNL     1       7.985   8.353  17.469  0.00  0.00    +0.000 C 
ATOM     25  C   UNL     1       8.383   9.351  18.308  0.00  0.00    +0.000 C 
BRANCH  24  29
ATOM     26  C   UNL     1       5.020   4.930  17.978  0.00  0.00    +0.000 A 
ATOM     27  C   UNL     1       6.322   4.754  18.458  0.00  0.00    +0.000 A 
ATOM     28  C   UNL     1       7.337   5.806  18.326  0.00  0.00    +0.000 A 
ATOM     29  C   UNL     1       7.088   7.069  17.704  0.00  0.00    +0.000 A 
ATOM     30  C   UNL     1       5.792   7.147  17.172  0.00  0.00    +0.000 A 
ATOM     31  C   UNL     1       4.832   6.101  17.239  0.00  0.00    +0.000 A 
BRANCH  26  32
ATOM     32  C   UNL     1       3.812   4.000  18.256  0.00  0.00    +0.000 C 
BRANCH  32  33
ATOM     33  N   UNL     1       3.594   3.618  19.694  0.00  0.00    +0.000 NA
BRANCH  33  35
ATOM     34  C   UNL     1       2.140   5.708  19.496  0.00  0.00    +0.000 C 
ATOM     35  C   UNL     1       2.631   4.534  20.354  0.00  0.00    +0.000 C 
ENDBRANCH  33  35
BRANCH  33  36
ATOM     36  C   UNL     1       3.156   2.203  19.823  0.00  0.00    +0.000 C 
ATOM     37  C   UNL     1       2.049   1.777  18.861  0.00  0.00    +0.000 C 
ENDBRANCH  33  36
ENDBRANCH  32  33
ENDBRANCH  26  32
ENDBRANCH  24  29
ENDBRANCH   1  25
TORSDOF 7
ENDMDL
