MODEL 1
REMARK VINA RESULT:      -6.9      0.000      0.000
REMARK  Name = 
REMARK  7 active torsions:
REMARK  status: ('A' for Active; 'I' for Inactive)
REMARK    1  A    between atoms: C_1  and  C_2
REMARK    2  A    between atoms: C_4  and  N_5
REMARK    3  A    between atoms: N_5  and  C_6
REMARK    4  A    between atoms: C_10  and  S_11
REMARK    5  A    between atoms: S_11  and  N_14
REMARK    6  A    between atoms: C_17  and  O_18
REMARK    7  A    between atoms: C_22  and  C_23
REMARK                            x       y       z     vdW  Elec       q    Type
REMARK                         _______ _______ _______ _____ _____    ______ ____
ROOT
ATOM      1  C   UNL     1       2.001   6.355  20.265  0.00  0.00    +0.000 A 
ATOM      2  C   UNL     1       0.981   5.549  20.790  0.00  0.00    +0.000 A 
ATOM      3  C   UNL     1       0.997   4.154  20.643  0.00  0.00    +0.000 A 
ATOM      4  C   UNL     1       2.049   3.537  19.977  0.00  0.00    +0.000 A 
ATOM      5  C   UNL     1       3.089   4.326  19.484  0.00  0.00    +0.000 A 
ATOM      6  C   UNL     1       3.072   5.721  19.631  0.00  0.00    +0.000 A 
ENDROOT
BRANCH   5   7
ATOM      7  S   UNL     1       4.494   3.569  18.703  0.00  0.00    +0.000 S 
ATOM      8  O   UNL     1       5.292   3.003  19.771  0.00  0.00    +0.000 OA
ATOM      9  O   UNL     1       4.019   2.760  17.604  0.00  0.00    +0.000 OA
BRANCH   7  10
ATOM     10  N   UNL     1       5.316   4.943  18.050  0.00  0.00    +0.000 NA
ATOM     11  C   UNL     1       4.907   5.272  16.661  0.00  0.00    +0.000 C 
ATOM     12  C   UNL     1       5.540   6.576  16.200  0.00  0.00    +0.000 C 
ATOM     13  C   UNL     1       7.056   6.570  16.359  0.00  0.00    +0.000 C 
ATOM     14  C   UNL     1       7.475   6.175  17.767  0.00  0.00    +0.000 C 
ATOM     15  C   UNL     1       6.785   4.912  18.270  0.00  0.00    +0.000 C 
BRANCH  13  16
ATOM     16  O   UNL     1       7.686   5.676  15.444  0.00  0.00    +0.000 OA
ATOM     17  H   UNL     1       7.028   5.061  15.079  0.00  0.00    +0.000 HD
ENDBRANCH  13  16
ENDBRANCH   7  10
ENDBRANCH   5   7
BRANCH   1  18
ATOM     18  N   UNL     1       1.865   7.739  20.389  0.00  0.00    +0.000 N 
ATOM     19  H   UNL     1       2.752   8.215  20.240  0.00  0.00    +0.000 HD
BRANCH  18  23
ATOM     20  C   UNL     1       0.350  11.791  21.513  0.00  0.00    +0.000 C 
ATOM     21  C   UNL     1       0.985  10.538  20.941  0.00  0.00    +0.000 C 
ATOM     22  C   UNL     1       0.089   9.307  20.992  0.00  0.00    +0.000 C 
ATOM     23  C   UNL     1       0.679   8.445  19.882  0.00  0.00    +0.000 C 
ATOM     24  C   UNL     1       0.992   9.543  18.842  0.00  0.00    +0.000 C 
ATOM     25  C   UNL     1       2.104   9.275  17.846  0.00  0.00    +0.000 C 
ATOM     26  O   UNL     1       1.293  10.757  19.557  0.00  0.00    +0.000 OA
ENDBRANCH  18  23
ENDBRANCH   1  18
TORSDOF 5
ENDMDL
MODEL 2
REMARK VINA RESULT:      -6.9      1.583      2.273
REMARK  Name = 
REMARK  7 active torsions:
REMARK  status: ('A' for Active; 'I' for Inactive)
REMARK    1  A    between atoms: C_1  and  C_2
REMARK    2  A    between atoms: C_4  and  N_5
REMARK    3  A    between atoms: N_5  and  C_6
REMARK    4  A    between atoms: C_10  and  S_11
REMARK    5  A    between atoms: S_11  and  N_14
REMARK    6  A    between atoms: C_17  and  O_18
REMARK    7  A    between atoms: C_22  and  C_23
REMARK                            x       y       z     vdW  Elec       q    Type
REMARK                         _______ _______ _______ _____ _____    ______ ____
ROOT
ATOM      1  C   UNL     1       1.603   5.113  20.499  0.00  0.00    +0.000 A 
ATOM      2  C   UNL     1       1.716   4.250  21.599  0.00  0.00    +0.000 A 
ATOM      3  C   UNL     1       2.263   2.965  21.473  0.00  0.00    +0.000 A 
ATOM      4  C   UNL     1       2.725   2.524  20.238  0.00  0.00    +0.000 A 
ATOM      5  C   UNL     1       2.653   3.388  19.145  0.00  0.00    +0.000 A 
ATOM      6  C   UNL     1       2.106   4.673  19.272  0.00  0.00    +0.000 A 
ENDROOT
BRANCH   5   7
ATOM      7  S   UNL     1       3.312   2.895  17.570  0.00  0.00    +0.000 S 
ATOM      8  O   UNL     1       3.885   1.579  17.766  0.00  0.00    +0.000 OA
ATOM      9  O   UNL     1       2.305   3.138  16.563  0.00  0.00    +0.000 OA
BRANCH   7  10
ATOM     10  N   UNL     1       4.588   4.040  17.349  0.00  0.00    +0.000 NA
ATOM     11  C   UNL     1       5.367   3.825  16.103  0.00  0.00    +0.000 C 
ATOM     12  C   UNL     1       6.365   4.951  15.881  0.00  0.00    +0.000 C 
ATOM     13  C   UNL     1       7.273   5.163  17.088  0.00  0.00    +0.000 C 
ATOM     14  C   UNL     1       6.475   5.324  18.374  0.00  0.00    +0.000 C 
ATOM     15  C   UNL     1       5.416   4.245  18.566  0.00  0.00    +0.000 C 
BRANCH  13  16
ATOM     16  O   UNL     1       8.185   4.082  17.267  0.00  0.00    +0.000 OA
ATOM     17  H   UNL     1       8.569   3.830  16.411  0.00  0.00    +0.000 HD
ENDBRANCH  13  16
ENDBRANCH   7  10
ENDBRANCH   5   7
BRANCH   1  18
ATOM     18  N   UNL     1       0.975   6.344  20.699  0.00  0.00    +0.000 N 
ATOM     19  H   UNL     1       0.139   6.246  21.271  0.00  0.00    +0.000 HD
BRANCH  18  23
ATOM     20  C   UNL     1       1.649   9.742  17.874  0.00  0.00    +0.000 C 
ATOM     21  C   UNL     1       1.224   8.729  18.920  0.00  0.00    +0.000 C 
ATOM     22  C   UNL     1       2.383   8.015  19.604  0.00  0.00    +0.000 C 
ATOM     23  C   UNL     1       1.748   7.575  20.918  0.00  0.00    +0.000 C 
ATOM     24  C   UNL     1       0.885   8.820  21.217  0.00  0.00    +0.000 C 
ATOM     25  C   UNL     1      -0.353   8.632  22.071  0.00  0.00    +0.000 C 
ATOM     26  O   UNL     1       0.495   9.401  19.957  0.00  0.00    +0.000 OA
ENDBRANCH  18  23
ENDBRANCH   1  18
TORSDOF 5
ENDMDL
MODEL 3
REMARK VINA RESULT:      -6.8      0.963      1.332
REMARK  Name = 
REMARK  7 active torsions:
REMARK  status: ('A' for Active; 'I' for Inactive)
REMARK    1  A    between atoms: C_1  and  C_2
REMARK    2  A    between atoms: C_4  and  N_5
REMARK    3  A    between atoms: N_5  and  C_6
REMARK    4  A    between atoms: C_10  and  S_11
REMARK    5  A    between atoms: S_11  and  N_14
REMARK    6  A    between atoms: C_17  and  O_18
REMARK    7  A    between atoms: C_22  and  C_23
REMARK                            x       y       z     vdW  Elec       q    Type
REMARK                         _______ _______ _______ _____ _____    ______ ____
ROOT
ATOM      1  C   UNL     1       2.086   6.693  20.377  0.00  0.00    +0.000 A 
ATOM      2  C   UNL     1       1.062   5.770  20.635  0.00  0.00    +0.000 A 
ATOM      3  C   UNL     1       1.227   4.399  20.388  0.00  0.00    +0.000 A 
ATOM      4  C   UNL     1       2.435   3.924  19.888  0.00  0.00    +0.000 A 
ATOM      5  C   UNL     1       3.473   4.828  19.663  0.00  0.00    +0.000 A 
ATOM      6  C   UNL     1       3.306   6.199  19.911  0.00  0.00    +0.000 A 
ENDROOT
BRANCH   5   7
ATOM      7  S   UNL     1       5.059   4.250  19.108  0.00  0.00    +0.000 S 
ATOM      8  O   UNL     1       6.045   5.071  19.779  0.00  0.00    +0.000 OA
ATOM      9  O   UNL     1       5.076   2.809  19.214  0.00  0.00    +0.000 OA
BRANCH   7  10
ATOM     10  N   UNL     1       5.019   4.670  17.432  0.00  0.00    +0.000 NA
ATOM     11  C   UNL     1       5.635   3.647  16.550  0.00  0.00    +0.000 C 
ATOM     12  C   UNL     1       5.428   3.993  15.083  0.00  0.00    +0.000 C 
ATOM     13  C   UNL     1       5.915   5.398  14.748  0.00  0.00    +0.000 C 
ATOM     14  C   UNL     1       5.329   6.439  15.690  0.00  0.00    +0.000 C 
ATOM     15  C   UNL     1       5.459   6.063  17.161  0.00  0.00    +0.000 C 
BRANCH  13  16
ATOM     16  O   UNL     1       7.336   5.500  14.807  0.00  0.00    +0.000 OA
ATOM     17  H   UNL     1       7.696   5.610  13.911  0.00  0.00    +0.000 HD
ENDBRANCH  13  16
ENDBRANCH   7  10
ENDBRANCH   5   7
BRANCH   1  18
ATOM     18  N   UNL     1       1.808   8.047  20.579  0.00  0.00    +0.000 N 
ATOM     19  H   UNL     1       2.654   8.610  20.537  0.00  0.00    +0.000 HD
BRANCH  18  23
ATOM     20  C   UNL     1       0.230  12.164  21.311  0.00  0.00    +0.000 C 
ATOM     21  C   UNL     1       0.882  10.871  20.860  0.00  0.00    +0.000 C 
ATOM     22  C   UNL     1       0.010   9.636  21.045  0.00  0.00    +0.000 C 
ATOM     23  C   UNL     1       0.604   8.677  20.019  0.00  0.00    +0.000 C 
ATOM     24  C   UNL     1       0.885   9.670  18.871  0.00  0.00    +0.000 C 
ATOM     25  C   UNL     1       1.990   9.323  17.892  0.00  0.00    +0.000 C 
ATOM     26  O   UNL     1       1.171  10.955  19.456  0.00  0.00    +0.000 OA
ENDBRANCH  18  23
ENDBRANCH   1  18
TORSDOF 5
ENDMDL
MODEL 4
REMARK VINA RESULT:      -6.8      3.300      7.980
REMARK  Name = 
REMARK  7 active torsions:
REMARK  status: ('A' for Active; 'I' for Inactive)
REMARK    1  A    between atoms: C_1  and  C_2
REMARK    2  A    between atoms: C_4  and  N_5
REMARK    3  A    between atoms: N_5  and  C_6
REMARK    4  A    between atoms: C_10  and  S_11
REMARK    5  A    between atoms: S_11  and  N_14
REMARK    6  A    between atoms: C_17  and  O_18
REMARK    7  A    between atoms: C_22  and  C_23
REMARK                            x       y       z     vdW  Elec       q    Type
REMARK                         _______ _______ _______ _____ _____    ______ ____
ROOT
ATOM      1  C   UNL     1       2.309   6.800  19.555  0.00  0.00    +0.000 A 
ATOM      2  C   UNL     1       2.761   7.169  18.280  0.00  0.00    +0.000 A 
ATOM      3  C   UNL     1       2.500   8.439  17.746  0.00  0.00    +0.000 A 
ATOM      4  C   UNL     1       1.790   9.374  18.491  0.00  0.00    +0.000 A 
ATOM      5  C   UNL     1       1.368   9.031  19.776  0.00  0.00    +0.000 A 
ATOM      6  C   UNL     1       1.629   7.760  20.309  0.00  0.00    +0.000 A 
ENDROOT
BRANCH   5   7
ATOM      7  S   UNL     1       0.534  10.225  20.793  0.00  0.00    +0.000 S 
ATOM      8  O   UNL     1      -0.817   9.733  20.969  0.00  0.00    +0.000 OA
ATOM      9  O   UNL     1       1.381  10.526  21.924  0.00  0.00    +0.000 OA
BRANCH   7  10
ATOM     10  N   UNL     1       0.501  11.608  19.756  0.00  0.00    +0.000 NA
ATOM     11  C   UNL     1       1.073  12.829  20.378  0.00  0.00    +0.000 C 
ATOM     12  C   UNL     1       1.165  13.964  19.370  0.00  0.00    +0.000 C 
ATOM     13  C   UNL     1      -0.172  14.245  18.694  0.00  0.00    +0.000 C 
ATOM     14  C   UNL     1      -0.786  12.982  18.108  0.00  0.00    +0.000 C 
ATOM     15  C   UNL     1      -0.809  11.813  19.085  0.00  0.00    +0.000 C 
BRANCH  13  16
ATOM     16  O   UNL     1      -1.117  14.818  19.596  0.00  0.00    +0.000 OA
ATOM     17  H   UNL     1      -1.818  14.173  19.790  0.00  0.00    +0.000 HD
ENDBRANCH  13  16
ENDBRANCH   7  10
ENDBRANCH   5   7
BRANCH   1  18
ATOM     18  N   UNL     1       2.546   5.490  19.976  0.00  0.00    +0.000 N 
ATOM     19  H   UNL     1       2.884   5.463  20.935  0.00  0.00    +0.000 HD
BRANCH  18  23
ATOM     20  C   UNL     1       3.520   1.845  17.579  0.00  0.00    +0.000 C 
ATOM     21  C   UNL     1       3.240   2.934  18.596  0.00  0.00    +0.000 C 
ATOM     22  C   UNL     1       2.077   3.847  18.227  0.00  0.00    +0.000 C 
ATOM     23  C   UNL     1       1.656   4.385  19.590  0.00  0.00    +0.000 C 
ATOM     24  C   UNL     1       1.832   3.105  20.437  0.00  0.00    +0.000 C 
ATOM     25  C   UNL     1       2.109   3.272  21.918  0.00  0.00    +0.000 C 
ATOM     26  O   UNL     1       2.895   2.329  19.851  0.00  0.00    +0.000 OA
ENDBRANCH  18  23
ENDBRANCH   1  18
TORSDOF 5
ENDMDL
MODEL 5
REMARK VINA RESULT:      -6.8      3.366      7.853
REMARK  Name = 
REMARK  7 active torsions:
REMARK  status: ('A' for Active; 'I' for Inactive)
REMARK    1  A    between atoms: C_1  and  C_2
REMARK    2  A    between atoms: C_4  and  N_5
REMARK    3  A    between atoms: N_5  and  C_6
REMARK    4  A    between atoms: C_10  and  S_11
REMARK    5  A    between atoms: S_11  and  N_14
REMARK    6  A    between atoms: C_17  and  O_18
REMARK    7  A    between atoms: C_22  and  C_23
REMARK                            x       y       z     vdW  Elec       q    Type
REMARK                         _______ _______ _______ _____ _____    ______ ____
ROOT
ATOM      1  C   UNL     1       2.220   6.861  19.709  0.00  0.00    +0.000 A 
ATOM      2  C   UNL     1       2.792   7.096  18.450  0.00  0.00    +0.000 A 
ATOM      3  C   UNL     1       2.661   8.334  17.802  0.00  0.00    +0.000 A 
ATOM      4  C   UNL     1       1.964   9.369  18.415  0.00  0.00    +0.000 A 
ATOM      5  C   UNL     1       1.423   9.158  19.684  0.00  0.00    +0.000 A 
ATOM      6  C   UNL     1       1.554   7.921  20.330  0.00  0.00    +0.000 A 
ENDROOT
BRANCH   5   7
ATOM      7  S   UNL     1       0.601  10.482  20.537  0.00  0.00    +0.000 S 
ATOM      8  O   UNL     1       0.352  10.003  21.881  0.00  0.00    +0.000 OA
ATOM      9  O   UNL     1       1.336  11.702  20.293  0.00  0.00    +0.000 OA
BRANCH   7  10
ATOM     10  N   UNL     1      -0.899  10.572  19.682  0.00  0.00    +0.000 NA
ATOM     11  C   UNL     1      -0.882   9.860  18.379  0.00  0.00    +0.000 C 
ATOM     12  C   UNL     1      -2.267   9.836  17.751  0.00  0.00    +0.000 C 
ATOM     13  C   UNL     1      -2.869  11.232  17.627  0.00  0.00    +0.000 C 
ATOM     14  C   UNL     1      -2.832  11.983  18.950  0.00  0.00    +0.000 C 
ATOM     15  C   UNL     1      -1.467  11.944  19.628  0.00  0.00    +0.000 C 
BRANCH  13  16
ATOM     16  O   UNL     1      -2.190  12.021  16.652  0.00  0.00    +0.000 OA
ATOM     17  H   UNL     1      -2.285  11.614  15.775  0.00  0.00    +0.000 HD
ENDBRANCH  13  16
ENDBRANCH   7  10
ENDBRANCH   5   7
BRANCH   1  18
ATOM     18  N   UNL     1       2.333   5.577  20.245  0.00  0.00    +0.000 N 
ATOM     19  H   UNL     1       2.644   5.605  21.214  0.00  0.00    +0.000 HD
BRANCH  18  23
ATOM     20  C   UNL     1       2.779   2.149  17.411  0.00  0.00    +0.000 C 
ATOM     21  C   UNL     1       2.708   3.147  18.551  0.00  0.00    +0.000 C 
ATOM     22  C   UNL     1       1.526   4.103  18.470  0.00  0.00    +0.000 C 
ATOM     23  C   UNL     1       1.360   4.522  19.927  0.00  0.00    +0.000 C 
ATOM     24  C   UNL     1       1.643   3.170  20.616  0.00  0.00    +0.000 C 
ATOM     25  C   UNL     1       2.175   3.199  22.036  0.00  0.00    +0.000 C 
ATOM     26  O   UNL     1       2.568   2.436  19.791  0.00  0.00    +0.000 OA
ENDBRANCH  18  23
ENDBRANCH   1  18
TORSDOF 5
ENDMDL
MODEL 6
REMARK VINA RESULT:      -6.8      2.728      8.150
REMARK  Name = 
REMARK  7 active torsions:
REMARK  status: ('A' for Active; 'I' for Inactive)
REMARK    1  A    between atoms: C_1  and  C_2
REMARK    2  A    between atoms: C_4  and  N_5
REMARK    3  A    between atoms: N_5  and  C_6
REMARK    4  A    between atoms: C_10  and  S_11
REMARK    5  A    between atoms: S_11  and  N_14
REMARK    6  A    between atoms: C_17  and  O_18
REMARK    7  A    between atoms: C_22  and  C_23
REMARK                            x       y       z     vdW  Elec       q    Type
REMARK                         _______ _______ _______ _____ _____    ______ ____
ROOT
ATOM      1  C   UNL     1       2.492   7.444  18.981  0.00  0.00    +0.000 A 
ATOM      2  C   UNL     1       2.209   8.258  17.874  0.00  0.00    +0.000 A 
ATOM      3  C   UNL     1       1.338   9.354  17.970  0.00  0.00    +0.000 A 
ATOM      4  C   UNL     1       0.744   9.664  19.188  0.00  0.00    +0.000 A 
ATOM      5  C   UNL     1       1.048   8.885  20.305  0.00  0.00    +0.000 A 
ATOM      6  C   UNL     1       1.919   7.789  20.207  0.00  0.00    +0.000 A 
ENDROOT
BRANCH   5   7
ATOM      7  S   UNL     1       0.378   9.301  21.896  0.00  0.00    +0.000 S 
ATOM      8  O   UNL     1      -0.685   8.351  22.148  0.00  0.00    +0.000 OA
ATOM      9  O   UNL     1       1.477   9.467  22.820  0.00  0.00    +0.000 OA
BRANCH   7  10
ATOM     10  N   UNL     1      -0.313  10.856  21.591  0.00  0.00    +0.000 NA
ATOM     11  C   UNL     1       0.694  11.899  21.271  0.00  0.00    +0.000 C 
ATOM     12  C   UNL     1       0.022  13.198  20.855  0.00  0.00    +0.000 C 
ATOM     13  C   UNL     1      -0.987  13.683  21.891  0.00  0.00    +0.000 C 
ATOM     14  C   UNL     1      -1.983  12.594  22.263  0.00  0.00    +0.000 C 
ATOM     15  C   UNL     1      -1.322  11.263  22.603  0.00  0.00    +0.000 C 
BRANCH  13  16
ATOM     16  O   UNL     1      -0.352  14.127  23.088  0.00  0.00    +0.000 OA
ATOM     17  H   UNL     1       0.418  14.677  22.868  0.00  0.00    +0.000 HD
ENDBRANCH  13  16
ENDBRANCH   7  10
ENDBRANCH   5   7
BRANCH   1  18
ATOM     18  N   UNL     1       3.308   6.330  18.777  0.00  0.00    +0.000 N 
ATOM     19  H   UNL     1       2.957   5.516  19.276  0.00  0.00    +0.000 HD
BRANCH  18  23
ATOM     20  C   UNL     1       7.399   4.762  17.892  0.00  0.00    +0.000 C 
ATOM     21  C   UNL     1       5.938   5.048  18.180  0.00  0.00    +0.000 C 
ATOM     22  C   UNL     1       5.414   6.326  17.537  0.00  0.00    +0.000 C 
ATOM     23  C   UNL     1       3.917   6.051  17.468  0.00  0.00    +0.000 C 
ATOM     24  C   UNL     1       3.947   4.555  17.089  0.00  0.00    +0.000 C 
ATOM     25  C   UNL     1       2.755   3.703  17.481  0.00  0.00    +0.000 C 
ATOM     26  O   UNL     1       5.136   3.977  17.660  0.00  0.00    +0.000 OA
ENDBRANCH  18  23
ENDBRANCH   1  18
TORSDOF 5
ENDMDL
MODEL 7
REMARK VINA RESULT:      -6.7      2.822      8.086
REMARK  Name = 
REMARK  7 active torsions:
REMARK  status: ('A' for Active; 'I' for Inactive)
REMARK    1  A    between atoms: C_1  and  C_2
REMARK    2  A    between atoms: C_4  and  N_5
REMARK    3  A    between atoms: N_5  and  C_6
REMARK    4  A    between atoms: C_10  and  S_11
REMARK    5  A    between atoms: S_11  and  N_14
REMARK    6  A    between atoms: C_17  and  O_18
REMARK    7  A    between atoms: C_22  and  C_23
REMARK                            x       y       z     vdW  Elec       q    Type
REMARK                         _______ _______ _______ _____ _____    ______ ____
ROOT
ATOM      1  C   UNL     1       2.339   7.454  19.024  0.00  0.00    +0.000 A 
ATOM      2  C   UNL     1       2.071   8.240  17.894  0.00  0.00    +0.000 A 
ATOM      3  C   UNL     1       1.272   9.391  17.971  0.00  0.00    +0.000 A 
ATOM      4  C   UNL     1       0.736   9.784  19.192  0.00  0.00    +0.000 A 
ATOM      5  C   UNL     1       1.027   9.030  20.330  0.00  0.00    +0.000 A 
ATOM      6  C   UNL     1       1.826   7.881  20.251  0.00  0.00    +0.000 A 
ENDROOT
BRANCH   5   7
ATOM      7  S   UNL     1       0.434   9.548  21.922  0.00  0.00    +0.000 S 
ATOM      8  O   UNL     1      -0.662   8.661  22.252  0.00  0.00    +0.000 OA
ATOM      9  O   UNL     1       1.571   9.703  22.800  0.00  0.00    +0.000 OA
BRANCH   7  10
ATOM     10  N   UNL     1      -0.197  11.119  21.569  0.00  0.00    +0.000 NA
ATOM     11  C   UNL     1       0.855  12.132  21.301  0.00  0.00    +0.000 C 
ATOM     12  C   UNL     1       0.243  13.446  20.840  0.00  0.00    +0.000 C 
ATOM     13  C   UNL     1      -0.810  13.965  21.813  0.00  0.00    +0.000 C 
ATOM     14  C   UNL     1      -1.855  12.906  22.133  0.00  0.00    +0.000 C 
ATOM     15  C   UNL     1      -1.251  11.560  22.518  0.00  0.00    +0.000 C 
BRANCH  13  16
ATOM     16  O   UNL     1      -0.233  14.401  23.042  0.00  0.00    +0.000 OA
ATOM     17  H   UNL     1      -0.201  13.662  23.671  0.00  0.00    +0.000 HD
ENDBRANCH  13  16
ENDBRANCH   7  10
ENDBRANCH   5   7
BRANCH   1  18
ATOM     18  N   UNL     1       3.079   6.284  18.842  0.00  0.00    +0.000 N 
ATOM     19  H   UNL     1       3.980   6.478  18.411  0.00  0.00    +0.000 HD
BRANCH  18  23
ATOM     20  C   UNL     1       0.895   2.386  18.737  0.00  0.00    +0.000 C 
ATOM     21  C   UNL     1       1.831   3.577  18.671  0.00  0.00    +0.000 C 
ATOM     22  C   UNL     1       1.715   4.527  19.856  0.00  0.00    +0.000 C 
ATOM     23  C   UNL     1       3.078   5.209  19.845  0.00  0.00    +0.000 C 
ATOM     24  C   UNL     1       3.968   4.001  19.480  0.00  0.00    +0.000 C 
ATOM     25  C   UNL     1       5.284   4.280  18.781  0.00  0.00    +0.000 C 
ATOM     26  O   UNL     1       3.188   3.109  18.660  0.00  0.00    +0.000 OA
ENDBRANCH  18  23
ENDBRANCH   1  18
TORSDOF 5
ENDMDL
MODEL 8
REMARK VINA RESULT:      -6.7      1.338      2.160
REMARK  Name = 
REMARK  7 active torsions:
REMARK  status: ('A' for Active; 'I' for Inactive)
REMARK    1  A    between atoms: C_1  and  C_2
REMARK    2  A    between atoms: C_4  and  N_5
REMARK    3  A    between atoms: N_5  and  C_6
REMARK    4  A    between atoms: C_10  and  S_11
REMARK    5  A    between atoms: S_11  and  N_14
REMARK    6  A    between atoms: C_17  and  O_18
REMARK    7  A    between atoms: C_22  and  C_23
REMARK                            x       y       z     vdW  Elec       q    Type
REMARK                         _______ _______ _______ _____ _____    ______ ____
ROOT
ATOM      1  C   UNL     1       1.591   5.953  20.478  0.00  0.00    +0.000 A 
ATOM      2  C   UNL     1       0.751   4.836  20.359  0.00  0.00    +0.000 A 
ATOM      3  C   UNL     1       1.209   3.625  19.818  0.00  0.00    +0.000 A 
ATOM      4  C   UNL     1       2.529   3.507  19.398  0.00  0.00    +0.000 A 
ATOM      5  C   UNL     1       3.384   4.600  19.547  0.00  0.00    +0.000 A 
ATOM      6  C   UNL     1       2.925   5.810  20.088  0.00  0.00    +0.000 A 
ENDROOT
BRANCH   5   7
ATOM      7  S   UNL     1       5.099   4.461  19.104  0.00  0.00    +0.000 S 
ATOM      8  O   UNL     1       5.775   5.561  19.760  0.00  0.00    +0.000 OA
ATOM      9  O   UNL     1       5.509   3.091  19.310  0.00  0.00    +0.000 OA
BRANCH   7  10
ATOM     10  N   UNL     1       5.048   4.763  17.403  0.00  0.00    +0.000 NA
ATOM     11  C   UNL     1       5.743   3.728  16.597  0.00  0.00    +0.000 C 
ATOM     12  C   UNL     1       5.527   3.958  15.109  0.00  0.00    +0.000 C 
ATOM     13  C   UNL     1       5.919   5.368  14.680  0.00  0.00    +0.000 C 
ATOM     14  C   UNL     1       5.253   6.427  15.546  0.00  0.00    +0.000 C 
ATOM     15  C   UNL     1       5.393   6.162  17.040  0.00  0.00    +0.000 C 
BRANCH  13  16
ATOM     16  O   UNL     1       7.329   5.572  14.741  0.00  0.00    +0.000 OA
ATOM     17  H   UNL     1       7.726   4.947  15.370  0.00  0.00    +0.000 HD
ENDBRANCH  13  16
ENDBRANCH   7  10
ENDBRANCH   5   7
BRANCH   1  18
ATOM     18  N   UNL     1       1.031   7.140  20.955  0.00  0.00    +0.000 N 
ATOM     19  H   UNL     1       0.623   7.013  21.878  0.00  0.00    +0.000 HD
BRANCH  18  23
ATOM     20  C   UNL     1      -0.391  10.533  18.417  0.00  0.00    +0.000 C 
ATOM     21  C   UNL     1      -0.026   9.504  19.470  0.00  0.00    +0.000 C 
ATOM     22  C   UNL     1       1.368   8.914  19.308  0.00  0.00    +0.000 C 
ATOM     23  C   UNL     1       1.676   8.441  20.724  0.00  0.00    +0.000 C 
ATOM     24  C   UNL     1       1.054   9.606  21.524  0.00  0.00    +0.000 C 
ATOM     25  C   UNL     1       0.584   9.320  22.937  0.00  0.00    +0.000 C 
ATOM     26  O   UNL     1      -0.054  10.125  20.764  0.00  0.00    +0.000 OA
ENDBRANCH  18  23
ENDBRANCH   1  18
TORSDOF 5
ENDMDL
MODEL 9
REMARK VINA RESULT:      -6.7      3.566      8.059
REMARK  Name = 
REMARK  7 active torsions:
REMARK  status: ('A' for Active; 'I' for Inactive)
REMARK    1  A    between atoms: C_1  and  C_2
REMARK    2  A    between atoms: C_4  and  N_5
REMARK    3  A    between atoms: N_5  and  C_6
REMARK    4  A    between atoms: C_10  and  S_11
REMARK    5  A    between atoms: S_11  and  N_14
REMARK    6  A    between atoms: C_17  and  O_18
REMARK    7  A    between atoms: C_22  and  C_23
REMARK                            x       y       z     vdW  Elec       q    Type
REMARK                         _______ _______ _______ _____ _____    ______ ____
ROOT
ATOM      1  C   UNL     1       1.408   8.301  20.582  0.00  0.00    +0.000 A 
ATOM      2  C   UNL     1       0.798   8.068  21.823  0.00  0.00    +0.000 A 
ATOM      3  C   UNL     1      -0.139   8.962  22.362  0.00  0.00    +0.000 A 
ATOM      4  C   UNL     1      -0.496  10.105  21.655  0.00  0.00    +0.000 A 
ATOM      5  C   UNL     1       0.075  10.327  20.402  0.00  0.00    +0.000 A 
ATOM      6  C   UNL     1       1.013   9.433  19.864  0.00  0.00    +0.000 A 
ENDROOT
BRANCH   5   7
ATOM      7  S   UNL     1      -0.419  11.730  19.429  0.00  0.00    +0.000 S 
ATOM      8  O   UNL     1      -0.898  12.723  20.368  0.00  0.00    +0.000 OA
ATOM      9  O   UNL     1       0.640  12.025  18.491  0.00  0.00    +0.000 OA
BRANCH   7  10
ATOM     10  N   UNL     1      -1.762  11.091  18.548  0.00  0.00    +0.000 NA
ATOM     11  C   UNL     1      -1.370  10.378  17.306  0.00  0.00    +0.000 C 
ATOM     12  C   UNL     1      -2.571   9.702  16.662  0.00  0.00    +0.000 C 
ATOM     13  C   UNL     1      -3.720  10.676  16.419  0.00  0.00    +0.000 C 
ATOM     14  C   UNL     1      -4.081  11.449  17.679  0.00  0.00    +0.000 C 
ATOM     15  C   UNL     1      -2.874  12.062  18.377  0.00  0.00    +0.000 C 
BRANCH  13  16
ATOM     16  O   UNL     1      -3.413  11.620  15.395  0.00  0.00    +0.000 OA
ATOM     17  H   UNL     1      -3.374  11.170  14.535  0.00  0.00    +0.000 HD
ENDBRANCH  13  16
ENDBRANCH   7  10
ENDBRANCH   5   7
BRANCH   1  18
ATOM     18  N   UNL     1       2.386   7.400  20.157  0.00  0.00    +0.000 N 
ATOM     19  H   UNL     1       2.838   6.943  20.946  0.00  0.00    +0.000 HD
BRANCH  18  23
ATOM     20  C   UNL     1       5.430   5.015  17.916  0.00  0.00    +0.000 C 
ATOM     21  C   UNL     1       4.353   5.607  18.804  0.00  0.00    +0.000 C 
ATOM     22  C   UNL     1       3.445   6.608  18.102  0.00  0.00    +0.000 C 
ATOM     23  C   UNL     1       2.192   6.558  18.968  0.00  0.00    +0.000 C 
ATOM     24  C   UNL     1       2.146   5.043  19.266  0.00  0.00    +0.000 C 
ATOM     25  C   UNL     1       1.454   4.595  20.538  0.00  0.00    +0.000 C 
ATOM     26  O   UNL     1       3.500   4.553  19.277  0.00  0.00    +0.000 OA
ENDBRANCH  18  23
ENDBRANCH   1  18
TORSDOF 5
ENDMDL
