MODEL 1
REMARK VINA RESULT:      -9.9      0.000      0.000
REMARK  Name = 
REMARK  5 active torsions:
REMARK  status: ('A' for Active; 'I' for Inactive)
REMARK    1  A    between atoms: N_4  and  S_5
REMARK    2  A    between atoms: S_5  and  C_8
REMARK    3  A    between atoms: C_11  and  N_12
REMARK    4  A    between atoms: C_13  and  C_15
REMARK    5  A    between atoms: C_20  and  N_21
REMARK                            x       y       z     vdW  Elec       q    Type
REMARK                         _______ _______ _______ _____ _____    ______ ____
ROOT
ATOM      1  N   UNL     1       2.622   7.471  19.065  0.00  0.00    +0.000 N 
ATOM      2  C   UNL     1       3.377   7.277  17.916  0.00  0.00    +0.000 C 
ATOM      3  O   UNL     1       3.339   8.057  16.954  0.00  0.00    +0.000 OA
ATOM      4  H   UNL     1       2.900   6.957  19.897  0.00  0.00    +0.000 HD
ENDROOT
BRANCH   2   5
ATOM      5  C   UNL     1       4.214   6.043  17.726  0.00  0.00    +0.000 A 
ATOM      6  C   UNL     1       5.025   6.067  16.565  0.00  0.00    +0.000 A 
ATOM      7  C   UNL     1       5.525   4.907  16.002  0.00  0.00    +0.000 A 
ATOM      8  C   UNL     1       5.107   3.699  16.536  0.00  0.00    +0.000 A 
ATOM      9  C   UNL     1       4.320   3.670  17.706  0.00  0.00    +0.000 A 
ATOM     10  C   UNL     1       3.706   2.509  18.183  0.00  0.00    +0.000 A 
ATOM     11  C   UNL     1       2.771   2.715  19.200  0.00  0.00    +0.000 A 
ATOM     12  C   UNL     1       1.371   2.969  19.064  0.00  0.00    +0.000 A 
ATOM     13  C   UNL     1       0.637   3.341  20.206  0.00  0.00    +0.000 A 
ATOM     14  C   UNL     1       1.284   3.240  21.426  0.00  0.00    +0.000 A 
ATOM     15  C   UNL     1       2.670   3.156  21.392  0.00  0.00    +0.000 A 
ATOM     16  C   UNL     1       3.261   3.464  20.201  0.00  0.00    +0.000 A 
ATOM     17  N   UNL     1       3.606   4.703  19.740  0.00  0.00    +0.000 NA
ATOM     18  C   UNL     1       4.044   4.843  18.434  0.00  0.00    +0.000 A 
BRANCH  10  19
ATOM     19  N   UNL     1       3.795   1.259  17.536  0.00  0.00    +0.000 N 
ATOM     20  H   UNL     1       4.242   1.333  16.623  0.00  0.00    +0.000 HD
ATOM     21  H   UNL     1       4.293   0.580  18.106  0.00  0.00    +0.000 HD
ENDBRANCH  10  19
ENDBRANCH   2   5
BRANCH   1  25
ATOM     22  C   UNL     1      -0.349  10.510  19.423  0.00  0.00    +0.000 A 
ATOM     23  C   UNL     1       0.131  10.162  18.164  0.00  0.00    +0.000 A 
ATOM     24  C   UNL     1       1.093   9.151  18.042  0.00  0.00    +0.000 A 
ATOM     25  C   UNL     1       1.607   8.473  19.171  0.00  0.00    +0.000 A 
ATOM     26  C   UNL     1       1.080   8.804  20.413  0.00  0.00    +0.000 A 
ATOM     27  C   UNL     1       0.127   9.840  20.554  0.00  0.00    +0.000 A 
BRANCH  22  28
ATOM     28  S   UNL     1      -1.506  11.853  19.573  0.00  0.00    +0.000 S 
ATOM     29  O   UNL     1      -0.997  12.976  18.812  0.00  0.00    +0.000 OA
ATOM     30  O   UNL     1      -1.868  11.991  20.970  0.00  0.00    +0.000 OA
BRANCH  28  34
ATOM     31  N   UNL     1      -4.370  11.151  17.111  0.00  0.00    +0.000 NA
ATOM     32  C   UNL     1      -3.170  11.438  17.434  0.00  0.00    +0.000 C 
ATOM     33  N   UNL     1      -2.208  11.868  16.603  0.00  0.00    +0.000 N 
ATOM     34  N   UNL     1      -2.829  11.275  18.756  0.00  0.00    +0.000 N 
ATOM     35  H   UNL     1      -4.503  11.334  16.115  0.00  0.00    +0.000 HD
ATOM     36  H   UNL     1      -2.351  11.696  15.618  0.00  0.00    +0.000 HD
ATOM     37  H   UNL     1      -1.263  11.622  16.902  0.00  0.00    +0.000 HD
ATOM     38  H   UNL     1      -3.546  10.874  19.355  0.00  0.00    +0.000 HD
ENDBRANCH  28  34
ENDBRANCH  22  28
ENDBRANCH   1  25
TORSDOF 5
ENDMDL
MODEL 2
REMARK VINA RESULT:      -9.7      1.484      1.808
REMARK  Name = 
REMARK  5 active torsions:
REMARK  status: ('A' for Active; 'I' for Inactive)
REMARK    1  A    between atoms: N_4  and  S_5
REMARK    2  A    between atoms: S_5  and  C_8
REMARK    3  A    between atoms: C_11  and  N_12
REMARK    4  A    between atoms: C_13  and  C_15
REMARK    5  A    between atoms: C_20  and  N_21
REMARK                            x       y       z     vdW  Elec       q    Type
REMARK                         _______ _______ _______ _____ _____    ______ ____
ROOT
ATOM      1  N   UNL     1       2.457   7.900  19.060  0.00  0.00    +0.000 N 
ATOM      2  C   UNL     1       3.143   7.680  17.873  0.00  0.00    +0.000 C 
ATOM      3  O   UNL     1       2.954   8.365  16.858  0.00  0.00    +0.000 OA
ATOM      4  H   UNL     1       2.847   7.491  19.905  0.00  0.00    +0.000 HD
ENDROOT
BRANCH   2   5
ATOM      5  C   UNL     1       4.089   6.523  17.716  0.00  0.00    +0.000 A 
ATOM      6  C   UNL     1       4.956   6.632  16.600  0.00  0.00    +0.000 A 
ATOM      7  C   UNL     1       5.581   5.527  16.054  0.00  0.00    +0.000 A 
ATOM      8  C   UNL     1       5.238   4.280  16.550  0.00  0.00    +0.000 A 
ATOM      9  C   UNL     1       4.394   4.167  17.675  0.00  0.00    +0.000 A 
ATOM     10  C   UNL     1       3.855   2.953  18.105  0.00  0.00    +0.000 A 
ATOM     11  C   UNL     1       2.852   3.065  19.071  0.00  0.00    +0.000 A 
ATOM     12  C   UNL     1       1.446   3.204  18.863  0.00  0.00    +0.000 A 
ATOM     13  C   UNL     1       0.623   3.496  19.967  0.00  0.00    +0.000 A 
ATOM     14  C   UNL     1       1.210   3.430  21.218  0.00  0.00    +0.000 A 
ATOM     15  C   UNL     1       2.598   3.462  21.260  0.00  0.00    +0.000 A 
ATOM     16  C   UNL     1       3.224   3.836  20.106  0.00  0.00    +0.000 A 
ATOM     17  N   UNL     1       3.489   5.107  19.679  0.00  0.00    +0.000 NA
ATOM     18  C   UNL     1       3.983   5.302  18.400  0.00  0.00    +0.000 A 
BRANCH  10  19
ATOM     19  N   UNL     1       4.082   1.725  17.450  0.00  0.00    +0.000 N 
ATOM     20  H   UNL     1       3.501   1.621  16.620  0.00  0.00    +0.000 HD
ATOM     21  H   UNL     1       5.061   1.613  17.197  0.00  0.00    +0.000 HD
ENDBRANCH  10  19
ENDBRANCH   2   5
BRANCH   1  25
ATOM     22  C   UNL     1      -0.783  10.649  19.417  0.00  0.00    +0.000 A 
ATOM     23  C   UNL     1      -0.329  10.282  18.153  0.00  0.00    +0.000 A 
ATOM     24  C   UNL     1       0.723   9.364  18.033  0.00  0.00    +0.000 A 
ATOM     25  C   UNL     1       1.353   8.802  19.167  0.00  0.00    +0.000 A 
ATOM     26  C   UNL     1       0.853   9.147  20.416  0.00  0.00    +0.000 A 
ATOM     27  C   UNL     1      -0.192  10.091  20.553  0.00  0.00    +0.000 A 
BRANCH  22  28
ATOM     28  S   UNL     1      -2.061  11.879  19.557  0.00  0.00    +0.000 S 
ATOM     29  O   UNL     1      -2.204  12.227  20.956  0.00  0.00    +0.000 OA
ATOM     30  O   UNL     1      -3.198  11.449  18.766  0.00  0.00    +0.000 OA
BRANCH  28  34
ATOM     31  N   UNL     1      -0.414  15.223  18.625  0.00  0.00    +0.000 NA
ATOM     32  C   UNL     1      -0.573  14.171  19.329  0.00  0.00    +0.000 C 
ATOM     33  N   UNL     1      -0.016  13.927  20.525  0.00  0.00    +0.000 N 
ATOM     34  N   UNL     1      -1.378  13.188  18.801  0.00  0.00    +0.000 N 
ATOM     35  H   UNL     1       0.182  15.879  19.133  0.00  0.00    +0.000 HD
ATOM     36  H   UNL     1       0.793  14.480  20.768  0.00  0.00    +0.000 HD
ATOM     37  H   UNL     1       0.124  12.934  20.722  0.00  0.00    +0.000 HD
ATOM     38  H   UNL     1      -1.727  13.357  17.861  0.00  0.00    +0.000 HD
ENDBRANCH  28  34
ENDBRANCH  22  28
ENDBRANCH   1  25
TORSDOF 5
ENDMDL
MODEL 3
REMARK VINA RESULT:      -9.6      1.951      2.512
REMARK  Name = 
REMARK  5 active torsions:
REMARK  status: ('A' for Active; 'I' for Inactive)
REMARK    1  A    between atoms: N_4  and  S_5
REMARK    2  A    between atoms: S_5  and  C_8
REMARK    3  A    between atoms: C_11  and  N_12
REMARK    4  A    between atoms: C_13  and  C_15
REMARK    5  A    between atoms: C_20  and  N_21
REMARK                            x       y       z     vdW  Elec       q    Type
REMARK                         _______ _______ _______ _____ _____    ______ ____
ROOT
ATOM      1  N   UNL     1       2.327   8.526  17.615  0.00  0.00    +0.000 N 
ATOM      2  C   UNL     1       2.666   7.519  18.509  0.00  0.00    +0.000 C 
ATOM      3  O   UNL     1       2.212   7.470  19.661  0.00  0.00    +0.000 OA
ATOM      4  H   UNL     1       2.517   8.357  16.631  0.00  0.00    +0.000 HD
ENDROOT
BRANCH   2   5
ATOM      5  C   UNL     1       3.692   6.476  18.165  0.00  0.00    +0.000 A 
ATOM      6  C   UNL     1       4.469   6.784  17.021  0.00  0.00    +0.000 A 
ATOM      7  C   UNL     1       5.145   5.806  16.315  0.00  0.00    +0.000 A 
ATOM      8  C   UNL     1       4.942   4.487  16.685  0.00  0.00    +0.000 A 
ATOM      9  C   UNL     1       4.190   4.177  17.837  0.00  0.00    +0.000 A 
ATOM     10  C   UNL     1       3.785   2.878  18.157  0.00  0.00    +0.000 A 
ATOM     11  C   UNL     1       2.845   2.793  19.187  0.00  0.00    +0.000 A 
ATOM     12  C   UNL     1       1.421   2.825  19.078  0.00  0.00    +0.000 A 
ATOM     13  C   UNL     1       0.655   2.920  20.255  0.00  0.00    +0.000 A 
ATOM     14  C   UNL     1       1.330   2.772  21.455  0.00  0.00    +0.000 A 
ATOM     15  C   UNL     1       2.710   2.925  21.417  0.00  0.00    +0.000 A 
ATOM     16  C   UNL     1       3.221   3.478  20.279  0.00  0.00    +0.000 A 
ATOM     17  N   UNL     1       3.349   4.806  19.985  0.00  0.00    +0.000 NA
ATOM     18  C   UNL     1       3.736   5.183  18.711  0.00  0.00    +0.000 A 
BRANCH  10  19
ATOM     19  N   UNL     1       4.069   1.755  17.354  0.00  0.00    +0.000 N 
ATOM     20  H   UNL     1       4.809   1.178  17.751  0.00  0.00    +0.000 HD
ATOM     21  H   UNL     1       3.240   1.187  17.200  0.00  0.00    +0.000 HD
ENDBRANCH  10  19
ENDBRANCH   2   5
BRANCH   1  25
ATOM     22  C   UNL     1       0.077  11.944  18.816  0.00  0.00    +0.000 A 
ATOM     23  C   UNL     1       1.459  12.043  18.680  0.00  0.00    +0.000 A 
ATOM     24  C   UNL     1       2.198  10.927  18.267  0.00  0.00    +0.000 A 
ATOM     25  C   UNL     1       1.580   9.685  17.993  0.00  0.00    +0.000 A 
ATOM     26  C   UNL     1       0.196   9.622  18.090  0.00  0.00    +0.000 A 
ATOM     27  C   UNL     1      -0.561  10.733  18.529  0.00  0.00    +0.000 A 
BRANCH  22  28
ATOM     28  S   UNL     1      -0.840  13.343  19.422  0.00  0.00    +0.000 S 
ATOM     29  O   UNL     1      -2.243  12.983  19.458  0.00  0.00    +0.000 OA
ATOM     30  O   UNL     1      -0.382  14.527  18.722  0.00  0.00    +0.000 OA
BRANCH  28  34
ATOM     31  N   UNL     1      -0.456  13.279  23.244  0.00  0.00    +0.000 NA
ATOM     32  C   UNL     1      -0.825  12.818  22.114  0.00  0.00    +0.000 C 
ATOM     33  N   UNL     1      -1.638  11.770  21.913  0.00  0.00    +0.000 N 
ATOM     34  N   UNL     1      -0.327  13.448  20.996  0.00  0.00    +0.000 N 
ATOM     35  H   UNL     1      -0.908  12.745  23.988  0.00  0.00    +0.000 HD
ATOM     36  H   UNL     1      -1.751  11.131  22.687  0.00  0.00    +0.000 HD
ATOM     37  H   UNL     1      -1.471  11.280  21.032  0.00  0.00    +0.000 HD
ATOM     38  H   UNL     1       0.348  14.189  21.166  0.00  0.00    +0.000 HD
ENDBRANCH  28  34
ENDBRANCH  22  28
ENDBRANCH   1  25
TORSDOF 5
ENDMDL
MODEL 4
REMARK VINA RESULT:      -9.6      1.582      1.847
REMARK  Name = 
REMARK  5 active torsions:
REMARK  status: ('A' for Active; 'I' for Inactive)
REMARK    1  A    between atoms: N_4  and  S_5
REMARK    2  A    between atoms: S_5  and  C_8
REMARK    3  A    between atoms: C_11  and  N_12
REMARK    4  A    between atoms: C_13  and  C_15
REMARK    5  A    between atoms: C_20  and  N_21
REMARK                            x       y       z     vdW  Elec       q    Type
REMARK                         _______ _______ _______ _____ _____    ______ ____
ROOT
ATOM      1  N   UNL     1       2.401   8.520  17.616  0.00  0.00    +0.000 N 
ATOM      2  C   UNL     1       2.691   7.477  18.487  0.00  0.00    +0.000 C 
ATOM      3  O   UNL     1       2.206   7.405  19.625  0.00  0.00    +0.000 OA
ATOM      4  H   UNL     1       2.612   8.375  16.632  0.00  0.00    +0.000 HD
ENDROOT
BRANCH   2   5
ATOM      5  C   UNL     1       3.701   6.421  18.137  0.00  0.00    +0.000 A 
ATOM      6  C   UNL     1       4.469   6.714  16.983  0.00  0.00    +0.000 A 
ATOM      7  C   UNL     1       5.126   5.724  16.276  0.00  0.00    +0.000 A 
ATOM      8  C   UNL     1       4.911   4.409  16.653  0.00  0.00    +0.000 A 
ATOM      9  C   UNL     1       4.167   4.114  17.815  0.00  0.00    +0.000 A 
ATOM     10  C   UNL     1       3.749   2.822  18.145  0.00  0.00    +0.000 A 
ATOM     11  C   UNL     1       2.819   2.753  19.185  0.00  0.00    +0.000 A 
ATOM     12  C   UNL     1       1.395   2.802  19.091  0.00  0.00    +0.000 A 
ATOM     13  C   UNL     1       0.642   2.912  20.275  0.00  0.00    +0.000 A 
ATOM     14  C   UNL     1       1.327   2.761  21.468  0.00  0.00    +0.000 A 
ATOM     15  C   UNL     1       2.709   2.896  21.416  0.00  0.00    +0.000 A 
ATOM     16  C   UNL     1       3.215   3.438  20.270  0.00  0.00    +0.000 A 
ATOM     17  N   UNL     1       3.356   4.763  19.969  0.00  0.00    +0.000 NA
ATOM     18  C   UNL     1       3.734   5.130  18.688  0.00  0.00    +0.000 A 
BRANCH  10  19
ATOM     19  N   UNL     1       4.011   1.691  17.344  0.00  0.00    +0.000 N 
ATOM     20  H   UNL     1       3.157   1.282  16.969  0.00  0.00    +0.000 HD
ATOM     21  H   UNL     1       4.646   1.914  16.581  0.00  0.00    +0.000 HD
ENDBRANCH  10  19
ENDBRANCH   2   5
BRANCH   1  25
ATOM     22  C   UNL     1       0.211  11.958  18.868  0.00  0.00    +0.000 A 
ATOM     23  C   UNL     1       1.578  12.063  18.630  0.00  0.00    +0.000 A 
ATOM     24  C   UNL     1       2.296  10.939  18.200  0.00  0.00    +0.000 A 
ATOM     25  C   UNL     1       1.672   9.685  18.011  0.00  0.00    +0.000 A 
ATOM     26  C   UNL     1       0.299   9.615  18.209  0.00  0.00    +0.000 A 
ATOM     27  C   UNL     1      -0.435  10.734  18.666  0.00  0.00    +0.000 A 
BRANCH  22  28
ATOM     28  S   UNL     1      -0.674  13.369  19.495  0.00  0.00    +0.000 S 
ATOM     29  O   UNL     1      -0.600  14.426  18.507  0.00  0.00    +0.000 OA
ATOM     30  O   UNL     1      -0.265  13.590  20.869  0.00  0.00    +0.000 OA
BRANCH  28  34
ATOM     31  N   UNL     1      -4.362  12.607  20.253  0.00  0.00    +0.000 NA
ATOM     32  C   UNL     1      -3.335  13.357  20.155  0.00  0.00    +0.000 C 
ATOM     33  N   UNL     1      -3.228  14.615  20.605  0.00  0.00    +0.000 N 
ATOM     34  N   UNL     1      -2.242  12.828  19.509  0.00  0.00    +0.000 N 
ATOM     35  H   UNL     1      -5.092  13.102  20.768  0.00  0.00    +0.000 HD
ATOM     36  H   UNL     1      -4.092  15.104  20.791  0.00  0.00    +0.000 HD
ATOM     37  H   UNL     1      -2.568  15.190  20.078  0.00  0.00    +0.000 HD
ATOM     38  H   UNL     1      -2.368  11.903  19.105  0.00  0.00    +0.000 HD
ENDBRANCH  28  34
ENDBRANCH  22  28
ENDBRANCH   1  25
TORSDOF 5
ENDMDL
MODEL 5
REMARK VINA RESULT:      -9.4      1.515      1.888
REMARK  Name = 
REMARK  5 active torsions:
REMARK  status: ('A' for Active; 'I' for Inactive)
REMARK    1  A    between atoms: N_4  and  S_5
REMARK    2  A    between atoms: S_5  and  C_8
REMARK    3  A    between atoms: C_11  and  N_12
REMARK    4  A    between atoms: C_13  and  C_15
REMARK    5  A    between atoms: C_20  and  N_21
REMARK                            x       y       z     vdW  Elec       q    Type
REMARK                         _______ _______ _______ _____ _____    ______ ____
ROOT
ATOM      1  N   UNL     1       2.552   7.522  19.092  0.00  0.00    +0.000 N 
ATOM      2  C   UNL     1       3.319   7.366  17.945  0.00  0.00    +0.000 C 
ATOM      3  O   UNL     1       3.293   8.180  17.011  0.00  0.00    +0.000 OA
ATOM      4  H   UNL     1       2.820   6.978  19.908  0.00  0.00    +0.000 HD
ENDROOT
BRANCH   2   5
ATOM      5  C   UNL     1       4.155   6.138  17.721  0.00  0.00    +0.000 A 
ATOM      6  C   UNL     1       4.943   6.181  16.543  0.00  0.00    +0.000 A 
ATOM      7  C   UNL     1       5.435   5.031  15.955  0.00  0.00    +0.000 A 
ATOM      8  C   UNL     1       5.031   3.814  16.478  0.00  0.00    +0.000 A 
ATOM      9  C   UNL     1       4.267   3.766  17.664  0.00  0.00    +0.000 A 
ATOM     10  C   UNL     1       3.667   2.596  18.136  0.00  0.00    +0.000 A 
ATOM     11  C   UNL     1       2.751   2.785  19.174  0.00  0.00    +0.000 A 
ATOM     12  C   UNL     1       1.349   3.036  19.071  0.00  0.00    +0.000 A 
ATOM     13  C   UNL     1       0.636   3.389  20.233  0.00  0.00    +0.000 A 
ATOM     14  C   UNL     1       1.308   3.273  21.437  0.00  0.00    +0.000 A 
ATOM     15  C   UNL     1       2.694   3.194  21.374  0.00  0.00    +0.000 A 
ATOM     16  C   UNL     1       3.259   3.521  20.176  0.00  0.00    +0.000 A 
ATOM     17  N   UNL     1       3.592   4.767  19.727  0.00  0.00    +0.000 NA
ATOM     18  C   UNL     1       4.003   4.927  18.415  0.00  0.00    +0.000 A 
BRANCH  10  19
ATOM     19  N   UNL     1       3.746   1.356  17.470  0.00  0.00    +0.000 N 
ATOM     20  H   UNL     1       3.145   1.325  16.648  0.00  0.00    +0.000 HD
ATOM     21  H   UNL     1       4.703   1.138  17.202  0.00  0.00    +0.000 HD
ENDBRANCH  10  19
ENDBRANCH   2   5
BRANCH   1  25
ATOM     22  C   UNL     1      -0.414  10.556  19.520  0.00  0.00    +0.000 A 
ATOM     23  C   UNL     1       0.015  10.189  18.248  0.00  0.00    +0.000 A 
ATOM     24  C   UNL     1       0.976   9.179  18.104  0.00  0.00    +0.000 A 
ATOM     25  C   UNL     1       1.538   8.522  19.222  0.00  0.00    +0.000 A 
ATOM     26  C   UNL     1       1.061   8.872  20.479  0.00  0.00    +0.000 A 
ATOM     27  C   UNL     1       0.110   9.906  20.641  0.00  0.00    +0.000 A 
BRANCH  22  28
ATOM     28  S   UNL     1      -1.570  11.898  19.694  0.00  0.00    +0.000 S 
ATOM     29  O   UNL     1      -2.764  11.567  18.944  0.00  0.00    +0.000 OA
ATOM     30  O   UNL     1      -0.860  13.143  19.473  0.00  0.00    +0.000 OA
BRANCH  28  34
ATOM     31  N   UNL     1      -2.704  12.553  23.305  0.00  0.00    +0.000 NA
ATOM     32  C   UNL     1      -2.783  12.647  22.036  0.00  0.00    +0.000 C 
ATOM     33  N   UNL     1      -3.595  13.467  21.352  0.00  0.00    +0.000 N 
ATOM     34  N   UNL     1      -1.970  11.815  21.302  0.00  0.00    +0.000 N 
ATOM     35  H   UNL     1      -3.336  13.233  23.732  0.00  0.00    +0.000 HD
ATOM     36  H   UNL     1      -4.389  13.839  21.853  0.00  0.00    +0.000 HD
ATOM     37  H   UNL     1      -3.855  13.116  20.428  0.00  0.00    +0.000 HD
ATOM     38  H   UNL     1      -1.419  11.147  21.835  0.00  0.00    +0.000 HD
ENDBRANCH  28  34
ENDBRANCH  22  28
ENDBRANCH   1  25
TORSDOF 5
ENDMDL
MODEL 6
REMARK VINA RESULT:      -9.4      2.258      2.769
REMARK  Name = 
REMARK  5 active torsions:
REMARK  status: ('A' for Active; 'I' for Inactive)
REMARK    1  A    between atoms: N_4  and  S_5
REMARK    2  A    between atoms: S_5  and  C_8
REMARK    3  A    between atoms: C_11  and  N_12
REMARK    4  A    between atoms: C_13  and  C_15
REMARK    5  A    between atoms: C_20  and  N_21
REMARK                            x       y       z     vdW  Elec       q    Type
REMARK                         _______ _______ _______ _____ _____    ______ ____
ROOT
ATOM      1  N   UNL     1       2.398   8.528  17.578  0.00  0.00    +0.000 N 
ATOM      2  C   UNL     1       2.711   7.504  18.463  0.00  0.00    +0.000 C 
ATOM      3  O   UNL     1       2.253   7.455  19.613  0.00  0.00    +0.000 OA
ATOM      4  H   UNL     1       2.586   8.364  16.592  0.00  0.00    +0.000 HD
ENDROOT
BRANCH   2   5
ATOM      5  C   UNL     1       3.714   6.442  18.110  0.00  0.00    +0.000 A 
ATOM      6  C   UNL     1       4.479   6.729  16.953  0.00  0.00    +0.000 A 
ATOM      7  C   UNL     1       5.128   5.735  16.244  0.00  0.00    +0.000 A 
ATOM      8  C   UNL     1       4.907   4.422  16.625  0.00  0.00    +0.000 A 
ATOM      9  C   UNL     1       4.167   4.132  17.790  0.00  0.00    +0.000 A 
ATOM     10  C   UNL     1       3.744   2.843  18.124  0.00  0.00    +0.000 A 
ATOM     11  C   UNL     1       2.818   2.781  19.168  0.00  0.00    +0.000 A 
ATOM     12  C   UNL     1       1.394   2.837  19.080  0.00  0.00    +0.000 A 
ATOM     13  C   UNL     1       0.646   2.952  20.267  0.00  0.00    +0.000 A 
ATOM     14  C   UNL     1       1.336   2.800  21.458  0.00  0.00    +0.000 A 
ATOM     15  C   UNL     1       2.718   2.929  21.399  0.00  0.00    +0.000 A 
ATOM     16  C   UNL     1       3.222   3.466  20.250  0.00  0.00    +0.000 A 
ATOM     17  N   UNL     1       3.368   4.789  19.946  0.00  0.00    +0.000 NA
ATOM     18  C   UNL     1       3.743   5.152  18.663  0.00  0.00    +0.000 A 
BRANCH  10  19
ATOM     19  N   UNL     1       3.997   1.710  17.324  0.00  0.00    +0.000 N 
ATOM     20  H   UNL     1       4.549   1.940  16.499  0.00  0.00    +0.000 HD
ATOM     21  H   UNL     1       4.463   0.977  17.853  0.00  0.00    +0.000 HD
ENDBRANCH  10  19
ENDBRANCH   2   5
BRANCH   1  25
ATOM     22  C   UNL     1       0.228  11.986  18.809  0.00  0.00    +0.000 A 
ATOM     23  C   UNL     1       1.603  12.072  18.611  0.00  0.00    +0.000 A 
ATOM     24  C   UNL     1       2.315  10.942  18.189  0.00  0.00    +0.000 A 
ATOM     25  C   UNL     1       1.677   9.700  17.966  0.00  0.00    +0.000 A 
ATOM     26  C   UNL     1       0.298   9.650  18.124  0.00  0.00    +0.000 A 
ATOM     27  C   UNL     1      -0.431  10.776  18.574  0.00  0.00    +0.000 A 
BRANCH  22  28
ATOM     28  S   UNL     1      -0.652  13.404  19.428  0.00  0.00    +0.000 S 
ATOM     29  O   UNL     1      -2.013  13.002  19.719  0.00  0.00    +0.000 OA
ATOM     30  O   UNL     1      -0.366  14.532  18.563  0.00  0.00    +0.000 OA
BRANCH  28  34
ATOM     31  N   UNL     1       1.139  14.856  22.501  0.00  0.00    +0.000 NA
ATOM     32  C   UNL     1       0.290  14.864  21.549  0.00  0.00    +0.000 C 
ATOM     33  N   UNL     1      -0.440  15.916  21.148  0.00  0.00    +0.000 N 
ATOM     34  N   UNL     1       0.094  13.676  20.885  0.00  0.00    +0.000 N 
ATOM     35  H   UNL     1       1.210  15.796  22.896  0.00  0.00    +0.000 HD
ATOM     36  H   UNL     1      -0.533  16.678  21.804  0.00  0.00    +0.000 HD
ATOM     37  H   UNL     1      -1.334  15.662  20.725  0.00  0.00    +0.000 HD
ATOM     38  H   UNL     1       0.597  12.872  21.253  0.00  0.00    +0.000 HD
ENDBRANCH  28  34
ENDBRANCH  22  28
ENDBRANCH   1  25
TORSDOF 5
ENDMDL
MODEL 7
REMARK VINA RESULT:      -9.3      2.198      2.469
REMARK  Name = 
REMARK  5 active torsions:
REMARK  status: ('A' for Active; 'I' for Inactive)
REMARK    1  A    between atoms: N_4  and  S_5
REMARK    2  A    between atoms: S_5  and  C_8
REMARK    3  A    between atoms: C_11  and  N_12
REMARK    4  A    between atoms: C_13  and  C_15
REMARK    5  A    between atoms: C_20  and  N_21
REMARK                            x       y       z     vdW  Elec       q    Type
REMARK                         _______ _______ _______ _____ _____    ______ ____
ROOT
ATOM      1  N   UNL     1       2.149   8.698  17.772  0.00  0.00    +0.000 N 
ATOM      2  C   UNL     1       2.536   7.670  18.621  0.00  0.00    +0.000 C 
ATOM      3  O   UNL     1       2.123   7.577  19.785  0.00  0.00    +0.000 OA
ATOM      4  H   UNL     1       2.307   8.563  16.777  0.00  0.00    +0.000 HD
ENDROOT
BRANCH   2   5
ATOM      5  C   UNL     1       3.568   6.658  18.209  0.00  0.00    +0.000 A 
ATOM      6  C   UNL     1       4.309   7.023  17.058  0.00  0.00    +0.000 A 
ATOM      7  C   UNL     1       4.980   6.084  16.297  0.00  0.00    +0.000 A 
ATOM      8  C   UNL     1       4.807   4.748  16.619  0.00  0.00    +0.000 A 
ATOM      9  C   UNL     1       4.091   4.382  17.778  0.00  0.00    +0.000 A 
ATOM     10  C   UNL     1       3.714   3.065  18.056  0.00  0.00    +0.000 A 
ATOM     11  C   UNL     1       2.804   2.925  19.107  0.00  0.00    +0.000 A 
ATOM     12  C   UNL     1       1.377   2.938  19.037  0.00  0.00    +0.000 A 
ATOM     13  C   UNL     1       0.641   2.975  20.236  0.00  0.00    +0.000 A 
ATOM     14  C   UNL     1       1.350   2.791  21.411  0.00  0.00    +0.000 A 
ATOM     15  C   UNL     1       2.727   2.967  21.343  0.00  0.00    +0.000 A 
ATOM     16  C   UNL     1       3.199   3.573  20.215  0.00  0.00    +0.000 A 
ATOM     17  N   UNL     1       3.298   4.913  19.970  0.00  0.00    +0.000 NA
ATOM     18  C   UNL     1       3.646   5.346  18.702  0.00  0.00    +0.000 A 
BRANCH  10  19
ATOM     19  N   UNL     1       3.994   1.979  17.202  0.00  0.00    +0.000 N 
ATOM     20  H   UNL     1       4.078   2.269  16.229  0.00  0.00    +0.000 HD
ATOM     21  H   UNL     1       4.838   1.489  17.487  0.00  0.00    +0.000 HD
ENDBRANCH  10  19
ENDBRANCH   2   5
BRANCH   1  25
ATOM     22  C   UNL     1      -0.118  12.034  19.157  0.00  0.00    +0.000 A 
ATOM     23  C   UNL     1       1.253  12.168  18.961  0.00  0.00    +0.000 A 
ATOM     24  C   UNL     1       1.997  11.079  18.488  0.00  0.00    +0.000 A 
ATOM     25  C   UNL     1       1.394   9.831  18.211  0.00  0.00    +0.000 A 
ATOM     26  C   UNL     1       0.018   9.733  18.369  0.00  0.00    +0.000 A 
ATOM     27  C   UNL     1      -0.742  10.816  18.869  0.00  0.00    +0.000 A 
BRANCH  22  28
ATOM     28  S   UNL     1      -1.037  13.397  19.839  0.00  0.00    +0.000 S 
ATOM     29  O   UNL     1      -0.456  13.739  21.121  0.00  0.00    +0.000 OA
ATOM     30  O   UNL     1      -2.451  13.106  19.705  0.00  0.00    +0.000 OA
BRANCH  28  34
ATOM     31  N   UNL     1      -0.653  16.739  17.984  0.00  0.00    +0.000 NA
ATOM     32  C   UNL     1      -0.695  15.989  19.015  0.00  0.00    +0.000 C 
ATOM     33  N   UNL     1      -0.745  16.400  20.291  0.00  0.00    +0.000 N 
ATOM     34  N   UNL     1      -0.667  14.632  18.795  0.00  0.00    +0.000 N 
ATOM     35  H   UNL     1      -0.702  17.716  18.277  0.00  0.00    +0.000 HD
ATOM     36  H   UNL     1      -0.457  17.352  20.471  0.00  0.00    +0.000 HD
ATOM     37  H   UNL     1      -0.332  15.742  20.954  0.00  0.00    +0.000 HD
ATOM     38  H   UNL     1      -0.550  14.340  17.828  0.00  0.00    +0.000 HD
ENDBRANCH  28  34
ENDBRANCH  22  28
ENDBRANCH   1  25
TORSDOF 5
ENDMDL
MODEL 8
REMARK VINA RESULT:      -9.2      3.075      9.431
REMARK  Name = 
REMARK  5 active torsions:
REMARK  status: ('A' for Active; 'I' for Inactive)
REMARK    1  A    between atoms: N_4  and  S_5
REMARK    2  A    between atoms: S_5  and  C_8
REMARK    3  A    between atoms: C_11  and  N_12
REMARK    4  A    between atoms: C_13  and  C_15
REMARK    5  A    between atoms: C_20  and  N_21
REMARK                            x       y       z     vdW  Elec       q    Type
REMARK                         _______ _______ _______ _____ _____    ______ ____
ROOT
ATOM      1  N   UNL     1       1.335   9.108  20.181  0.00  0.00    +0.000 N 
ATOM      2  C   UNL     1       0.183   9.308  20.930  0.00  0.00    +0.000 C 
ATOM      3  O   UNL     1      -0.455   8.373  21.433  0.00  0.00    +0.000 OA
ATOM      4  H   UNL     1       1.940   9.912  20.034  0.00  0.00    +0.000 HD
ENDROOT
BRANCH   2   5
ATOM      5  C   UNL     1      -0.422  10.675  21.090  0.00  0.00    +0.000 A 
ATOM      6  C   UNL     1      -0.444  11.145  22.426  0.00  0.00    +0.000 A 
ATOM      7  C   UNL     1      -1.305  12.149  22.830  0.00  0.00    +0.000 A 
ATOM      8  C   UNL     1      -2.242  12.602  21.916  0.00  0.00    +0.000 A 
ATOM      9  C   UNL     1      -2.208  12.154  20.579  0.00  0.00    +0.000 A 
ATOM     10  C   UNL     1      -3.230  12.415  19.662  0.00  0.00    +0.000 A 
ATOM     11  C   UNL     1      -3.148  11.690  18.471  0.00  0.00    +0.000 A 
ATOM     12  C   UNL     1      -3.710  10.408  18.186  0.00  0.00    +0.000 A 
ATOM     13  C   UNL     1      -3.351   9.763  16.987  0.00  0.00    +0.000 A 
ATOM     14  C   UNL     1      -2.631  10.506  16.068  0.00  0.00    +0.000 A 
ATOM     15  C   UNL     1      -2.011  11.655  16.543  0.00  0.00    +0.000 A 
ATOM     16  C   UNL     1      -1.936  11.778  17.901  0.00  0.00    +0.000 A 
ATOM     17  N   UNL     1      -0.983  11.259  18.731  0.00  0.00    +0.000 NA
ATOM     18  C   UNL     1      -1.160  11.345  20.101  0.00  0.00    +0.000 A 
BRANCH  10  19
ATOM     19  N   UNL     1      -4.400  13.133  19.984  0.00  0.00    +0.000 N 
ATOM     20  H   UNL     1      -4.617  13.083  20.978  0.00  0.00    +0.000 HD
ATOM     21  H   UNL     1      -4.331  14.106  19.698  0.00  0.00    +0.000 HD
ENDBRANCH  10  19
ENDBRANCH   2   5
BRANCH   1  25
ATOM     22  C   UNL     1       2.591   5.217  18.968  0.00  0.00    +0.000 A 
ATOM     23  C   UNL     1       2.636   6.269  18.057  0.00  0.00    +0.000 A 
ATOM     24  C   UNL     1       2.242   7.552  18.459  0.00  0.00    +0.000 A 
ATOM     25  C   UNL     1       1.783   7.813  19.771  0.00  0.00    +0.000 A 
ATOM     26  C   UNL     1       1.791   6.759  20.675  0.00  0.00    +0.000 A 
ATOM     27  C   UNL     1       2.163   5.453  20.277  0.00  0.00    +0.000 A 
BRANCH  22  28
ATOM     28  S   UNL     1       3.012   3.577  18.422  0.00  0.00    +0.000 S 
ATOM     29  O   UNL     1       3.740   3.687  17.174  0.00  0.00    +0.000 OA
ATOM     30  O   UNL     1       1.833   2.741  18.537  0.00  0.00    +0.000 OA
BRANCH  28  34
ATOM     31  N   UNL     1       5.172   1.656  20.953  0.00  0.00    +0.000 NA
ATOM     32  C   UNL     1       4.572   1.823  19.840  0.00  0.00    +0.000 C 
ATOM     33  N   UNL     1       4.374   0.888  18.899  0.00  0.00    +0.000 N 
ATOM     34  N   UNL     1       4.101   3.088  19.575  0.00  0.00    +0.000 N 
ATOM     35  H   UNL     1       5.452   0.677  21.040  0.00  0.00    +0.000 HD
ATOM     36  H   UNL     1       4.967   0.071  18.941  0.00  0.00    +0.000 HD
ATOM     37  H   UNL     1       4.304   1.262  17.951  0.00  0.00    +0.000 HD
ATOM     38  H   UNL     1       4.328   3.801  20.263  0.00  0.00    +0.000 HD
ENDBRANCH  28  34
ENDBRANCH  22  28
ENDBRANCH   1  25
TORSDOF 5
ENDMDL
MODEL 9
REMARK VINA RESULT:      -9.2      3.286      9.365
REMARK  Name = 
REMARK  5 active torsions:
REMARK  status: ('A' for Active; 'I' for Inactive)
REMARK    1  A    between atoms: N_4  and  S_5
REMARK    2  A    between atoms: S_5  and  C_8
REMARK    3  A    between atoms: C_11  and  N_12
REMARK    4  A    between atoms: C_13  and  C_15
REMARK    5  A    between atoms: C_20  and  N_21
REMARK                            x       y       z     vdW  Elec       q    Type
REMARK                         _______ _______ _______ _____ _____    ______ ____
ROOT
ATOM      1  N   UNL     1       0.902   9.892  19.085  0.00  0.00    +0.000 N 
ATOM      2  C   UNL     1       0.634  10.494  20.307  0.00  0.00    +0.000 C 
ATOM      3  O   UNL     1       1.187  10.142  21.359  0.00  0.00    +0.000 OA
ATOM      4  H   UNL     1       0.626  10.397  18.247  0.00  0.00    +0.000 HD
ENDROOT
BRANCH   2   5
ATOM      5  C   UNL     1      -0.427  11.549  20.446  0.00  0.00    +0.000 A 
ATOM      6  C   UNL     1      -0.533  12.095  21.750  0.00  0.00    +0.000 A 
ATOM      7  C   UNL     1      -1.678  12.741  22.177  0.00  0.00    +0.000 A 
ATOM      8  C   UNL     1      -2.777  12.732  21.334  0.00  0.00    +0.000 A 
ATOM      9  C   UNL     1      -2.670  12.212  20.028  0.00  0.00    +0.000 A 
ATOM     10  C   UNL     1      -3.774  11.994  19.200  0.00  0.00    +0.000 A 
ATOM     11  C   UNL     1      -3.508  11.248  18.050  0.00  0.00    +0.000 A 
ATOM     12  C   UNL     1      -3.565   9.829  17.894  0.00  0.00    +0.000 A 
ATOM     13  C   UNL     1      -3.072   9.258  16.705  0.00  0.00    +0.000 A 
ATOM     14  C   UNL     1      -2.750  10.130  15.680  0.00  0.00    +0.000 A 
ATOM     15  C   UNL     1      -2.575  11.464  16.027  0.00  0.00    +0.000 A 
ATOM     16  C   UNL     1      -2.459  11.726  17.361  0.00  0.00    +0.000 A 
ATOM     17  N   UNL     1      -1.327  11.672  18.124  0.00  0.00    +0.000 NA
ATOM     18  C   UNL     1      -1.429  11.808  19.498  0.00  0.00    +0.000 A 
BRANCH  10  19
ATOM     19  N   UNL     1      -5.103  12.254  19.593  0.00  0.00    +0.000 N 
ATOM     20  H   UNL     1      -5.574  12.889  18.950  0.00  0.00    +0.000 HD
ATOM     21  H   UNL     1      -5.641  11.395  19.679  0.00  0.00    +0.000 HD
ENDBRANCH  10  19
ENDBRANCH   2   5
BRANCH   1  25
ATOM     22  C   UNL     1       3.323   6.401  18.707  0.00  0.00    +0.000 A 
ATOM     23  C   UNL     1       2.520   6.563  19.833  0.00  0.00    +0.000 A 
ATOM     24  C   UNL     1       1.710   7.700  19.950  0.00  0.00    +0.000 A 
ATOM     25  C   UNL     1       1.690   8.705  18.957  0.00  0.00    +0.000 A 
ATOM     26  C   UNL     1       2.463   8.501  17.821  0.00  0.00    +0.000 A 
ATOM     27  C   UNL     1       3.304   7.370  17.700  0.00  0.00    +0.000 A 
BRANCH  22  28
ATOM     28  S   UNL     1       4.411   4.997  18.609  0.00  0.00    +0.000 S 
ATOM     29  O   UNL     1       4.752   4.784  17.218  0.00  0.00    +0.000 OA
ATOM     30  O   UNL     1       3.855   3.932  19.422  0.00  0.00    +0.000 OA
BRANCH  28  34
ATOM     31  N   UNL     1       7.908   5.511  20.114  0.00  0.00    +0.000 NA
ATOM     32  C   UNL     1       7.080   5.132  19.221  0.00  0.00    +0.000 C 
ATOM     33  N   UNL     1       7.363   4.376  18.149  0.00  0.00    +0.000 N 
ATOM     34  N   UNL     1       5.779   5.555  19.363  0.00  0.00    +0.000 N 
ATOM     35  H   UNL     1       8.827   5.116  19.909  0.00  0.00    +0.000 HD
ATOM     36  H   UNL     1       8.334   4.326  17.874  0.00  0.00    +0.000 HD
ATOM     37  H   UNL     1       6.746   4.542  17.351  0.00  0.00    +0.000 HD
ATOM     38  H   UNL     1       5.600   6.190  20.136  0.00  0.00    +0.000 HD
ENDBRANCH  28  34
ENDBRANCH  22  28
ENDBRANCH   1  25
TORSDOF 5
ENDMDL
