MODEL 1
REMARK VINA RESULT:      -6.3      0.000      0.000
REMARK  Name = 
REMARK  8 active torsions:
REMARK  status: ('A' for Active; 'I' for Inactive)
REMARK    1  A    between atoms: C_1  and  C_2
REMARK    2  A    between atoms: C_2  and  S_3
REMARK    3  A    between atoms: S_3  and  C_6
REMARK    4  A    between atoms: C_6  and  C_7
REMARK    5  A    between atoms: C_7  and  N_8
REMARK    6  A    between atoms: N_11  and  C_12
REMARK    7  A    between atoms: C_13  and  C_14
REMARK    8  A    between atoms: N_15  and  O_16
REMARK                            x       y       z     vdW  Elec       q    Type
REMARK                         _______ _______ _______ _____ _____    ______ ____
ROOT
ATOM      1  N   UNL     1       5.187   4.688  17.743  0.00  0.00    +0.000 N 
ATOM      2  C   UNL     1       4.785   5.146  16.493  0.00  0.00    +0.000 A 
ATOM      3  C   UNL     1       5.567   6.211  16.180  0.00  0.00    +0.000 A 
ATOM      4  N   UNL     1       6.397   6.423  17.259  0.00  0.00    +0.000 N 
ATOM      5  C   UNL     1       7.377   7.510  17.344  0.00  0.00    +0.000 C 
ATOM      6  C   UNL     1       6.163   5.508  18.242  0.00  0.00    +0.000 A 
ENDROOT
BRANCH   6   7
ATOM      7  C   UNL     1       6.800   5.441  19.504  0.00  0.00    +0.000 C 
ATOM      8  N   UNL     1       8.065   5.212  19.698  0.00  0.00    +0.000 NA
BRANCH   8   9
ATOM      9  O   UNL     1       8.321   5.222  21.075  0.00  0.00    +0.000 OA
ATOM     10  H   UNL     1       8.710   4.340  21.244  0.00  0.00    +0.000 HD
ENDBRANCH   8   9
ENDBRANCH   6   7
BRANCH   1  11
ATOM     11  C   UNL     1       4.581   3.537  18.464  0.00  0.00    +0.000 C 
BRANCH  11  12
ATOM     12  C   UNL     1       3.238   3.851  19.097  0.00  0.00    +0.000 C 
BRANCH  12  13
ATOM     13  S   UNL     1       1.953   3.141  18.112  0.00  0.00    +0.000 S 
ATOM     14  O   UNL     1       2.547   2.002  17.441  0.00  0.00    +0.000 OA
ATOM     15  O   UNL     1       1.361   4.232  17.366  0.00  0.00    +0.000 OA
BRANCH  13  17
ATOM     16  C   UNL     1       1.192   2.975  20.735  0.00  0.00    +0.000 C 
ATOM     17  C   UNL     1       0.788   2.561  19.337  0.00  0.00    +0.000 C 
ENDBRANCH  13  17
ENDBRANCH  12  13
ENDBRANCH  11  12
ENDBRANCH   1  11
TORSDOF 6
ENDMDL
MODEL 2
REMARK VINA RESULT:      -6.2      3.078      5.395
REMARK  Name = 
REMARK  8 active torsions:
REMARK  status: ('A' for Active; 'I' for Inactive)
REMARK    1  A    between atoms: C_1  and  C_2
REMARK    2  A    between atoms: C_2  and  S_3
REMARK    3  A    between atoms: S_3  and  C_6
REMARK    4  A    between atoms: C_6  and  C_7
REMARK    5  A    between atoms: C_7  and  N_8
REMARK    6  A    between atoms: N_11  and  C_12
REMARK    7  A    between atoms: C_13  and  C_14
REMARK    8  A    between atoms: N_15  and  O_16
REMARK                            x       y       z     vdW  Elec       q    Type
REMARK                         _______ _______ _______ _____ _____    ______ ____
ROOT
ATOM      1  N   UNL     1       3.972   5.006  19.534  0.00  0.00    +0.000 N 
ATOM      2  C   UNL     1       2.963   5.946  19.721  0.00  0.00    +0.000 A 
ATOM      3  C   UNL     1       1.881   5.286  20.208  0.00  0.00    +0.000 A 
ATOM      4  N   UNL     1       2.221   3.953  20.264  0.00  0.00    +0.000 N 
ATOM      5  C   UNL     1       1.314   2.888  20.700  0.00  0.00    +0.000 C 
ATOM      6  C   UNL     1       3.499   3.757  19.831  0.00  0.00    +0.000 A 
ENDROOT
BRANCH   6   7
ATOM      7  C   UNL     1       4.172   2.518  19.716  0.00  0.00    +0.000 C 
ATOM      8  N   UNL     1       4.931   1.984  20.627  0.00  0.00    +0.000 NA
BRANCH   8   9
ATOM      9  O   UNL     1       5.417   0.760  20.152  0.00  0.00    +0.000 OA
ATOM     10  H   UNL     1       4.640   0.168  20.204  0.00  0.00    +0.000 HD
ENDBRANCH   8   9
ENDBRANCH   6   7
BRANCH   1  11
ATOM     11  C   UNL     1       5.329   5.308  19.004  0.00  0.00    +0.000 C 
BRANCH  11  12
ATOM     12  C   UNL     1       5.376   5.450  17.493  0.00  0.00    +0.000 C 
BRANCH  12  13
ATOM     13  S   UNL     1       7.038   5.211  16.940  0.00  0.00    +0.000 S 
ATOM     14  O   UNL     1       7.692   4.427  17.967  0.00  0.00    +0.000 OA
ATOM     15  O   UNL     1       7.533   6.518  16.559  0.00  0.00    +0.000 OA
BRANCH  13  17
ATOM     16  C   UNL     1       5.640   4.656  14.654  0.00  0.00    +0.000 C 
ATOM     17  C   UNL     1       6.829   4.208  15.476  0.00  0.00    +0.000 C 
ENDBRANCH  13  17
ENDBRANCH  12  13
ENDBRANCH  11  12
ENDBRANCH   1  11
TORSDOF 6
ENDMDL
MODEL 3
REMARK VINA RESULT:      -6.1      3.387      5.416
REMARK  Name = 
REMARK  8 active torsions:
REMARK  status: ('A' for Active; 'I' for Inactive)
REMARK    1  A    between atoms: C_1  and  C_2
REMARK    2  A    between atoms: C_2  and  S_3
REMARK    3  A    between atoms: S_3  and  C_6
REMARK    4  A    between atoms: C_6  and  C_7
REMARK    5  A    between atoms: C_7  and  N_8
REMARK    6  A    between atoms: N_11  and  C_12
REMARK    7  A    between atoms: C_13  and  C_14
REMARK    8  A    between atoms: N_15  and  O_16
REMARK                            x       y       z     vdW  Elec       q    Type
REMARK                         _______ _______ _______ _____ _____    ______ ____
ROOT
ATOM      1  N   UNL     1       3.788   3.974  18.368  0.00  0.00    +0.000 N 
ATOM      2  C   UNL     1       2.673   4.394  17.648  0.00  0.00    +0.000 A 
ATOM      3  C   UNL     1       1.575   4.064  18.375  0.00  0.00    +0.000 A 
ATOM      4  N   UNL     1       2.024   3.404  19.497  0.00  0.00    +0.000 N 
ATOM      5  C   UNL     1       1.149   2.842  20.529  0.00  0.00    +0.000 C 
ATOM      6  C   UNL     1       3.385   3.318  19.499  0.00  0.00    +0.000 A 
ENDROOT
BRANCH   6   7
ATOM      7  C   UNL     1       4.190   2.678  20.471  0.00  0.00    +0.000 C 
ATOM      8  N   UNL     1       4.963   1.656  20.256  0.00  0.00    +0.000 NA
BRANCH   8   9
ATOM      9  O   UNL     1       5.597   1.306  21.455  0.00  0.00    +0.000 OA
ATOM     10  H   UNL     1       6.442   1.798  21.421  0.00  0.00    +0.000 HD
ENDBRANCH   8   9
ENDBRANCH   6   7
BRANCH   1  11
ATOM     11  C   UNL     1       5.198   4.134  17.923  0.00  0.00    +0.000 C 
BRANCH  11  12
ATOM     12  C   UNL     1       5.356   4.230  16.416  0.00  0.00    +0.000 C 
BRANCH  12  13
ATOM     13  S   UNL     1       6.854   5.093  16.045  0.00  0.00    +0.000 S 
ATOM     14  O   UNL     1       7.908   4.381  16.736  0.00  0.00    +0.000 OA
ATOM     15  O   UNL     1       6.593   6.494  16.305  0.00  0.00    +0.000 OA
BRANCH  13  17
ATOM     16  C   UNL     1       5.992   3.881  13.748  0.00  0.00    +0.000 C 
ATOM     17  C   UNL     1       7.030   4.843  14.284  0.00  0.00    +0.000 C 
ENDBRANCH  13  17
ENDBRANCH  12  13
ENDBRANCH  11  12
ENDBRANCH   1  11
TORSDOF 6
ENDMDL
MODEL 4
REMARK VINA RESULT:      -6.1      2.878      5.438
REMARK  Name = 
REMARK  8 active torsions:
REMARK  status: ('A' for Active; 'I' for Inactive)
REMARK    1  A    between atoms: C_1  and  C_2
REMARK    2  A    between atoms: C_2  and  S_3
REMARK    3  A    between atoms: S_3  and  C_6
REMARK    4  A    between atoms: C_6  and  C_7
REMARK    5  A    between atoms: C_7  and  N_8
REMARK    6  A    between atoms: N_11  and  C_12
REMARK    7  A    between atoms: C_13  and  C_14
REMARK    8  A    between atoms: N_15  and  O_16
REMARK                            x       y       z     vdW  Elec       q    Type
REMARK                         _______ _______ _______ _____ _____    ______ ____
ROOT
ATOM      1  N   UNL     1       4.285   4.856  19.412  0.00  0.00    +0.000 N 
ATOM      2  C   UNL     1       3.567   6.037  19.573  0.00  0.00    +0.000 A 
ATOM      3  C   UNL     1       2.280   5.696  19.839  0.00  0.00    +0.000 A 
ATOM      4  N   UNL     1       2.215   4.321  19.787  0.00  0.00    +0.000 N 
ATOM      5  C   UNL     1       0.987   3.546  19.981  0.00  0.00    +0.000 C 
ATOM      6  C   UNL     1       3.437   3.786  19.503  0.00  0.00    +0.000 A 
ENDROOT
BRANCH   6   7
ATOM      7  C   UNL     1       3.739   2.414  19.336  0.00  0.00    +0.000 C 
ATOM      8  N   UNL     1       3.709   1.767  18.209  0.00  0.00    +0.000 NA
BRANCH   8   9
ATOM      9  O   UNL     1       4.069   0.433  18.442  0.00  0.00    +0.000 OA
ATOM     10  H   UNL     1       3.325   0.084  18.974  0.00  0.00    +0.000 HD
ENDBRANCH   8   9
ENDBRANCH   6   7
BRANCH   1  11
ATOM     11  C   UNL     1       5.737   4.777  19.098  0.00  0.00    +0.000 C 
BRANCH  11  12
ATOM     12  C   UNL     1       6.225   5.889  18.188  0.00  0.00    +0.000 C 
BRANCH  12  13
ATOM     13  S   UNL     1       7.055   5.178  16.798  0.00  0.00    +0.000 S 
ATOM     14  O   UNL     1       8.011   4.237  17.343  0.00  0.00    +0.000 OA
ATOM     15  O   UNL     1       7.476   6.285  15.965  0.00  0.00    +0.000 OA
BRANCH  13  17
ATOM     16  C   UNL     1       6.139   3.895  14.561  0.00  0.00    +0.000 C 
ATOM     17  C   UNL     1       5.750   4.280  15.972  0.00  0.00    +0.000 C 
ENDBRANCH  13  17
ENDBRANCH  12  13
ENDBRANCH  11  12
ENDBRANCH   1  11
TORSDOF 6
ENDMDL
MODEL 5
REMARK VINA RESULT:      -6.1      3.011      5.677
REMARK  Name = 
REMARK  8 active torsions:
REMARK  status: ('A' for Active; 'I' for Inactive)
REMARK    1  A    between atoms: C_1  and  C_2
REMARK    2  A    between atoms: C_2  and  S_3
REMARK    3  A    between atoms: S_3  and  C_6
REMARK    4  A    between atoms: C_6  and  C_7
REMARK    5  A    between atoms: C_7  and  N_8
REMARK    6  A    between atoms: N_11  and  C_12
REMARK    7  A    between atoms: C_13  and  C_14
REMARK    8  A    between atoms: N_15  and  O_16
REMARK                            x       y       z     vdW  Elec       q    Type
REMARK                         _______ _______ _______ _____ _____    ______ ____
ROOT
ATOM      1  N   UNL     1       3.890   4.975  19.504  0.00  0.00    +0.000 N 
ATOM      2  C   UNL     1       2.970   5.962  19.843  0.00  0.00    +0.000 A 
ATOM      3  C   UNL     1       1.913   5.345  20.431  0.00  0.00    +0.000 A 
ATOM      4  N   UNL     1       2.173   3.993  20.398  0.00  0.00    +0.000 N 
ATOM      5  C   UNL     1       1.258   2.965  20.900  0.00  0.00    +0.000 C 
ATOM      6  C   UNL     1       3.377   3.743  19.809  0.00  0.00    +0.000 A 
ENDROOT
BRANCH   6   7
ATOM      7  C   UNL     1       3.953   2.473  19.570  0.00  0.00    +0.000 C 
ATOM      8  N   UNL     1       3.707   1.715  18.543  0.00  0.00    +0.000 NA
BRANCH   8   9
ATOM      9  O   UNL     1       4.462   0.541  18.656  0.00  0.00    +0.000 OA
ATOM     10  H   UNL     1       5.377   0.866  18.783  0.00  0.00    +0.000 HD
ENDBRANCH   8   9
ENDBRANCH   6   7
BRANCH   1  11
ATOM     11  C   UNL     1       5.192   5.220  18.828  0.00  0.00    +0.000 C 
BRANCH  11  12
ATOM     12  C   UNL     1       5.192   4.856  17.354  0.00  0.00    +0.000 C 
BRANCH  12  13
ATOM     13  S   UNL     1       6.542   5.672  16.556  0.00  0.00    +0.000 S 
ATOM     14  O   UNL     1       5.951   6.677  15.697  0.00  0.00    +0.000 OA
ATOM     15  O   UNL     1       7.392   4.628  16.023  0.00  0.00    +0.000 OA
BRANCH  13  17
ATOM     16  C   UNL     1       7.715   7.917  17.592  0.00  0.00    +0.000 C 
ATOM     17  C   UNL     1       7.379   6.477  17.915  0.00  0.00    +0.000 C 
ENDBRANCH  13  17
ENDBRANCH  12  13
ENDBRANCH  11  12
ENDBRANCH   1  11
TORSDOF 6
ENDMDL
MODEL 6
REMARK VINA RESULT:      -6.1      3.187      5.232
REMARK  Name = 
REMARK  8 active torsions:
REMARK  status: ('A' for Active; 'I' for Inactive)
REMARK    1  A    between atoms: C_1  and  C_2
REMARK    2  A    between atoms: C_2  and  S_3
REMARK    3  A    between atoms: S_3  and  C_6
REMARK    4  A    between atoms: C_6  and  C_7
REMARK    5  A    between atoms: C_7  and  N_8
REMARK    6  A    between atoms: N_11  and  C_12
REMARK    7  A    between atoms: C_13  and  C_14
REMARK    8  A    between atoms: N_15  and  O_16
REMARK                            x       y       z     vdW  Elec       q    Type
REMARK                         _______ _______ _______ _____ _____    ______ ____
ROOT
ATOM      1  N   UNL     1       4.018   4.401  18.620  0.00  0.00    +0.000 N 
ATOM      2  C   UNL     1       3.114   4.757  17.624  0.00  0.00    +0.000 A 
ATOM      3  C   UNL     1       2.015   3.975  17.776  0.00  0.00    +0.000 A 
ATOM      4  N   UNL     1       2.279   3.120  18.823  0.00  0.00    +0.000 N 
ATOM      5  C   UNL     1       1.358   2.080  19.290  0.00  0.00    +0.000 C 
ATOM      6  C   UNL     1       3.518   3.352  19.342  0.00  0.00    +0.000 A 
ENDROOT
BRANCH   6   7
ATOM      7  C   UNL     1       4.138   2.644  20.399  0.00  0.00    +0.000 C 
ATOM      8  N   UNL     1       5.084   1.763  20.263  0.00  0.00    +0.000 NA
BRANCH   8   9
ATOM      9  O   UNL     1       5.440   1.281  21.529  0.00  0.00    +0.000 OA
ATOM     10  H   UNL     1       4.817   0.540  21.677  0.00  0.00    +0.000 HD
ENDBRANCH   8   9
ENDBRANCH   6   7
BRANCH   1  11
ATOM     11  C   UNL     1       5.362   5.010  18.808  0.00  0.00    +0.000 C 
BRANCH  11  12
ATOM     12  C   UNL     1       5.648   6.162  17.861  0.00  0.00    +0.000 C 
BRANCH  12  13
ATOM     13  S   UNL     1       6.862   5.653  16.681  0.00  0.00    +0.000 S 
ATOM     14  O   UNL     1       7.420   4.417  17.188  0.00  0.00    +0.000 OA
ATOM     15  O   UNL     1       7.695   6.810  16.428  0.00  0.00    +0.000 OA
BRANCH  13  17
ATOM     16  C   UNL     1       6.162   3.921  14.682  0.00  0.00    +0.000 C 
ATOM     17  C   UNL     1       5.881   5.304  15.228  0.00  0.00    +0.000 C 
ENDBRANCH  13  17
ENDBRANCH  12  13
ENDBRANCH  11  12
ENDBRANCH   1  11
TORSDOF 6
ENDMDL
MODEL 7
REMARK VINA RESULT:      -6.1      3.231      5.408
REMARK  Name = 
REMARK  8 active torsions:
REMARK  status: ('A' for Active; 'I' for Inactive)
REMARK    1  A    between atoms: C_1  and  C_2
REMARK    2  A    between atoms: C_2  and  S_3
REMARK    3  A    between atoms: S_3  and  C_6
REMARK    4  A    between atoms: C_6  and  C_7
REMARK    5  A    between atoms: C_7  and  N_8
REMARK    6  A    between atoms: N_11  and  C_12
REMARK    7  A    between atoms: C_13  and  C_14
REMARK    8  A    between atoms: N_15  and  O_16
REMARK                            x       y       z     vdW  Elec       q    Type
REMARK                         _______ _______ _______ _____ _____    ______ ____
ROOT
ATOM      1  N   UNL     1       3.787   3.946  18.556  0.00  0.00    +0.000 N 
ATOM      2  C   UNL     1       2.692   4.386  17.819  0.00  0.00    +0.000 A 
ATOM      3  C   UNL     1       1.575   4.048  18.513  0.00  0.00    +0.000 A 
ATOM      4  N   UNL     1       1.995   3.364  19.633  0.00  0.00    +0.000 N 
ATOM      5  C   UNL     1       1.092   2.788  20.633  0.00  0.00    +0.000 C 
ATOM      6  C   UNL     1       3.354   3.270  19.665  0.00  0.00    +0.000 A 
ENDROOT
BRANCH   6   7
ATOM      7  C   UNL     1       4.132   2.608  20.644  0.00  0.00    +0.000 C 
ATOM      8  N   UNL     1       4.998   1.667  20.408  0.00  0.00    +0.000 NA
BRANCH   8   9
ATOM      9  O   UNL     1       5.566   1.260  21.622  0.00  0.00    +0.000 OA
ATOM     10  H   UNL     1       6.514   1.481  21.518  0.00  0.00    +0.000 HD
ENDBRANCH   8   9
ENDBRANCH   6   7
BRANCH   1  11
ATOM     11  C   UNL     1       5.208   4.106  18.148  0.00  0.00    +0.000 C 
BRANCH  11  12
ATOM     12  C   UNL     1       5.410   4.157  16.645  0.00  0.00    +0.000 C 
BRANCH  12  13
ATOM     13  S   UNL     1       6.735   5.267  16.275  0.00  0.00    +0.000 S 
ATOM     14  O   UNL     1       6.498   5.738  14.926  0.00  0.00    +0.000 OA
ATOM     15  O   UNL     1       7.957   4.575  16.629  0.00  0.00    +0.000 OA
BRANCH  13  17
ATOM     16  C   UNL     1       7.669   7.517  17.523  0.00  0.00    +0.000 C 
ATOM     17  C   UNL     1       6.462   6.609  17.424  0.00  0.00    +0.000 C 
ENDBRANCH  13  17
ENDBRANCH  12  13
ENDBRANCH  11  12
ENDBRANCH   1  11
TORSDOF 6
ENDMDL
MODEL 8
REMARK VINA RESULT:      -6.1      2.961      5.466
REMARK  Name = 
REMARK  8 active torsions:
REMARK  status: ('A' for Active; 'I' for Inactive)
REMARK    1  A    between atoms: C_1  and  C_2
REMARK    2  A    between atoms: C_2  and  S_3
REMARK    3  A    between atoms: S_3  and  C_6
REMARK    4  A    between atoms: C_6  and  C_7
REMARK    5  A    between atoms: C_7  and  N_8
REMARK    6  A    between atoms: N_11  and  C_12
REMARK    7  A    between atoms: C_13  and  C_14
REMARK    8  A    between atoms: N_15  and  O_16
REMARK                            x       y       z     vdW  Elec       q    Type
REMARK                         _______ _______ _______ _____ _____    ______ ____
ROOT
ATOM      1  N   UNL     1       3.777   5.179  18.225  0.00  0.00    +0.000 N 
ATOM      2  C   UNL     1       3.132   6.336  18.650  0.00  0.00    +0.000 A 
ATOM      3  C   UNL     1       2.506   6.045  19.819  0.00  0.00    +0.000 A 
ATOM      4  N   UNL     1       2.729   4.708  20.067  0.00  0.00    +0.000 N 
ATOM      5  C   UNL     1       2.188   3.982  21.219  0.00  0.00    +0.000 C 
ATOM      6  C   UNL     1       3.492   4.152  19.083  0.00  0.00    +0.000 A 
ENDROOT
BRANCH   6   7
ATOM      7  C   UNL     1       3.889   2.797  18.987  0.00  0.00    +0.000 C 
ATOM      8  N   UNL     1       3.330   1.899  18.230  0.00  0.00    +0.000 NA
BRANCH   8   9
ATOM      9  O   UNL     1       3.997   0.680  18.405  0.00  0.00    +0.000 OA
ATOM     10  H   UNL     1       4.317   0.723  19.329  0.00  0.00    +0.000 HD
ENDBRANCH   8   9
ENDBRANCH   6   7
BRANCH   1  11
ATOM     11  C   UNL     1       4.577   5.059  16.977  0.00  0.00    +0.000 C 
BRANCH  11  12
ATOM     12  C   UNL     1       5.222   6.360  16.538  0.00  0.00    +0.000 C 
BRANCH  12  13
ATOM     13  S   UNL     1       6.978   6.214  16.684  0.00  0.00    +0.000 S 
ATOM     14  O   UNL     1       7.458   7.526  17.065  0.00  0.00    +0.000 OA
ATOM     15  O   UNL     1       7.435   5.565  15.473  0.00  0.00    +0.000 OA
BRANCH  13  17
ATOM     16  C   UNL     1       7.834   5.767  19.245  0.00  0.00    +0.000 C 
ATOM     17  C   UNL     1       7.170   5.093  18.063  0.00  0.00    +0.000 C 
ENDBRANCH  13  17
ENDBRANCH  12  13
ENDBRANCH  11  12
ENDBRANCH   1  11
TORSDOF 6
ENDMDL
MODEL 9
REMARK VINA RESULT:      -6.0      2.760      5.654
REMARK  Name = 
REMARK  8 active torsions:
REMARK  status: ('A' for Active; 'I' for Inactive)
REMARK    1  A    between atoms: C_1  and  C_2
REMARK    2  A    between atoms: C_2  and  S_3
REMARK    3  A    between atoms: S_3  and  C_6
REMARK    4  A    between atoms: C_6  and  C_7
REMARK    5  A    between atoms: C_7  and  N_8
REMARK    6  A    between atoms: N_11  and  C_12
REMARK    7  A    between atoms: C_13  and  C_14
REMARK    8  A    between atoms: N_15  and  O_16
REMARK                            x       y       z     vdW  Elec       q    Type
REMARK                         _______ _______ _______ _____ _____    ______ ____
ROOT
ATOM      1  N   UNL     1       3.541   5.082  18.654  0.00  0.00    +0.000 N 
ATOM      2  C   UNL     1       2.817   6.148  19.178  0.00  0.00    +0.000 A 
ATOM      3  C   UNL     1       2.188   5.701  20.295  0.00  0.00    +0.000 A 
ATOM      4  N   UNL     1       2.492   4.362  20.412  0.00  0.00    +0.000 N 
ATOM      5  C   UNL     1       1.977   3.490  21.471  0.00  0.00    +0.000 C 
ATOM      6  C   UNL     1       3.307   3.957  19.397  0.00  0.00    +0.000 A 
ENDROOT
BRANCH   6   7
ATOM      7  C   UNL     1       3.791   2.646  19.175  0.00  0.00    +0.000 C 
ATOM      8  N   UNL     1       3.344   1.820  18.276  0.00  0.00    +0.000 NA
BRANCH   8   9
ATOM      9  O   UNL     1       4.069   0.624  18.359  0.00  0.00    +0.000 OA
ATOM     10  H   UNL     1       4.639   0.645  17.563  0.00  0.00    +0.000 HD
ENDBRANCH   8   9
ENDBRANCH   6   7
BRANCH   1  11
ATOM     11  C   UNL     1       4.370   5.139  17.420  0.00  0.00    +0.000 C 
BRANCH  11  12
ATOM     12  C   UNL     1       5.442   6.213  17.454  0.00  0.00    +0.000 C 
BRANCH  12  13
ATOM     13  S   UNL     1       7.004   5.462  17.803  0.00  0.00    +0.000 S 
ATOM     14  O   UNL     1       7.539   5.040  16.526  0.00  0.00    +0.000 OA
ATOM     15  O   UNL     1       6.770   4.515  18.874  0.00  0.00    +0.000 OA
BRANCH  13  17
ATOM     16  C   UNL     1       7.757   8.086  17.609  0.00  0.00    +0.000 C 
ATOM     17  C   UNL     1       7.972   6.830  18.425  0.00  0.00    +0.000 C 
ENDBRANCH  13  17
ENDBRANCH  12  13
ENDBRANCH  11  12
ENDBRANCH   1  11
TORSDOF 6
ENDMDL
