MODEL 1
REMARK VINA RESULT:      -6.7      0.000      0.000
REMARK  Name = 
REMARK  5 active torsions:
REMARK  status: ('A' for Active; 'I' for Inactive)
REMARK    1  A    between atoms: C_1  and  C_2
REMARK    2  A    between atoms: C_4  and  C_5
REMARK    3  A    between atoms: N_7  and  C_8
REMARK    4  A    between atoms: N_7  and  C_9
REMARK    5  A    between atoms: N_11  and  C_12
REMARK                            x       y       z     vdW  Elec       q    Type
REMARK                         _______ _______ _______ _____ _____    ______ ____
ROOT
ATOM      1  C   UNL     1       1.066   4.630  20.513  0.00  0.00    +0.000 C 
ATOM      2  C   UNL     1       2.371   5.205  20.107  0.00  0.00    +0.000 A 
ATOM      3  N   UNL     1       3.460   4.513  19.845  0.00  0.00    +0.000 NA
ATOM      4  C   UNL     1       4.344   5.442  19.334  0.00  0.00    +0.000 A 
ATOM      5  N   UNL     1       3.789   6.662  19.189  0.00  0.00    +0.000 NA
ATOM      6  N   UNL     1       2.600   6.537  19.815  0.00  0.00    +0.000 N 
ENDROOT
BRANCH   6   7
ATOM      7  C   UNL     1       1.818   7.680  20.111  0.00  0.00    +0.000 A 
ATOM      8  C   UNL     1       1.524   8.602  19.096  0.00  0.00    +0.000 A 
ATOM      9  C   UNL     1       0.742   9.720  19.388  0.00  0.00    +0.000 A 
ATOM     10 CL   UNL     1       0.315  10.817  18.132  0.00  0.00    +0.000 Cl
ATOM     11  C   UNL     1       0.290   9.958  20.684  0.00  0.00    +0.000 A 
ATOM     12  C   UNL     1       0.626   9.063  21.695  0.00  0.00    +0.000 A 
ATOM     13 CL   UNL     1       0.124   9.370  23.313  0.00  0.00    +0.000 Cl
ATOM     14  C   UNL     1       1.378   7.921  21.418  0.00  0.00    +0.000 A 
ENDBRANCH   6   7
BRANCH   4  15
ATOM     15  C   UNL     1       5.741   5.146  18.918  0.00  0.00    +0.000 C 
ATOM     16  O   UNL     1       6.653   5.186  19.752  0.00  0.00    +0.000 OA
ATOM     17  N   UNL     1       6.019   4.797  17.583  0.00  0.00    +0.000 N 
ATOM     18  C   UNL     1       5.041   4.531  16.540  0.00  0.00    +0.000 C 
ATOM     19  C   UNL     1       7.399   4.523  17.215  0.00  0.00    +0.000 C 
ENDBRANCH   4  15
TORSDOF 2
ENDMDL
MODEL 2
REMARK VINA RESULT:      -6.7      4.322      6.028
REMARK  Name = 
REMARK  5 active torsions:
REMARK  status: ('A' for Active; 'I' for Inactive)
REMARK    1  A    between atoms: C_1  and  C_2
REMARK    2  A    between atoms: C_4  and  C_5
REMARK    3  A    between atoms: N_7  and  C_8
REMARK    4  A    between atoms: N_7  and  C_9
REMARK    5  A    between atoms: N_11  and  C_12
REMARK                            x       y       z     vdW  Elec       q    Type
REMARK                         _______ _______ _______ _____ _____    ______ ____
ROOT
ATOM      1  C   UNL     1       3.986   7.059  17.658  0.00  0.00    +0.000 C 
ATOM      2  C   UNL     1       4.697   6.078  16.804  0.00  0.00    +0.000 A 
ATOM      3  N   UNL     1       5.400   6.372  15.730  0.00  0.00    +0.000 NA
ATOM      4  C   UNL     1       6.019   5.185  15.389  0.00  0.00    +0.000 A 
ATOM      5  N   UNL     1       5.789   4.203  16.282  0.00  0.00    +0.000 NA
ATOM      6  N   UNL     1       4.840   4.731  17.084  0.00  0.00    +0.000 N 
ENDROOT
BRANCH   6   7
ATOM      7  C   UNL     1       4.135   3.914  18.002  0.00  0.00    +0.000 A 
ATOM      8  C   UNL     1       4.845   3.178  18.961  0.00  0.00    +0.000 A 
ATOM      9  C   UNL     1       4.148   2.384  19.873  0.00  0.00    +0.000 A 
ATOM     10 CL   UNL     1       5.006   1.535  21.101  0.00  0.00    +0.000 Cl
ATOM     11  C   UNL     1       2.760   2.276  19.812  0.00  0.00    +0.000 A 
ATOM     12  C   UNL     1       2.068   2.973  18.826  0.00  0.00    +0.000 A 
ATOM     13 CL   UNL     1       0.359   2.807  18.700  0.00  0.00    +0.000 Cl
ATOM     14  C   UNL     1       2.742   3.798  17.927  0.00  0.00    +0.000 A 
ENDBRANCH   6   7
BRANCH   4  15
ATOM     15  C   UNL     1       6.903   4.999  14.207  0.00  0.00    +0.000 C 
ATOM     16  O   UNL     1       8.044   5.475  14.211  0.00  0.00    +0.000 OA
ATOM     17  N   UNL     1       6.449   4.261  13.097  0.00  0.00    +0.000 N 
ATOM     18  C   UNL     1       5.216   3.493  13.019  0.00  0.00    +0.000 C 
ATOM     19  C   UNL     1       7.341   4.108  11.959  0.00  0.00    +0.000 C 
ENDBRANCH   4  15
TORSDOF 2
ENDMDL
MODEL 3
REMARK VINA RESULT:      -6.7      5.454      7.876
REMARK  Name = 
REMARK  5 active torsions:
REMARK  status: ('A' for Active; 'I' for Inactive)
REMARK    1  A    between atoms: C_1  and  C_2
REMARK    2  A    between atoms: C_4  and  C_5
REMARK    3  A    between atoms: N_7  and  C_8
REMARK    4  A    between atoms: N_7  and  C_9
REMARK    5  A    between atoms: N_11  and  C_12
REMARK                            x       y       z     vdW  Elec       q    Type
REMARK                         _______ _______ _______ _____ _____    ______ ____
ROOT
ATOM      1  C   UNL     1       7.704   4.586  17.639  0.00  0.00    +0.000 C 
ATOM      2  C   UNL     1       6.239   4.442  17.465  0.00  0.00    +0.000 A 
ATOM      3  N   UNL     1       5.360   4.357  18.441  0.00  0.00    +0.000 NA
ATOM      4  C   UNL     1       4.135   4.429  17.809  0.00  0.00    +0.000 A 
ATOM      5  N   UNL     1       4.245   4.651  16.484  0.00  0.00    +0.000 NA
ATOM      6  N   UNL     1       5.569   4.509  16.257  0.00  0.00    +0.000 N 
ENDROOT
BRANCH   6   7
ATOM      7  C   UNL     1       6.066   4.410  14.934  0.00  0.00    +0.000 A 
ATOM      8  C   UNL     1       7.144   5.215  14.537  0.00  0.00    +0.000 A 
ATOM      9  C   UNL     1       7.641   5.107  13.237  0.00  0.00    +0.000 A 
ATOM     10 CL   UNL     1       9.010   6.037  12.764  0.00  0.00    +0.000 Cl
ATOM     11  C   UNL     1       7.050   4.245  12.316  0.00  0.00    +0.000 A 
ATOM     12  C   UNL     1       5.951   3.484  12.705  0.00  0.00    +0.000 A 
ATOM     13 CL   UNL     1       5.174   2.456  11.564  0.00  0.00    +0.000 Cl
ATOM     14  C   UNL     1       5.460   3.553  14.009  0.00  0.00    +0.000 A 
ENDBRANCH   6   7
BRANCH   4  15
ATOM     15  C   UNL     1       2.818   4.340  18.495  0.00  0.00    +0.000 C 
ATOM     16  O   UNL     1       2.157   5.366  18.693  0.00  0.00    +0.000 OA
ATOM     17  N   UNL     1       2.316   3.087  18.897  0.00  0.00    +0.000 N 
ATOM     18  C   UNL     1       2.885   1.787  18.573  0.00  0.00    +0.000 C 
ATOM     19  C   UNL     1       1.029   3.044  19.572  0.00  0.00    +0.000 C 
ENDBRANCH   4  15
TORSDOF 2
ENDMDL
MODEL 4
REMARK VINA RESULT:      -6.7      5.463      7.869
REMARK  Name = 
REMARK  5 active torsions:
REMARK  status: ('A' for Active; 'I' for Inactive)
REMARK    1  A    between atoms: C_1  and  C_2
REMARK    2  A    between atoms: C_4  and  C_5
REMARK    3  A    between atoms: N_7  and  C_8
REMARK    4  A    between atoms: N_7  and  C_9
REMARK    5  A    between atoms: N_11  and  C_12
REMARK                            x       y       z     vdW  Elec       q    Type
REMARK                         _______ _______ _______ _____ _____    ______ ____
ROOT
ATOM      1  C   UNL     1       7.705   4.622  17.657  0.00  0.00    +0.000 C 
ATOM      2  C   UNL     1       6.243   4.460  17.482  0.00  0.00    +0.000 A 
ATOM      3  N   UNL     1       5.366   4.355  18.458  0.00  0.00    +0.000 NA
ATOM      4  C   UNL     1       4.139   4.416  17.828  0.00  0.00    +0.000 A 
ATOM      5  N   UNL     1       4.245   4.651  16.505  0.00  0.00    +0.000 NA
ATOM      6  N   UNL     1       5.570   4.528  16.275  0.00  0.00    +0.000 N 
ENDROOT
BRANCH   6   7
ATOM      7  C   UNL     1       6.068   4.448  14.952  0.00  0.00    +0.000 A 
ATOM      8  C   UNL     1       5.488   3.548  14.046  0.00  0.00    +0.000 A 
ATOM      9  C   UNL     1       5.972   3.480  12.739  0.00  0.00    +0.000 A 
ATOM     10 CL   UNL     1       5.217   2.432  11.600  0.00  0.00    +0.000 Cl
ATOM     11  C   UNL     1       7.054   4.259  12.336  0.00  0.00    +0.000 A 
ATOM     12  C   UNL     1       7.654   5.115  13.255  0.00  0.00    +0.000 A 
ATOM     13 CL   UNL     1       9.027   6.043  12.790  0.00  0.00    +0.000 Cl
ATOM     14  C   UNL     1       7.164   5.223  14.556  0.00  0.00    +0.000 A 
ENDBRANCH   6   7
BRANCH   4  15
ATOM     15  C   UNL     1       2.824   4.304  18.515  0.00  0.00    +0.000 C 
ATOM     16  O   UNL     1       2.155   5.321  18.732  0.00  0.00    +0.000 OA
ATOM     17  N   UNL     1       2.333   3.040  18.894  0.00  0.00    +0.000 N 
ATOM     18  C   UNL     1       2.912   1.751  18.546  0.00  0.00    +0.000 C 
ATOM     19  C   UNL     1       1.048   2.974  19.570  0.00  0.00    +0.000 C 
ENDBRANCH   4  15
TORSDOF 2
ENDMDL
MODEL 5
REMARK VINA RESULT:      -6.6      0.053      2.068
REMARK  Name = 
REMARK  5 active torsions:
REMARK  status: ('A' for Active; 'I' for Inactive)
REMARK    1  A    between atoms: C_1  and  C_2
REMARK    2  A    between atoms: C_4  and  C_5
REMARK    3  A    between atoms: N_7  and  C_8
REMARK    4  A    between atoms: N_7  and  C_9
REMARK    5  A    between atoms: N_11  and  C_12
REMARK                            x       y       z     vdW  Elec       q    Type
REMARK                         _______ _______ _______ _____ _____    ______ ____
ROOT
ATOM      1  C   UNL     1       1.057   4.648  20.449  0.00  0.00    +0.000 C 
ATOM      2  C   UNL     1       2.371   5.219  20.069  0.00  0.00    +0.000 A 
ATOM      3  N   UNL     1       3.460   4.524  19.815  0.00  0.00    +0.000 NA
ATOM      4  C   UNL     1       4.357   5.454  19.329  0.00  0.00    +0.000 A 
ATOM      5  N   UNL     1       3.812   6.679  19.189  0.00  0.00    +0.000 NA
ATOM      6  N   UNL     1       2.613   6.554  19.796  0.00  0.00    +0.000 N 
ENDROOT
BRANCH   6   7
ATOM      7  C   UNL     1       1.833   7.698  20.094  0.00  0.00    +0.000 A 
ATOM      8  C   UNL     1       1.393   7.915  21.408  0.00  0.00    +0.000 A 
ATOM      9  C   UNL     1       0.636   9.050  21.701  0.00  0.00    +0.000 A 
ATOM     10 CL   UNL     1       0.155   9.362  23.324  0.00  0.00    +0.000 Cl
ATOM     11  C   UNL     1       0.271   9.944  20.697  0.00  0.00    +0.000 A 
ATOM     12  C   UNL     1       0.671   9.696  19.388  0.00  0.00    +0.000 A 
ATOM     13 CL   UNL     1       0.182  10.760  18.126  0.00  0.00    +0.000 Cl
ATOM     14  C   UNL     1       1.457   8.586  19.079  0.00  0.00    +0.000 A 
ENDBRANCH   6   7
BRANCH   4  15
ATOM     15  C   UNL     1       5.758   5.154  18.930  0.00  0.00    +0.000 C 
ATOM     16  O   UNL     1       6.663   5.212  19.771  0.00  0.00    +0.000 OA
ATOM     17  N   UNL     1       6.049   4.781  17.604  0.00  0.00    +0.000 N 
ATOM     18  C   UNL     1       5.080   4.493  16.558  0.00  0.00    +0.000 C 
ATOM     19  C   UNL     1       7.433   4.504  17.253  0.00  0.00    +0.000 C 
ENDBRANCH   4  15
TORSDOF 2
ENDMDL
MODEL 6
REMARK VINA RESULT:      -6.5      4.940      7.866
REMARK  Name = 
REMARK  5 active torsions:
REMARK  status: ('A' for Active; 'I' for Inactive)
REMARK    1  A    between atoms: C_1  and  C_2
REMARK    2  A    between atoms: C_4  and  C_5
REMARK    3  A    between atoms: N_7  and  C_8
REMARK    4  A    between atoms: N_7  and  C_9
REMARK    5  A    between atoms: N_11  and  C_12
REMARK                            x       y       z     vdW  Elec       q    Type
REMARK                         _______ _______ _______ _____ _____    ______ ____
ROOT
ATOM      1  C   UNL     1       7.512   5.007  17.654  0.00  0.00    +0.000 C 
ATOM      2  C   UNL     1       6.152   4.435  17.514  0.00  0.00    +0.000 A 
ATOM      3  N   UNL     1       5.347   4.130  18.510  0.00  0.00    +0.000 NA
ATOM      4  C   UNL     1       4.147   3.819  17.901  0.00  0.00    +0.000 A 
ATOM      5  N   UNL     1       4.173   4.021  16.569  0.00  0.00    +0.000 NA
ATOM      6  N   UNL     1       5.477   4.264  16.319  0.00  0.00    +0.000 N 
ENDROOT
BRANCH   6   7
ATOM      7  C   UNL     1       5.967   4.272  14.990  0.00  0.00    +0.000 A 
ATOM      8  C   UNL     1       5.367   3.450  14.025  0.00  0.00    +0.000 A 
ATOM      9  C   UNL     1       5.843   3.469  12.713  0.00  0.00    +0.000 A 
ATOM     10 CL   UNL     1       5.065   2.519  11.506  0.00  0.00    +0.000 Cl
ATOM     11  C   UNL     1       6.936   4.258  12.361  0.00  0.00    +0.000 A 
ATOM     12  C   UNL     1       7.555   5.034  13.336  0.00  0.00    +0.000 A 
ATOM     13 CL   UNL     1       8.941   5.971  12.931  0.00  0.00    +0.000 Cl
ATOM     14  C   UNL     1       7.074   5.055  14.645  0.00  0.00    +0.000 A 
ENDBRANCH   6   7
BRANCH   4  15
ATOM     15  C   UNL     1       2.923   3.372  18.617  0.00  0.00    +0.000 C 
ATOM     16  O   UNL     1       2.592   2.181  18.585  0.00  0.00    +0.000 OA
ATOM     17  N   UNL     1       2.157   4.299  19.349  0.00  0.00    +0.000 N 
ATOM     18  C   UNL     1       2.514   5.681  19.630  0.00  0.00    +0.000 C 
ATOM     19  C   UNL     1       0.962   3.823  20.029  0.00  0.00    +0.000 C 
ENDBRANCH   4  15
TORSDOF 2
ENDMDL
MODEL 7
REMARK VINA RESULT:      -6.5      4.983      7.827
REMARK  Name = 
REMARK  5 active torsions:
REMARK  status: ('A' for Active; 'I' for Inactive)
REMARK    1  A    between atoms: C_1  and  C_2
REMARK    2  A    between atoms: C_4  and  C_5
REMARK    3  A    between atoms: N_7  and  C_8
REMARK    4  A    between atoms: N_7  and  C_9
REMARK    5  A    between atoms: N_11  and  C_12
REMARK                            x       y       z     vdW  Elec       q    Type
REMARK                         _______ _______ _______ _____ _____    ______ ____
ROOT
ATOM      1  C   UNL     1       7.531   5.261  17.661  0.00  0.00    +0.000 C 
ATOM      2  C   UNL     1       6.246   4.526  17.584  0.00  0.00    +0.000 A 
ATOM      3  N   UNL     1       5.511   4.166  18.615  0.00  0.00    +0.000 NA
ATOM      4  C   UNL     1       4.342   3.691  18.055  0.00  0.00    +0.000 A 
ATOM      5  N   UNL     1       4.308   3.841  16.716  0.00  0.00    +0.000 NA
ATOM      6  N   UNL     1       5.566   4.228  16.417  0.00  0.00    +0.000 N 
ENDROOT
BRANCH   6   7
ATOM      7  C   UNL     1       6.016   4.241  15.074  0.00  0.00    +0.000 A 
ATOM      8  C   UNL     1       7.107   5.046  14.716  0.00  0.00    +0.000 A 
ATOM      9  C   UNL     1       7.556   5.048  13.395  0.00  0.00    +0.000 A 
ATOM     10 CL   UNL     1       8.940   5.975  12.963  0.00  0.00    +0.000 Cl
ATOM     11  C   UNL     1       6.906   4.297  12.418  0.00  0.00    +0.000 A 
ATOM     12  C   UNL     1       5.795   3.538  12.773  0.00  0.00    +0.000 A 
ATOM     13 CL   UNL     1       4.945   2.649  11.568  0.00  0.00    +0.000 Cl
ATOM     14  C   UNL     1       5.350   3.496  14.094  0.00  0.00    +0.000 A 
ENDBRANCH   6   7
BRANCH   4  15
ATOM     15  C   UNL     1       3.199   3.130  18.824  0.00  0.00    +0.000 C 
ATOM     16  O   UNL     1       3.097   1.906  18.969  0.00  0.00    +0.000 OA
ATOM     17  N   UNL     1       2.250   3.992  19.406  0.00  0.00    +0.000 N 
ATOM     18  C   UNL     1       2.335   5.443  19.479  0.00  0.00    +0.000 C 
ATOM     19  C   UNL     1       1.144   3.404  20.144  0.00  0.00    +0.000 C 
ENDBRANCH   4  15
TORSDOF 2
ENDMDL
MODEL 8
REMARK VINA RESULT:      -6.5      3.034      4.919
REMARK  Name = 
REMARK  5 active torsions:
REMARK  status: ('A' for Active; 'I' for Inactive)
REMARK    1  A    between atoms: C_1  and  C_2
REMARK    2  A    between atoms: C_4  and  C_5
REMARK    3  A    between atoms: N_7  and  C_8
REMARK    4  A    between atoms: N_7  and  C_9
REMARK    5  A    between atoms: N_11  and  C_12
REMARK                            x       y       z     vdW  Elec       q    Type
REMARK                         _______ _______ _______ _____ _____    ______ ____
ROOT
ATOM      1  C   UNL     1       7.324   5.332  19.084  0.00  0.00    +0.000 C 
ATOM      2  C   UNL     1       6.910   5.428  17.665  0.00  0.00    +0.000 A 
ATOM      3  N   UNL     1       7.691   5.215  16.627  0.00  0.00    +0.000 NA
ATOM      4  C   UNL     1       6.836   5.229  15.543  0.00  0.00    +0.000 A 
ATOM      5  N   UNL     1       5.542   5.349  15.902  0.00  0.00    +0.000 NA
ATOM      6  N   UNL     1       5.613   5.622  17.223  0.00  0.00    +0.000 N 
ENDROOT
BRANCH   6   7
ATOM      7  C   UNL     1       4.471   6.075  17.927  0.00  0.00    +0.000 A 
ATOM      8  C   UNL     1       3.961   5.310  18.986  0.00  0.00    +0.000 A 
ATOM      9  C   UNL     1       2.843   5.765  19.687  0.00  0.00    +0.000 A 
ATOM     10 CL   UNL     1       2.255   4.869  21.034  0.00  0.00    +0.000 Cl
ATOM     11  C   UNL     1       2.200   6.944  19.318  0.00  0.00    +0.000 A 
ATOM     12  C   UNL     1       2.685   7.673  18.236  0.00  0.00    +0.000 A 
ATOM     13 CL   UNL     1       1.868   9.102  17.732  0.00  0.00    +0.000 Cl
ATOM     14  C   UNL     1       3.820   7.253  17.544  0.00  0.00    +0.000 A 
ENDBRANCH   6   7
BRANCH   4  15
ATOM     15  C   UNL     1       7.258   5.066  14.126  0.00  0.00    +0.000 C 
ATOM     16  O   UNL     1       8.247   5.678  13.705  0.00  0.00    +0.000 OA
ATOM     17  N   UNL     1       6.548   4.198  13.274  0.00  0.00    +0.000 N 
ATOM     18  C   UNL     1       5.490   3.281  13.668  0.00  0.00    +0.000 C 
ATOM     19  C   UNL     1       6.989   4.073  11.894  0.00  0.00    +0.000 C 
ENDBRANCH   4  15
TORSDOF 2
ENDMDL
MODEL 9
REMARK VINA RESULT:      -6.4      5.348      7.786
REMARK  Name = 
REMARK  5 active torsions:
REMARK  status: ('A' for Active; 'I' for Inactive)
REMARK    1  A    between atoms: C_1  and  C_2
REMARK    2  A    between atoms: C_4  and  C_5
REMARK    3  A    between atoms: N_7  and  C_8
REMARK    4  A    between atoms: N_7  and  C_9
REMARK    5  A    between atoms: N_11  and  C_12
REMARK                            x       y       z     vdW  Elec       q    Type
REMARK                         _______ _______ _______ _____ _____    ______ ____
ROOT
ATOM      1  C   UNL     1       6.833   6.794  17.110  0.00  0.00    +0.000 C 
ATOM      2  C   UNL     1       6.098   5.525  17.327  0.00  0.00    +0.000 A 
ATOM      3  N   UNL     1       5.596   5.123  18.475  0.00  0.00    +0.000 NA
ATOM      4  C   UNL     1       4.852   4.005  18.153  0.00  0.00    +0.000 A 
ATOM      5  N   UNL     1       4.810   3.773  16.826  0.00  0.00    +0.000 NA
ATOM      6  N   UNL     1       5.716   4.644  16.332  0.00  0.00    +0.000 N 
ENDROOT
BRANCH   6   7
ATOM      7  C   UNL     1       6.160   4.538  14.991  0.00  0.00    +0.000 A 
ATOM      8  C   UNL     1       5.512   3.658  14.113  0.00  0.00    +0.000 A 
ATOM      9  C   UNL     1       5.944   3.565  12.789  0.00  0.00    +0.000 A 
ATOM     10 CL   UNL     1       5.108   2.542  11.685  0.00  0.00    +0.000 Cl
ATOM     11  C   UNL     1       7.040   4.301  12.342  0.00  0.00    +0.000 A 
ATOM     12  C   UNL     1       7.706   5.137  13.232  0.00  0.00    +0.000 A 
ATOM     13 CL   UNL     1       9.096   6.009  12.712  0.00  0.00    +0.000 Cl
ATOM     14  C   UNL     1       7.270   5.269  14.550  0.00  0.00    +0.000 A 
ENDBRANCH   6   7
BRANCH   4  15
ATOM     15  C   UNL     1       4.112   3.166  19.133  0.00  0.00    +0.000 C 
ATOM     16  O   UNL     1       4.730   2.375  19.856  0.00  0.00    +0.000 OA
ATOM     17  N   UNL     1       2.715   3.290  19.254  0.00  0.00    +0.000 N 
ATOM     18  C   UNL     1       1.881   4.295  18.612  0.00  0.00    +0.000 C 
ATOM     19  C   UNL     1       2.028   2.446  20.219  0.00  0.00    +0.000 C 
ENDBRANCH   4  15
TORSDOF 2
ENDMDL
