MODEL 1
REMARK VINA RESULT:      -7.3      0.000      0.000
REMARK  Name = 
REMARK  9 active torsions:
REMARK  status: ('A' for Active; 'I' for Inactive)
REMARK    1  A    between atoms: C_1  and  C_2
REMARK    2  A    between atoms: C_4  and  C_5
REMARK    3  A    between atoms: C_5  and  O_6
REMARK    4  A    between atoms: O_6  and  C_7
REMARK    5  A    between atoms: C_12  and  O_13
REMARK    6  A    between atoms: O_13  and  C_14
REMARK    7  A    between atoms: C_14  and  C_15
REMARK    8  A    between atoms: C_15  and  N_16
REMARK    9  A    between atoms: N_19  and  C_20
REMARK                            x       y       z     vdW  Elec       q    Type
REMARK                         _______ _______ _______ _____ _____    ______ ____
ROOT
ATOM      1  C   UNL     1       4.045   4.316  18.330  0.00  0.00    +0.000 A 
ATOM      2  C   UNL     1       3.633   3.218  17.555  0.00  0.00    +0.000 A 
ATOM      3  C   UNL     1       2.336   2.716  17.624  0.00  0.00    +0.000 A 
ATOM      4  C   UNL     1       1.416   3.310  18.479  0.00  0.00    +0.000 A 
ATOM      5  C   UNL     1       1.797   4.418  19.238  0.00  0.00    +0.000 A 
ATOM      6  C   UNL     1       3.091   4.964  19.152  0.00  0.00    +0.000 A 
ENDROOT
BRANCH   1   7
ATOM      7  O   UNL     1       5.358   4.624  18.067  0.00  0.00    +0.000 OA
BRANCH   7   8
ATOM      8  C   UNL     1       5.633   5.693  17.165  0.00  0.00    +0.000 C 
BRANCH   8  12
ATOM      9  C   UNL     1       6.678   3.909  12.498  0.00  0.00    +0.000 C 
ATOM     10  C   UNL     1       6.568   4.514  13.834  0.00  0.00    +0.000 A 
ATOM     11  C   UNL     1       5.600   4.552  14.804  0.00  0.00    +0.000 A 
ATOM     12  C   UNL     1       6.199   5.279  15.855  0.00  0.00    +0.000 A 
ATOM     13  N   UNL     1       7.432   5.693  15.524  0.00  0.00    +0.000 NA
ATOM     14  O   UNL     1       7.663   5.207  14.257  0.00  0.00    +0.000 OA
ENDBRANCH   8  12
ENDBRANCH   7   8
ENDBRANCH   1   7
BRANCH   6  15
ATOM     15  O   UNL     1       3.179   6.136  19.885  0.00  0.00    +0.000 OA
BRANCH  15  16
ATOM     16  C   UNL     1       2.143   7.062  19.634  0.00  0.00    +0.000 C 
BRANCH  16  17
ATOM     17  C   UNL     1       1.465   7.718  20.833  0.00  0.00    +0.000 C 
BRANCH  17  18
ATOM     18  N   UNL     1       1.138   9.126  20.486  0.00  0.00    +0.000 NA
ATOM     19  C   UNL     1      -0.210   9.493  20.957  0.00  0.00    +0.000 C 
ATOM     20  C   UNL     1      -0.670  10.888  20.465  0.00  0.00    +0.000 C 
ATOM     21  N   UNL     1      -0.562  11.104  19.004  0.00  0.00    +0.000 NA
ATOM     22  C   UNL     1      -1.515  10.282  18.258  0.00  0.00    +0.000 C 
ATOM     23  C   UNL     1       0.819  10.806  18.601  0.00  0.00    +0.000 C 
ATOM     24  C   UNL     1       1.314   9.414  19.043  0.00  0.00    +0.000 C 
ENDBRANCH  17  18
ENDBRANCH  16  17
ENDBRANCH  15  16
ENDBRANCH   6  15
TORSDOF 7
ENDMDL
MODEL 2
REMARK VINA RESULT:      -7.2      2.823      5.052
REMARK  Name = 
REMARK  9 active torsions:
REMARK  status: ('A' for Active; 'I' for Inactive)
REMARK    1  A    between atoms: C_1  and  C_2
REMARK    2  A    between atoms: C_4  and  C_5
REMARK    3  A    between atoms: C_5  and  O_6
REMARK    4  A    between atoms: O_6  and  C_7
REMARK    5  A    between atoms: C_12  and  O_13
REMARK    6  A    between atoms: O_13  and  C_14
REMARK    7  A    between atoms: C_14  and  C_15
REMARK    8  A    between atoms: C_15  and  N_16
REMARK    9  A    between atoms: N_19  and  C_20
REMARK                            x       y       z     vdW  Elec       q    Type
REMARK                         _______ _______ _______ _____ _____    ______ ____
ROOT
ATOM      1  C   UNL     1       3.725   6.477  18.286  0.00  0.00    +0.000 A 
ATOM      2  C   UNL     1       3.435   7.605  17.500  0.00  0.00    +0.000 A 
ATOM      3  C   UNL     1       2.472   8.537  17.880  0.00  0.00    +0.000 A 
ATOM      4  C   UNL     1       1.773   8.355  19.067  0.00  0.00    +0.000 A 
ATOM      5  C   UNL     1       2.065   7.254  19.876  0.00  0.00    +0.000 A 
ATOM      6  C   UNL     1       3.062   6.324  19.528  0.00  0.00    +0.000 A 
ENDROOT
BRANCH   1   7
ATOM      7  O   UNL     1       4.719   5.728  17.703  0.00  0.00    +0.000 OA
BRANCH   7   8
ATOM      8  C   UNL     1       5.727   6.407  16.959  0.00  0.00    +0.000 C 
BRANCH   8  12
ATOM      9  C   UNL     1       6.482   3.685  12.707  0.00  0.00    +0.000 C 
ATOM     10  C   UNL     1       6.470   4.520  13.917  0.00  0.00    +0.000 A 
ATOM     11  C   UNL     1       5.513   4.903  14.821  0.00  0.00    +0.000 A 
ATOM     12  C   UNL     1       6.224   5.676  15.764  0.00  0.00    +0.000 A 
ATOM     13  N   UNL     1       7.517   5.794  15.426  0.00  0.00    +0.000 NA
ATOM     14  O   UNL     1       7.670   5.063  14.270  0.00  0.00    +0.000 OA
ENDBRANCH   8  12
ENDBRANCH   7   8
ENDBRANCH   1   7
BRANCH   6  15
ATOM     15  O   UNL     1       3.262   5.414  20.552  0.00  0.00    +0.000 OA
BRANCH  15  16
ATOM     16  C   UNL     1       2.078   4.964  21.176  0.00  0.00    +0.000 C 
BRANCH  16  17
ATOM     17  C   UNL     1       2.061   3.546  21.738  0.00  0.00    +0.000 C 
BRANCH  17  18
ATOM     18  N   UNL     1       1.983   2.584  20.606  0.00  0.00    +0.000 NA
ATOM     19  C   UNL     1       3.290   2.436  19.940  0.00  0.00    +0.000 C 
ATOM     20  C   UNL     1       3.223   1.587  18.646  0.00  0.00    +0.000 C 
ATOM     21  N   UNL     1       2.197   2.014  17.669  0.00  0.00    +0.000 NA
ATOM     22  C   UNL     1       2.520   3.308  17.067  0.00  0.00    +0.000 C 
ATOM     23  C   UNL     1       0.902   2.065  18.362  0.00  0.00    +0.000 C 
ATOM     24  C   UNL     1       0.910   2.924  19.642  0.00  0.00    +0.000 C 
ENDBRANCH  17  18
ENDBRANCH  16  17
ENDBRANCH  15  16
ENDBRANCH   6  15
TORSDOF 7
ENDMDL
MODEL 3
REMARK VINA RESULT:      -7.2      1.483      1.823
REMARK  Name = 
REMARK  9 active torsions:
REMARK  status: ('A' for Active; 'I' for Inactive)
REMARK    1  A    between atoms: C_1  and  C_2
REMARK    2  A    between atoms: C_4  and  C_5
REMARK    3  A    between atoms: C_5  and  O_6
REMARK    4  A    between atoms: O_6  and  C_7
REMARK    5  A    between atoms: C_12  and  O_13
REMARK    6  A    between atoms: O_13  and  C_14
REMARK    7  A    between atoms: C_14  and  C_15
REMARK    8  A    between atoms: C_15  and  N_16
REMARK    9  A    between atoms: N_19  and  C_20
REMARK                            x       y       z     vdW  Elec       q    Type
REMARK                         _______ _______ _______ _____ _____    ______ ____
ROOT
ATOM      1  C   UNL     1       3.851   3.787  19.522  0.00  0.00    +0.000 A 
ATOM      2  C   UNL     1       3.501   2.875  20.533  0.00  0.00    +0.000 A 
ATOM      3  C   UNL     1       2.245   2.894  21.135  0.00  0.00    +0.000 A 
ATOM      4  C   UNL     1       1.306   3.835  20.734  0.00  0.00    +0.000 A 
ATOM      5  C   UNL     1       1.625   4.733  19.712  0.00  0.00    +0.000 A 
ATOM      6  C   UNL     1       2.874   4.704  19.065  0.00  0.00    +0.000 A 
ENDROOT
BRANCH   1   7
ATOM      7  O   UNL     1       5.132   3.549  19.083  0.00  0.00    +0.000 OA
BRANCH   7   8
ATOM      8  C   UNL     1       5.924   4.662  18.677  0.00  0.00    +0.000 C 
BRANCH   8  12
ATOM      9  C   UNL     1       6.463   4.100  13.633  0.00  0.00    +0.000 C 
ATOM     10  C   UNL     1       6.462   4.406  15.071  0.00  0.00    +0.000 A 
ATOM     11  C   UNL     1       5.731   3.985  16.151  0.00  0.00    +0.000 A 
ATOM     12  C   UNL     1       6.310   4.668  17.243  0.00  0.00    +0.000 A 
ATOM     13  N   UNL     1       7.296   5.484  16.841  0.00  0.00    +0.000 NA
ATOM     14  O   UNL     1       7.393   5.314  15.479  0.00  0.00    +0.000 OA
ENDBRANCH   8  12
ENDBRANCH   7   8
ENDBRANCH   1   7
BRANCH   6  15
ATOM     15  O   UNL     1       2.895   5.588  18.000  0.00  0.00    +0.000 OA
BRANCH  15  16
ATOM     16  C   UNL     1       3.058   6.943  18.366  0.00  0.00    +0.000 C 
BRANCH  16  17
ATOM     17  C   UNL     1       2.030   7.949  17.856  0.00  0.00    +0.000 C 
BRANCH  17  18
ATOM     18  N   UNL     1       1.972   9.093  18.804  0.00  0.00    +0.000 NA
ATOM     19  C   UNL     1       1.169   8.761  19.995  0.00  0.00    +0.000 C 
ATOM     20  C   UNL     1       0.926   9.975  20.926  0.00  0.00    +0.000 C 
ATOM     21  N   UNL     1       0.377  11.176  20.259  0.00  0.00    +0.000 NA
ATOM     22  C   UNL     1      -0.998  10.969  19.804  0.00  0.00    +0.000 C 
ATOM     23  C   UNL     1       1.259  11.514  19.133  0.00  0.00    +0.000 C 
ATOM     24  C   UNL     1       1.507  10.344  18.158  0.00  0.00    +0.000 C 
ENDBRANCH  17  18
ENDBRANCH  16  17
ENDBRANCH  15  16
ENDBRANCH   6  15
TORSDOF 7
ENDMDL
MODEL 4
REMARK VINA RESULT:      -7.1      1.108      1.653
REMARK  Name = 
REMARK  9 active torsions:
REMARK  status: ('A' for Active; 'I' for Inactive)
REMARK    1  A    between atoms: C_1  and  C_2
REMARK    2  A    between atoms: C_4  and  C_5
REMARK    3  A    between atoms: C_5  and  O_6
REMARK    4  A    between atoms: O_6  and  C_7
REMARK    5  A    between atoms: C_12  and  O_13
REMARK    6  A    between atoms: O_13  and  C_14
REMARK    7  A    between atoms: C_14  and  C_15
REMARK    8  A    between atoms: C_15  and  N_16
REMARK    9  A    between atoms: N_19  and  C_20
REMARK                            x       y       z     vdW  Elec       q    Type
REMARK                         _______ _______ _______ _____ _____    ______ ____
ROOT
ATOM      1  C   UNL     1       3.940   3.433  19.062  0.00  0.00    +0.000 A 
ATOM      2  C   UNL     1       3.598   2.450  18.117  0.00  0.00    +0.000 A 
ATOM      3  C   UNL     1       2.280   2.038  17.931  0.00  0.00    +0.000 A 
ATOM      4  C   UNL     1       1.270   2.607  18.695  0.00  0.00    +0.000 A 
ATOM      5  C   UNL     1       1.585   3.604  19.621  0.00  0.00    +0.000 A 
ATOM      6  C   UNL     1       2.904   4.062  19.795  0.00  0.00    +0.000 A 
ENDROOT
BRANCH   1   7
ATOM      7  O   UNL     1       5.293   3.672  19.038  0.00  0.00    +0.000 OA
BRANCH   7   8
ATOM      8  C   UNL     1       5.751   4.910  18.502  0.00  0.00    +0.000 C 
BRANCH   8  12
ATOM      9  C   UNL     1       6.629   4.234  13.519  0.00  0.00    +0.000 C 
ATOM     10  C   UNL     1       6.554   4.544  14.954  0.00  0.00    +0.000 A 
ATOM     11  C   UNL     1       5.668   4.262  15.962  0.00  0.00    +0.000 A 
ATOM     12  C   UNL     1       6.257   4.841  17.106  0.00  0.00    +0.000 A 
ATOM     13  N   UNL     1       7.400   5.474  16.801  0.00  0.00    +0.000 NA
ATOM     14  O   UNL     1       7.587   5.281  15.451  0.00  0.00    +0.000 OA
ENDBRANCH   8  12
ENDBRANCH   7   8
ENDBRANCH   1   7
BRANCH   6  15
ATOM     15  O   UNL     1       2.938   5.145  20.656  0.00  0.00    +0.000 OA
BRANCH  15  16
ATOM     16  C   UNL     1       1.954   6.126  20.403  0.00  0.00    +0.000 C 
BRANCH  16  17
ATOM     17  C   UNL     1       2.354   7.341  19.572  0.00  0.00    +0.000 C 
BRANCH  17  18
ATOM     18  N   UNL     1       1.209   8.289  19.531  0.00  0.00    +0.000 NA
ATOM     19  C   UNL     1       1.430   9.350  18.531  0.00  0.00    +0.000 C 
ATOM     20  C   UNL     1       0.353  10.463  18.574  0.00  0.00    +0.000 C 
ATOM     21  N   UNL     1       0.121  11.059  19.908  0.00  0.00    +0.000 NA
ATOM     22  C   UNL     1       1.268  11.844  20.364  0.00  0.00    +0.000 C 
ATOM     23  C   UNL     1      -0.177   9.969  20.847  0.00  0.00    +0.000 C 
ATOM     24  C   UNL     1       0.883   8.848  20.864  0.00  0.00    +0.000 C 
ENDBRANCH  17  18
ENDBRANCH  16  17
ENDBRANCH  15  16
ENDBRANCH   6  15
TORSDOF 7
ENDMDL
MODEL 5
REMARK VINA RESULT:      -7.1      1.123      1.643
REMARK  Name = 
REMARK  9 active torsions:
REMARK  status: ('A' for Active; 'I' for Inactive)
REMARK    1  A    between atoms: C_1  and  C_2
REMARK    2  A    between atoms: C_4  and  C_5
REMARK    3  A    between atoms: C_5  and  O_6
REMARK    4  A    between atoms: O_6  and  C_7
REMARK    5  A    between atoms: C_12  and  O_13
REMARK    6  A    between atoms: O_13  and  C_14
REMARK    7  A    between atoms: C_14  and  C_15
REMARK    8  A    between atoms: C_15  and  N_16
REMARK    9  A    between atoms: N_19  and  C_20
REMARK                            x       y       z     vdW  Elec       q    Type
REMARK                         _______ _______ _______ _____ _____    ______ ____
ROOT
ATOM      1  C   UNL     1       2.876   5.232  18.192  0.00  0.00    +0.000 A 
ATOM      2  C   UNL     1       2.330   4.095  17.574  0.00  0.00    +0.000 A 
ATOM      3  C   UNL     1       1.443   3.251  18.240  0.00  0.00    +0.000 A 
ATOM      4  C   UNL     1       1.083   3.534  19.551  0.00  0.00    +0.000 A 
ATOM      5  C   UNL     1       1.594   4.674  20.176  0.00  0.00    +0.000 A 
ATOM      6  C   UNL     1       2.459   5.559  19.505  0.00  0.00    +0.000 A 
ENDROOT
BRANCH   1   7
ATOM      7  O   UNL     1       3.703   5.902  17.322  0.00  0.00    +0.000 OA
BRANCH   7   8
ATOM      8  C   UNL     1       5.111   5.747  17.476  0.00  0.00    +0.000 C 
BRANCH   8  12
ATOM      9  C   UNL     1       6.737   3.913  12.998  0.00  0.00    +0.000 C 
ATOM     10  C   UNL     1       6.456   4.540  14.298  0.00  0.00    +0.000 A 
ATOM     11  C   UNL     1       5.386   4.557  15.155  0.00  0.00    +0.000 A 
ATOM     12  C   UNL     1       5.835   5.331  16.247  0.00  0.00    +0.000 A 
ATOM     13  N   UNL     1       7.079   5.791  16.041  0.00  0.00    +0.000 NA
ATOM     14  O   UNL     1       7.467   5.289  14.820  0.00  0.00    +0.000 OA
ENDBRANCH   8  12
ENDBRANCH   7   8
ENDBRANCH   1   7
BRANCH   6  15
ATOM     15  O   UNL     1       2.709   6.680  20.278  0.00  0.00    +0.000 OA
BRANCH  15  16
ATOM     16  C   UNL     1       1.856   7.775  20.016  0.00  0.00    +0.000 C 
BRANCH  16  17
ATOM     17  C   UNL     1       1.153   8.431  21.200  0.00  0.00    +0.000 C 
BRANCH  17  18
ATOM     18  N   UNL     1       0.261   9.507  20.690  0.00  0.00    +0.000 NA
ATOM     19  C   UNL     1       0.683   9.960  19.353  0.00  0.00    +0.000 C 
ATOM     20  C   UNL     1      -0.099  11.201  18.854  0.00  0.00    +0.000 C 
ATOM     21  N   UNL     1      -0.130  12.343  19.795  0.00  0.00    +0.000 NA
ATOM     22  C   UNL     1       1.187  12.960  19.948  0.00  0.00    +0.000 C 
ATOM     23  C   UNL     1      -0.637  11.855  21.085  0.00  0.00    +0.000 C 
ATOM     24  C   UNL     1       0.131  10.637  21.640  0.00  0.00    +0.000 C 
ENDBRANCH  17  18
ENDBRANCH  16  17
ENDBRANCH  15  16
ENDBRANCH   6  15
TORSDOF 7
ENDMDL
MODEL 6
REMARK VINA RESULT:      -7.1      1.315      1.808
REMARK  Name = 
REMARK  9 active torsions:
REMARK  status: ('A' for Active; 'I' for Inactive)
REMARK    1  A    between atoms: C_1  and  C_2
REMARK    2  A    between atoms: C_4  and  C_5
REMARK    3  A    between atoms: C_5  and  O_6
REMARK    4  A    between atoms: O_6  and  C_7
REMARK    5  A    between atoms: C_12  and  O_13
REMARK    6  A    between atoms: O_13  and  C_14
REMARK    7  A    between atoms: C_14  and  C_15
REMARK    8  A    between atoms: C_15  and  N_16
REMARK    9  A    between atoms: N_19  and  C_20
REMARK                            x       y       z     vdW  Elec       q    Type
REMARK                         _______ _______ _______ _____ _____    ______ ____
ROOT
ATOM      1  C   UNL     1       3.232   3.691  17.551  0.00  0.00    +0.000 A 
ATOM      2  C   UNL     1       3.272   2.341  17.941  0.00  0.00    +0.000 A 
ATOM      3  C   UNL     1       2.506   1.861  19.001  0.00  0.00    +0.000 A 
ATOM      4  C   UNL     1       1.678   2.730  19.698  0.00  0.00    +0.000 A 
ATOM      5  C   UNL     1       1.603   4.070  19.310  0.00  0.00    +0.000 A 
ATOM      6  C   UNL     1       2.339   4.565  18.217  0.00  0.00    +0.000 A 
ENDROOT
BRANCH   1   7
ATOM      7  O   UNL     1       4.060   3.905  16.475  0.00  0.00    +0.000 OA
BRANCH   7   8
ATOM      8  C   UNL     1       5.401   4.317  16.728  0.00  0.00    +0.000 C 
BRANCH   8  12
ATOM      9  C   UNL     1       7.496   4.698  12.088  0.00  0.00    +0.000 C 
ATOM     10  C   UNL     1       7.044   4.722  13.488  0.00  0.00    +0.000 A 
ATOM     11  C   UNL     1       6.010   4.151  14.182  0.00  0.00    +0.000 A 
ATOM     12  C   UNL     1       6.218   4.573  15.513  0.00  0.00    +0.000 A 
ATOM     13  N   UNL     1       7.281   5.385  15.608  0.00  0.00    +0.000 NA
ATOM     14  O   UNL     1       7.801   5.473  14.337  0.00  0.00    +0.000 OA
ENDBRANCH   8  12
ENDBRANCH   7   8
ENDBRANCH   1   7
BRANCH   6  15
ATOM     15  O   UNL     1       1.987   5.876  17.943  0.00  0.00    +0.000 OA
BRANCH  15  16
ATOM     16  C   UNL     1       2.858   6.843  18.492  0.00  0.00    +0.000 C 
BRANCH  16  17
ATOM     17  C   UNL     1       2.695   8.290  18.037  0.00  0.00    +0.000 C 
BRANCH  17  18
ATOM     18  N   UNL     1       1.422   8.825  18.589  0.00  0.00    +0.000 NA
ATOM     19  C   UNL     1       1.151  10.184  18.088  0.00  0.00    +0.000 C 
ATOM     20  C   UNL     1      -0.066  10.856  18.771  0.00  0.00    +0.000 C 
ATOM     21  N   UNL     1      -0.034  10.853  20.251  0.00  0.00    +0.000 NA
ATOM     22  C   UNL     1       1.020  11.721  20.776  0.00  0.00    +0.000 C 
ATOM     23  C   UNL     1       0.153   9.467  20.699  0.00  0.00    +0.000 C 
ATOM     24  C   UNL     1       1.373   8.763  20.069  0.00  0.00    +0.000 C 
ENDBRANCH  17  18
ENDBRANCH  16  17
ENDBRANCH  15  16
ENDBRANCH   6  15
TORSDOF 7
ENDMDL
MODEL 7
REMARK VINA RESULT:      -7.1      2.104      2.703
REMARK  Name = 
REMARK  9 active torsions:
REMARK  status: ('A' for Active; 'I' for Inactive)
REMARK    1  A    between atoms: C_1  and  C_2
REMARK    2  A    between atoms: C_4  and  C_5
REMARK    3  A    between atoms: C_5  and  O_6
REMARK    4  A    between atoms: O_6  and  C_7
REMARK    5  A    between atoms: C_12  and  O_13
REMARK    6  A    between atoms: O_13  and  C_14
REMARK    7  A    between atoms: C_14  and  C_15
REMARK    8  A    between atoms: C_15  and  N_16
REMARK    9  A    between atoms: N_19  and  C_20
REMARK                            x       y       z     vdW  Elec       q    Type
REMARK                         _______ _______ _______ _____ _____    ______ ____
ROOT
ATOM      1  C   UNL     1       2.748   4.435  18.284  0.00  0.00    +0.000 A 
ATOM      2  C   UNL     1       2.067   3.237  18.560  0.00  0.00    +0.000 A 
ATOM      3  C   UNL     1       1.262   3.094  19.688  0.00  0.00    +0.000 A 
ATOM      4  C   UNL     1       1.121   4.158  20.569  0.00  0.00    +0.000 A 
ATOM      5  C   UNL     1       1.769   5.366  20.300  0.00  0.00    +0.000 A 
ATOM      6  C   UNL     1       2.554   5.542  19.145  0.00  0.00    +0.000 A 
ENDROOT
BRANCH   1   7
ATOM      7  O   UNL     1       3.456   4.325  17.110  0.00  0.00    +0.000 OA
BRANCH   7   8
ATOM      8  C   UNL     1       4.789   3.826  17.171  0.00  0.00    +0.000 C 
BRANCH   8  12
ATOM      9  C   UNL     1       7.771   7.942  17.650  0.00  0.00    +0.000 C 
ATOM     10  C   UNL     1       7.045   6.663  17.648  0.00  0.00    +0.000 A 
ATOM     11  C   UNL     1       5.904   6.197  17.047  0.00  0.00    +0.000 A 
ATOM     12  C   UNL     1       5.829   4.849  17.458  0.00  0.00    +0.000 A 
ATOM     13  N   UNL     1       6.832   4.535  18.292  0.00  0.00    +0.000 NA
ATOM     14  O   UNL     1       7.596   5.673  18.405  0.00  0.00    +0.000 OA
ENDBRANCH   8  12
ENDBRANCH   7   8
ENDBRANCH   1   7
BRANCH   6  15
ATOM     15  O   UNL     1       2.966   6.859  19.028  0.00  0.00    +0.000 OA
BRANCH  15  16
ATOM     16  C   UNL     1       2.327   7.583  17.998  0.00  0.00    +0.000 C 
BRANCH  16  17
ATOM     17  C   UNL     1       2.146   9.086  18.188  0.00  0.00    +0.000 C 
BRANCH  17  18
ATOM     18  N   UNL     1       0.857   9.328  18.890  0.00  0.00    +0.000 NA
ATOM     19  C   UNL     1      -0.077  10.090  18.042  0.00  0.00    +0.000 C 
ATOM     20  C   UNL     1      -1.363  10.524  18.788  0.00  0.00    +0.000 C 
ATOM     21  N   UNL     1      -1.136  11.235  20.066  0.00  0.00    +0.000 NA
ATOM     22  C   UNL     1      -0.545  12.557  19.859  0.00  0.00    +0.000 C 
ATOM     23  C   UNL     1      -0.269  10.397  20.905  0.00  0.00    +0.000 C 
ATOM     24  C   UNL     1       1.041   9.963  20.216  0.00  0.00    +0.000 C 
ENDBRANCH  17  18
ENDBRANCH  16  17
ENDBRANCH  15  16
ENDBRANCH   6  15
TORSDOF 7
ENDMDL
MODEL 8
REMARK VINA RESULT:      -7.1      1.258      1.490
REMARK  Name = 
REMARK  9 active torsions:
REMARK  status: ('A' for Active; 'I' for Inactive)
REMARK    1  A    between atoms: C_1  and  C_2
REMARK    2  A    between atoms: C_4  and  C_5
REMARK    3  A    between atoms: C_5  and  O_6
REMARK    4  A    between atoms: O_6  and  C_7
REMARK    5  A    between atoms: C_12  and  O_13
REMARK    6  A    between atoms: O_13  and  C_14
REMARK    7  A    between atoms: C_14  and  C_15
REMARK    8  A    between atoms: C_15  and  N_16
REMARK    9  A    between atoms: N_19  and  C_20
REMARK                            x       y       z     vdW  Elec       q    Type
REMARK                         _______ _______ _______ _____ _____    ______ ____
ROOT
ATOM      1  C   UNL     1       4.290   4.710  17.913  0.00  0.00    +0.000 A 
ATOM      2  C   UNL     1       3.835   3.383  17.820  0.00  0.00    +0.000 A 
ATOM      3  C   UNL     1       2.479   3.067  17.861  0.00  0.00    +0.000 A 
ATOM      4  C   UNL     1       1.542   4.084  17.997  0.00  0.00    +0.000 A 
ATOM      5  C   UNL     1       1.972   5.411  18.066  0.00  0.00    +0.000 A 
ATOM      6  C   UNL     1       3.335   5.752  17.986  0.00  0.00    +0.000 A 
ENDROOT
BRANCH   1   7
ATOM      7  O   UNL     1       5.661   4.754  17.830  0.00  0.00    +0.000 OA
BRANCH   7   8
ATOM      8  C   UNL     1       6.251   5.645  16.887  0.00  0.00    +0.000 C 
BRANCH   8  12
ATOM      9  C   UNL     1       6.056   3.319  12.348  0.00  0.00    +0.000 C 
ATOM     10  C   UNL     1       6.293   4.076  13.586  0.00  0.00    +0.000 A 
ATOM     11  C   UNL     1       5.617   4.237  14.767  0.00  0.00    +0.000 A 
ATOM     12  C   UNL     1       6.458   5.075  15.530  0.00  0.00    +0.000 A 
ATOM     13  N   UNL     1       7.548   5.436  14.836  0.00  0.00    +0.000 NA
ATOM     14  O   UNL     1       7.445   4.803  13.619  0.00  0.00    +0.000 OA
ENDBRANCH   8  12
ENDBRANCH   7   8
ENDBRANCH   1   7
BRANCH   6  15
ATOM     15  O   UNL     1       3.494   7.127  17.930  0.00  0.00    +0.000 OA
BRANCH  15  16
ATOM     16  C   UNL     1       2.423   7.863  18.484  0.00  0.00    +0.000 C 
BRANCH  16  17
ATOM     17  C   UNL     1       2.024   9.167  17.800  0.00  0.00    +0.000 C 
BRANCH  17  18
ATOM     18  N   UNL     1       1.474  10.095  18.824  0.00  0.00    +0.000 NA
ATOM     19  C   UNL     1       0.020   9.914  18.983  0.00  0.00    +0.000 C 
ATOM     20  C   UNL     1      -0.631  10.977  19.903  0.00  0.00    +0.000 C 
ATOM     21  N   UNL     1      -0.325  12.382  19.551  0.00  0.00    +0.000 NA
ATOM     22  C   UNL     1      -0.946  12.776  18.286  0.00  0.00    +0.000 C 
ATOM     23  C   UNL     1       1.136  12.528  19.489  0.00  0.00    +0.000 C 
ATOM     24  C   UNL     1       1.828  11.510  18.560  0.00  0.00    +0.000 C 
ENDBRANCH  17  18
ENDBRANCH  16  17
ENDBRANCH  15  16
ENDBRANCH   6  15
TORSDOF 7
ENDMDL
MODEL 9
REMARK VINA RESULT:      -7.1      1.441      1.991
REMARK  Name = 
REMARK  9 active torsions:
REMARK  status: ('A' for Active; 'I' for Inactive)
REMARK    1  A    between atoms: C_1  and  C_2
REMARK    2  A    between atoms: C_4  and  C_5
REMARK    3  A    between atoms: C_5  and  O_6
REMARK    4  A    between atoms: O_6  and  C_7
REMARK    5  A    between atoms: C_12  and  O_13
REMARK    6  A    between atoms: O_13  and  C_14
REMARK    7  A    between atoms: C_14  and  C_15
REMARK    8  A    between atoms: C_15  and  N_16
REMARK    9  A    between atoms: N_19  and  C_20
REMARK                            x       y       z     vdW  Elec       q    Type
REMARK                         _______ _______ _______ _____ _____    ______ ____
ROOT
ATOM      1  C   UNL     1       3.676   3.685  19.398  0.00  0.00    +0.000 A 
ATOM      2  C   UNL     1       3.188   2.588  20.128  0.00  0.00    +0.000 A 
ATOM      3  C   UNL     1       1.999   2.657  20.851  0.00  0.00    +0.000 A 
ATOM      4  C   UNL     1       1.269   3.838  20.857  0.00  0.00    +0.000 A 
ATOM      5  C   UNL     1       1.723   4.933  20.117  0.00  0.00    +0.000 A 
ATOM      6  C   UNL     1       2.900   4.868  19.349  0.00  0.00    +0.000 A 
ENDROOT
BRANCH   1   7
ATOM      7  O   UNL     1       4.850   3.355  18.763  0.00  0.00    +0.000 OA
BRANCH   7   8
ATOM      8  C   UNL     1       5.750   4.406  18.421  0.00  0.00    +0.000 C 
BRANCH   8  12
ATOM      9  C   UNL     1       6.480   3.987  13.386  0.00  0.00    +0.000 C 
ATOM     10  C   UNL     1       6.454   4.212  14.839  0.00  0.00    +0.000 A 
ATOM     11  C   UNL     1       5.575   3.919  15.850  0.00  0.00    +0.000 A 
ATOM     12  C   UNL     1       6.221   4.394  17.012  0.00  0.00    +0.000 A 
ATOM     13  N   UNL     1       7.392   4.978  16.716  0.00  0.00    +0.000 NA
ATOM     14  O   UNL     1       7.538   4.858  15.353  0.00  0.00    +0.000 OA
ENDBRANCH   8  12
ENDBRANCH   7   8
ENDBRANCH   1   7
BRANCH   6  15
ATOM     15  O   UNL     1       3.059   6.020  18.598  0.00  0.00    +0.000 OA
BRANCH  15  16
ATOM     16  C   UNL     1       2.456   7.170  19.153  0.00  0.00    +0.000 C 
BRANCH  16  17
ATOM     17  C   UNL     1       2.266   8.384  18.250  0.00  0.00    +0.000 C 
BRANCH  17  18
ATOM     18  N   UNL     1       1.104   9.171  18.744  0.00  0.00    +0.000 NA
ATOM     19  C   UNL     1       1.110  10.537  18.191  0.00  0.00    +0.000 C 
ATOM     20  C   UNL     1       0.027  11.453  18.814  0.00  0.00    +0.000 C 
ATOM     21  N   UNL     1       0.021  11.500  20.293  0.00  0.00    +0.000 NA
ATOM     22  C   UNL     1       1.208  12.171  20.824  0.00  0.00    +0.000 C 
ATOM     23  C   UNL     1      -0.071  10.121  20.792  0.00  0.00    +0.000 C 
ATOM     24  C   UNL     1       1.008   9.176  20.223  0.00  0.00    +0.000 C 
ENDBRANCH  17  18
ENDBRANCH  16  17
ENDBRANCH  15  16
ENDBRANCH   6  15
TORSDOF 7
ENDMDL
