MODEL 1
REMARK VINA RESULT:      -6.7      0.000      0.000
REMARK  Name = 
REMARK  1 active torsions:
REMARK  status: ('A' for Active; 'I' for Inactive)
REMARK    1  A    between atoms: C_4  and  N_5
REMARK                            x       y       z     vdW  Elec       q    Type
REMARK                         _______ _______ _______ _____ _____    ______ ____
ROOT
ATOM      1  N   UNL     1       7.770  13.325  22.561  0.00  0.00    +0.000 N 
ATOM      2  C   UNL     1       8.428  14.524  23.080  0.00  0.00    +0.000 C 
ATOM      3  C   UNL     1       9.640  15.031  22.343  0.00  0.00    +0.000 C 
ATOM      4  C   UNL     1      10.283  14.242  21.228  0.00  0.00    +0.000 C 
ATOM      5  C   UNL     1       9.627  12.938  20.747  0.00  0.00    +0.000 C 
ATOM      6  C   UNL     1      10.745  11.840  20.674  0.00  0.00    +0.000 C 
ATOM      7  O   UNL     1      11.725  11.982  19.652  0.00  0.00    +0.000 OA
ATOM      8  C   UNL     1      11.265  11.502  18.390  0.00  0.00    +0.000 C 
ATOM      9  C   UNL     1      10.756  12.639  17.523  0.00  0.00    +0.000 C 
ATOM     10  N   UNL     1       9.950  13.643  18.264  0.00  0.00    +0.000 N 
ATOM     11  C   UNL     1      10.148  14.942  17.831  0.00  0.00    +0.000 A 
ATOM     12  N   UNL     1      11.130  15.304  17.009  0.00  0.00    +0.000 NA
ATOM     13  N   UNL     1      11.213  16.652  16.763  0.00  0.00    +0.000 NA
ATOM     14  C   UNL     1      10.258  17.305  17.381  0.00  0.00    +0.000 A 
ATOM     15  S   UNL     1       9.170  16.313  18.259  0.00  0.00    +0.000 S 
ATOM     16  C   UNL     1       9.002  13.186  19.312  0.00  0.00    +0.000 C 
ATOM     17  C   UNL     1       8.606  12.349  21.829  0.00  0.00    +0.000 C 
ENDROOT
BRANCH   1  21
ATOM     18  C   UNL     1       5.533  12.017  25.894  0.00  0.00    +0.000 A 
ATOM     19  C   UNL     1       6.457  11.189  25.278  0.00  0.00    +0.000 A 
ATOM     20  N   UNL     1       7.185  11.533  24.161  0.00  0.00    +0.000 NA
ATOM     21  C   UNL     1       6.977  12.773  23.654  0.00  0.00    +0.000 A 
ATOM     22  C   UNL     1       5.990  13.574  24.294  0.00  0.00    +0.000 A 
ATOM     23  N   UNL     1       5.271  13.238  25.409  0.00  0.00    +0.000 NA
ENDBRANCH   1  21
TORSDOF 1
ENDMDL
MODEL 2
REMARK VINA RESULT:      -6.4      9.964     12.868
REMARK  Name = 
REMARK  1 active torsions:
REMARK  status: ('A' for Active; 'I' for Inactive)
REMARK    1  A    between atoms: C_4  and  N_5
REMARK                            x       y       z     vdW  Elec       q    Type
REMARK                         _______ _______ _______ _____ _____    ______ ____
ROOT
ATOM      1  N   UNL     1       5.817   4.556  15.610  0.00  0.00    +0.000 N 
ATOM      2  C   UNL     1       6.857   4.206  16.576  0.00  0.00    +0.000 C 
ATOM      3  C   UNL     1       6.583   4.487  18.031  0.00  0.00    +0.000 C 
ATOM      4  C   UNL     1       5.374   5.274  18.477  0.00  0.00    +0.000 C 
ATOM      5  C   UNL     1       4.328   5.710  17.437  0.00  0.00    +0.000 C 
ATOM      6  C   UNL     1       4.028   7.232  17.673  0.00  0.00    +0.000 C 
ATOM      7  O   UNL     1       3.316   7.574  18.856  0.00  0.00    +0.000 OA
ATOM      8  C   UNL     1       1.909   7.386  18.716  0.00  0.00    +0.000 C 
ATOM      9  C   UNL     1       1.471   6.057  19.303  0.00  0.00    +0.000 C 
ATOM     10  N   UNL     1       2.396   4.934  18.997  0.00  0.00    +0.000 N 
ATOM     11  C   UNL     1       2.533   4.030  20.035  0.00  0.00    +0.000 A 
ATOM     12  N   UNL     1       2.088   4.251  21.269  0.00  0.00    +0.000 NA
ATOM     13  N   UNL     1       2.394   3.271  22.180  0.00  0.00    +0.000 NA
ATOM     14  C   UNL     1       3.047   2.285  21.612  0.00  0.00    +0.000 A 
ATOM     15  S   UNL     1       3.284   2.467  19.924  0.00  0.00    +0.000 S 
ATOM     16  C   UNL     1       3.015   4.848  17.650  0.00  0.00    +0.000 C 
ATOM     17  C   UNL     1       4.916   5.679  15.950  0.00  0.00    +0.000 C 
ENDROOT
BRANCH   1  21
ATOM     18  C   UNL     1       7.714   4.485  11.838  0.00  0.00    +0.000 A 
ATOM     19  C   UNL     1       8.121   5.360  12.832  0.00  0.00    +0.000 A 
ATOM     20  N   UNL     1       7.519   5.469  14.066  0.00  0.00    +0.000 NA
ATOM     21  C   UNL     1       6.467   4.649  14.306  0.00  0.00    +0.000 A 
ATOM     22  C   UNL     1       6.057   3.797  13.243  0.00  0.00    +0.000 A 
ATOM     23  N   UNL     1       6.659   3.680  12.020  0.00  0.00    +0.000 NA
ENDBRANCH   1  21
TORSDOF 1
ENDMDL
MODEL 3
REMARK VINA RESULT:      -6.2      9.426     11.436
REMARK  Name = 
REMARK  1 active torsions:
REMARK  status: ('A' for Active; 'I' for Inactive)
REMARK    1  A    between atoms: C_4  and  N_5
REMARK                            x       y       z     vdW  Elec       q    Type
REMARK                         _______ _______ _______ _____ _____    ______ ____
ROOT
ATOM      1  N   UNL     1      -3.956  13.603  22.516  0.00  0.00    +0.000 N 
ATOM      2  C   UNL     1      -3.279  14.789  23.039  0.00  0.00    +0.000 C 
ATOM      3  C   UNL     1      -1.772  14.785  23.051  0.00  0.00    +0.000 C 
ATOM      4  C   UNL     1      -0.975  13.545  22.726  0.00  0.00    +0.000 C 
ATOM      5  C   UNL     1      -1.706  12.276  22.257  0.00  0.00    +0.000 C 
ATOM      6  C   UNL     1      -1.151  11.070  23.092  0.00  0.00    +0.000 C 
ATOM      7  O   UNL     1       0.186  10.662  22.827  0.00  0.00    +0.000 OA
ATOM      8  C   UNL     1       0.280   9.823  21.678  0.00  0.00    +0.000 C 
ATOM      9  C   UNL     1       0.691  10.617  20.451  0.00  0.00    +0.000 C 
ATOM     10  N   UNL     1       0.022  11.939  20.341  0.00  0.00    +0.000 N 
ATOM     11  C   UNL     1       0.837  12.932  19.829  0.00  0.00    +0.000 A 
ATOM     12  N   UNL     1       2.152  12.800  19.675  0.00  0.00    +0.000 NA
ATOM     13  N   UNL     1       2.800  13.926  19.231  0.00  0.00    +0.000 NA
ATOM     14  C   UNL     1       1.953  14.905  19.016  0.00  0.00    +0.000 A 
ATOM     15  S   UNL     1       0.311  14.499  19.293  0.00  0.00    +0.000 S 
ATOM     16  C   UNL     1      -1.410  12.063  20.714  0.00  0.00    +0.000 C 
ATOM     17  C   UNL     1      -3.258  12.305  22.643  0.00  0.00    +0.000 C 
ENDROOT
BRANCH   1  21
ATOM     18  C   UNL     1      -7.791  13.908  24.256  0.00  0.00    +0.000 A 
ATOM     19  C   UNL     1      -7.255  12.679  23.906  0.00  0.00    +0.000 A 
ATOM     20  N   UNL     1      -6.033  12.510  23.293  0.00  0.00    +0.000 NA
ATOM     21  C   UNL     1      -5.319  13.633  23.035  0.00  0.00    +0.000 A 
ATOM     22  C   UNL     1      -5.926  14.876  23.373  0.00  0.00    +0.000 A 
ATOM     23  N   UNL     1      -7.136  15.045  23.990  0.00  0.00    +0.000 NA
ENDBRANCH   1  21
TORSDOF 1
ENDMDL
MODEL 4
REMARK VINA RESULT:      -6.0     10.020     12.868
REMARK  Name = 
REMARK  1 active torsions:
REMARK  status: ('A' for Active; 'I' for Inactive)
REMARK    1  A    between atoms: C_4  and  N_5
REMARK                            x       y       z     vdW  Elec       q    Type
REMARK                         _______ _______ _______ _____ _____    ______ ____
ROOT
ATOM      1  N   UNL     1       5.829   4.383  15.549  0.00  0.00    +0.000 N 
ATOM      2  C   UNL     1       6.858   4.046  16.532  0.00  0.00    +0.000 C 
ATOM      3  C   UNL     1       6.584   4.385  17.975  0.00  0.00    +0.000 C 
ATOM      4  C   UNL     1       5.391   5.213  18.386  0.00  0.00    +0.000 C 
ATOM      5  C   UNL     1       4.358   5.633  17.327  0.00  0.00    +0.000 C 
ATOM      6  C   UNL     1       4.089   7.168  17.507  0.00  0.00    +0.000 C 
ATOM      7  O   UNL     1       3.380   7.568  18.674  0.00  0.00    +0.000 OA
ATOM      8  C   UNL     1       1.970   7.404  18.534  0.00  0.00    +0.000 C 
ATOM      9  C   UNL     1       1.502   6.106  19.166  0.00  0.00    +0.000 C 
ATOM     10  N   UNL     1       2.403   4.954  18.904  0.00  0.00    +0.000 N 
ATOM     11  C   UNL     1       2.517   4.085  19.974  0.00  0.00    +0.000 A 
ATOM     12  N   UNL     1       2.072   4.359  21.198  0.00  0.00    +0.000 NA
ATOM     13  N   UNL     1       2.354   3.406  22.145  0.00  0.00    +0.000 NA
ATOM     14  C   UNL     1       2.988   2.387  21.615  0.00  0.00    +0.000 A 
ATOM     15  S   UNL     1       3.235   2.503  19.923  0.00  0.00    +0.000 S 
ATOM     16  C   UNL     1       3.026   4.807  17.564  0.00  0.00    +0.000 C 
ATOM     17  C   UNL     1       4.951   5.536  15.845  0.00  0.00    +0.000 C 
ENDROOT
BRANCH   1  21
ATOM     18  C   UNL     1       7.685   4.818  11.781  0.00  0.00    +0.000 A 
ATOM     19  C   UNL     1       6.742   3.828  12.009  0.00  0.00    +0.000 A 
ATOM     20  N   UNL     1       6.134   3.600  13.223  0.00  0.00    +0.000 NA
ATOM     21  C   UNL     1       6.486   4.416  14.246  0.00  0.00    +0.000 A 
ATOM     22  C   UNL     1       7.488   5.391  13.978  0.00  0.00    +0.000 A 
ATOM     23  N   UNL     1       8.088   5.625  12.770  0.00  0.00    +0.000 NA
ENDBRANCH   1  21
TORSDOF 1
ENDMDL
MODEL 5
REMARK VINA RESULT:      -5.9      8.211      9.972
REMARK  Name = 
REMARK  1 active torsions:
REMARK  status: ('A' for Active; 'I' for Inactive)
REMARK    1  A    between atoms: C_4  and  N_5
REMARK                            x       y       z     vdW  Elec       q    Type
REMARK                         _______ _______ _______ _____ _____    ______ ____
ROOT
ATOM      1  N   UNL     1       2.088   8.129  19.658  0.00  0.00    +0.000 N 
ATOM      2  C   UNL     1       2.042   8.366  18.216  0.00  0.00    +0.000 C 
ATOM      3  C   UNL     1       1.356   9.618  17.734  0.00  0.00    +0.000 C 
ATOM      4  C   UNL     1       0.572  10.507  18.669  0.00  0.00    +0.000 C 
ATOM      5  C   UNL     1       0.560  10.199  20.175  0.00  0.00    +0.000 C 
ATOM      6  C   UNL     1      -0.932  10.249  20.660  0.00  0.00    +0.000 C 
ATOM      7  O   UNL     1      -1.558  11.526  20.693  0.00  0.00    +0.000 OA
ATOM      8  C   UNL     1      -1.222  12.265  21.866  0.00  0.00    +0.000 C 
ATOM      9  C   UNL     1      -0.103  13.252  21.591  0.00  0.00    +0.000 C 
ATOM     10  N   UNL     1       0.981  12.706  20.733  0.00  0.00    +0.000 N 
ATOM     11  C   UNL     1       1.512  13.632  19.854  0.00  0.00    +0.000 A 
ATOM     12  N   UNL     1       0.964  14.820  19.614  0.00  0.00    +0.000 NA
ATOM     13  N   UNL     1       1.592  15.564  18.646  0.00  0.00    +0.000 NA
ATOM     14  C   UNL     1       2.648  14.938  18.180  0.00  0.00    +0.000 A 
ATOM     15  S   UNL     1       2.968  13.429  18.927  0.00  0.00    +0.000 S 
ATOM     16  C   UNL     1       1.421  11.300  20.923  0.00  0.00    +0.000 C 
ATOM     17  C   UNL     1       0.993   8.690  20.479  0.00  0.00    +0.000 C 
ENDROOT
BRANCH   1  21
ATOM     18  C   UNL     1       2.809   3.974  19.855  0.00  0.00    +0.000 A 
ATOM     19  C   UNL     1       1.894   4.586  20.697  0.00  0.00    +0.000 A 
ATOM     20  N   UNL     1       1.645   5.941  20.720  0.00  0.00    +0.000 NA
ATOM     21  C   UNL     1       2.342   6.705  19.844  0.00  0.00    +0.000 A 
ATOM     22  C   UNL     1       3.300   6.039  19.027  0.00  0.00    +0.000 A 
ATOM     23  N   UNL     1       3.544   4.693  18.997  0.00  0.00    +0.000 NA
ENDBRANCH   1  21
TORSDOF 1
ENDMDL
MODEL 6
REMARK VINA RESULT:      -5.8     10.237     13.171
REMARK  Name = 
REMARK  1 active torsions:
REMARK  status: ('A' for Active; 'I' for Inactive)
REMARK    1  A    between atoms: C_4  and  N_5
REMARK                            x       y       z     vdW  Elec       q    Type
REMARK                         _______ _______ _______ _____ _____    ______ ____
ROOT
ATOM      1  N   UNL     1      -0.509  14.263  19.206  0.00  0.00    +0.000 N 
ATOM      2  C   UNL     1      -0.578  13.090  18.336  0.00  0.00    +0.000 C 
ATOM      3  C   UNL     1      -1.482  11.961  18.755  0.00  0.00    +0.000 C 
ATOM      4  C   UNL     1      -2.150  11.934  20.109  0.00  0.00    +0.000 C 
ATOM      5  C   UNL     1      -2.000  13.141  21.051  0.00  0.00    +0.000 C 
ATOM      6  C   UNL     1      -1.603  12.594  22.467  0.00  0.00    +0.000 C 
ATOM      7  O   UNL     1      -2.600  11.877  23.186  0.00  0.00    +0.000 OA
ATOM      8  C   UNL     1      -3.517  12.744  23.851  0.00  0.00    +0.000 C 
ATOM      9  C   UNL     1      -4.786  12.928  23.040  0.00  0.00    +0.000 C 
ATOM     10  N   UNL     1      -4.547  13.093  21.582  0.00  0.00    +0.000 N 
ATOM     11  C   UNL     1      -5.508  12.490  20.791  0.00  0.00    +0.000 A 
ATOM     12  N   UNL     1      -6.421  11.642  21.257  0.00  0.00    +0.000 NA
ATOM     13  N   UNL     1      -7.234  11.083  20.302  0.00  0.00    +0.000 NA
ATOM     14  C   UNL     1      -6.949  11.547  19.108  0.00  0.00    +0.000 A 
ATOM     15  S   UNL     1      -5.707  12.729  19.081  0.00  0.00    +0.000 S 
ATOM     16  C   UNL     1      -3.389  13.902  21.122  0.00  0.00    +0.000 C 
ATOM     17  C   UNL     1      -0.753  14.059  20.650  0.00  0.00    +0.000 C 
ENDROOT
BRANCH   1  21
ATOM     18  C   UNL     1       2.890  16.473  18.027  0.00  0.00    +0.000 A 
ATOM     19  C   UNL     1       2.932  15.093  18.137  0.00  0.00    +0.000 A 
ATOM     20  N   UNL     1       1.878  14.315  18.560  0.00  0.00    +0.000 NA
ATOM     21  C   UNL     1       0.729  14.962  18.874  0.00  0.00    +0.000 A 
ATOM     22  C   UNL     1       0.744  16.382  18.787  0.00  0.00    +0.000 A 
ATOM     23  N   UNL     1       1.787  17.157  18.358  0.00  0.00    +0.000 NA
ENDBRANCH   1  21
TORSDOF 1
ENDMDL
MODEL 7
REMARK VINA RESULT:      -5.8      1.049      1.049
REMARK  Name = 
REMARK  1 active torsions:
REMARK  status: ('A' for Active; 'I' for Inactive)
REMARK    1  A    between atoms: C_4  and  N_5
REMARK                            x       y       z     vdW  Elec       q    Type
REMARK                         _______ _______ _______ _____ _____    ______ ____
ROOT
ATOM      1  N   UNL     1       7.989  14.190  23.127  0.00  0.00    +0.000 N 
ATOM      2  C   UNL     1       8.942  15.250  23.450  0.00  0.00    +0.000 C 
ATOM      3  C   UNL     1      10.111  15.446  22.520  0.00  0.00    +0.000 C 
ATOM      4  C   UNL     1      10.413  14.476  21.403  0.00  0.00    +0.000 C 
ATOM      5  C   UNL     1       9.445  13.314  21.127  0.00  0.00    +0.000 C 
ATOM      6  C   UNL     1      10.297  12.002  21.005  0.00  0.00    +0.000 C 
ATOM      7  O   UNL     1      11.126  11.874  19.855  0.00  0.00    +0.000 OA
ATOM      8  C   UNL     1      10.400  11.430  18.711  0.00  0.00    +0.000 C 
ATOM      9  C   UNL     1      10.010  12.596  17.821  0.00  0.00    +0.000 C 
ATOM     10  N   UNL     1       9.539  13.790  18.571  0.00  0.00    +0.000 N 
ATOM     11  C   UNL     1       9.929  14.990  18.005  0.00  0.00    +0.000 A 
ATOM     12  N   UNL     1      10.834  15.088  17.033  0.00  0.00    +0.000 NA
ATOM     13  N   UNL     1      11.150  16.372  16.662  0.00  0.00    +0.000 NA
ATOM     14  C   UNL     1      10.445  17.246  17.340  0.00  0.00    +0.000 A 
ATOM     15  S   UNL     1       9.319  16.559  18.435  0.00  0.00    +0.000 S 
ATOM     16  C   UNL     1       8.681  13.605  19.769  0.00  0.00    +0.000 C 
ATOM     17  C   UNL     1       8.496  13.018  22.379  0.00  0.00    +0.000 C 
ENDROOT
BRANCH   1  21
ATOM     18  C   UNL     1       5.767  13.611  26.670  0.00  0.00    +0.000 A 
ATOM     19  C   UNL     1       7.104  13.255  26.593  0.00  0.00    +0.000 A 
ATOM     20  N   UNL     1       7.874  13.372  25.457  0.00  0.00    +0.000 NA
ATOM     21  C   UNL     1       7.268  13.882  24.358  0.00  0.00    +0.000 A 
ATOM     22  C   UNL     1       5.884  14.195  24.471  0.00  0.00    +0.000 A 
ATOM     23  N   UNL     1       5.119  14.088  25.600  0.00  0.00    +0.000 NA
ENDBRANCH   1  21
TORSDOF 1
ENDMDL
MODEL 8
REMARK VINA RESULT:      -5.8      8.165      9.937
REMARK  Name = 
REMARK  1 active torsions:
REMARK  status: ('A' for Active; 'I' for Inactive)
REMARK    1  A    between atoms: C_4  and  N_5
REMARK                            x       y       z     vdW  Elec       q    Type
REMARK                         _______ _______ _______ _____ _____    ______ ____
ROOT
ATOM      1  N   UNL     1       2.119   8.134  19.571  0.00  0.00    +0.000 N 
ATOM      2  C   UNL     1       1.971   8.405  18.141  0.00  0.00    +0.000 C 
ATOM      3  C   UNL     1       1.234   9.656  17.739  0.00  0.00    +0.000 C 
ATOM      4  C   UNL     1       0.501  10.508  18.747  0.00  0.00    +0.000 C 
ATOM      5  C   UNL     1       0.596  10.163  20.242  0.00  0.00    +0.000 C 
ATOM      6  C   UNL     1      -0.860  10.176  20.827  0.00  0.00    +0.000 C 
ATOM      7  O   UNL     1      -1.503  11.440  20.935  0.00  0.00    +0.000 OA
ATOM      8  C   UNL     1      -1.100  12.156  22.100  0.00  0.00    +0.000 C 
ATOM      9  C   UNL     1      -0.017  13.169  21.776  0.00  0.00    +0.000 C 
ATOM     10  N   UNL     1       1.014  12.662  20.834  0.00  0.00    +0.000 N 
ATOM     11  C   UNL     1       1.470  13.619  19.945  0.00  0.00    +0.000 A 
ATOM     12  N   UNL     1       0.888  14.803  19.773  0.00  0.00    +0.000 NA
ATOM     13  N   UNL     1       1.438  15.581  18.784  0.00  0.00    +0.000 NA
ATOM     14  C   UNL     1       2.469  14.985  18.232  0.00  0.00    +0.000 A 
ATOM     15  S   UNL     1       2.863  13.464  18.917  0.00  0.00    +0.000 S 
ATOM     16  C   UNL     1       1.488  11.260  20.958  0.00  0.00    +0.000 C 
ATOM     17  C   UNL     1       1.072   8.655  20.477  0.00  0.00    +0.000 C 
ENDROOT
BRANCH   1  21
ATOM     18  C   UNL     1       2.946   4.057  20.291  0.00  0.00    +0.000 A 
ATOM     19  C   UNL     1       3.659   4.780  19.348  0.00  0.00    +0.000 A 
ATOM     20  N   UNL     1       3.411   6.097  19.029  0.00  0.00    +0.000 NA
ATOM     21  C   UNL     1       2.407   6.710  19.702  0.00  0.00    +0.000 A 
ATOM     22  C   UNL     1       1.675   5.917  20.631  0.00  0.00    +0.000 A 
ATOM     23  N   UNL     1       1.925   4.611  20.956  0.00  0.00    +0.000 NA
ENDBRANCH   1  21
TORSDOF 1
ENDMDL
MODEL 9
REMARK VINA RESULT:      -5.8      9.398     11.831
REMARK  Name = 
REMARK  1 active torsions:
REMARK  status: ('A' for Active; 'I' for Inactive)
REMARK    1  A    between atoms: C_4  and  N_5
REMARK                            x       y       z     vdW  Elec       q    Type
REMARK                         _______ _______ _______ _____ _____    ______ ____
ROOT
ATOM      1  N   UNL     1       0.095  10.456  20.333  0.00  0.00    +0.000 N 
ATOM      2  C   UNL     1      -0.277   9.814  21.593  0.00  0.00    +0.000 C 
ATOM      3  C   UNL     1      -0.823  10.690  22.690  0.00  0.00    +0.000 C 
ATOM      4  C   UNL     1      -0.813  12.196  22.586  0.00  0.00    +0.000 C 
ATOM      5  C   UNL     1      -0.339  12.863  21.285  0.00  0.00    +0.000 C 
ATOM      6  C   UNL     1       0.683  13.989  21.671  0.00  0.00    +0.000 C 
ATOM      7  O   UNL     1       0.161  15.138  22.328  0.00  0.00    +0.000 OA
ATOM      8  C   UNL     1      -0.417  16.069  21.415  0.00  0.00    +0.000 C 
ATOM      9  C   UNL     1      -1.924  15.904  21.343  0.00  0.00    +0.000 C 
ATOM     10  N   UNL     1      -2.372  14.487  21.328  0.00  0.00    +0.000 N 
ATOM     11  C   UNL     1      -3.543  14.267  22.031  0.00  0.00    +0.000 A 
ATOM     12  N   UNL     1      -4.094  15.165  22.844  0.00  0.00    +0.000 NA
ATOM     13  N   UNL     1      -5.209  14.730  23.517  0.00  0.00    +0.000 NA
ATOM     14  C   UNL     1      -5.518  13.501  23.176  0.00  0.00    +0.000 A 
ATOM     15  S   UNL     1      -4.500  12.818  21.978  0.00  0.00    +0.000 S 
ATOM     16  C   UNL     1      -1.597  13.487  20.549  0.00  0.00    +0.000 C 
ATOM     17  C   UNL     1       0.535  11.868  20.389  0.00  0.00    +0.000 C 
ENDROOT
BRANCH   1  21
ATOM     18  C   UNL     1       2.517   7.828  18.084  0.00  0.00    +0.000 A 
ATOM     19  C   UNL     1       2.216   7.571  19.412  0.00  0.00    +0.000 A 
ATOM     20  N   UNL     1       1.474   8.407  20.216  0.00  0.00    +0.000 NA
ATOM     21  C   UNL     1       1.006   9.545  19.648  0.00  0.00    +0.000 A 
ATOM     22  C   UNL     1       1.374   9.788  18.294  0.00  0.00    +0.000 A 
ATOM     23  N   UNL     1       2.104   8.956  17.491  0.00  0.00    +0.000 NA
ENDBRANCH   1  21
TORSDOF 1
ENDMDL
