MODEL 1
REMARK VINA RESULT:      -7.9      0.000      0.000
REMARK  Name = 
REMARK  10 active torsions:
REMARK  status: ('A' for Active; 'I' for Inactive)
REMARK    1  A    between atoms: C_1  and  O_2
REMARK    2  A    between atoms: O_2  and  C_3
REMARK    3  A    between atoms: C_5  and  C_6
REMARK    4  A    between atoms: C_6  and  C_7
REMARK    5  A    between atoms: C_7  and  C_8
REMARK    6  A    between atoms: C_8  and  O_9
REMARK    7  A    between atoms: O_9  and  C_10
REMARK    8  A    between atoms: C_10  and  C_12
REMARK    9  A    between atoms: C_12  and  N_13
REMARK   10  A    between atoms: C_22  and  C_23
REMARK                            x       y       z     vdW  Elec       q    Type
REMARK                         _______ _______ _______ _____ _____    ______ ____
ROOT
ATOM      1  C   UNL     1       0.897  10.206  19.544  0.00  0.00    +0.000 A 
ATOM      2  C   UNL     1       1.500   8.949  19.380  0.00  0.00    +0.000 A 
ATOM      3  C   UNL     1       1.530   7.968  20.394  0.00  0.00    +0.000 A 
ATOM      4  C   UNL     1       0.935   8.243  21.630  0.00  0.00    +0.000 A 
ATOM      5  C   UNL     1       0.306   9.480  21.818  0.00  0.00    +0.000 A 
ATOM      6  C   UNL     1      -0.396  10.071  22.892  0.00  0.00    +0.000 A 
ATOM      7  C   UNL     1      -0.826  11.310  22.462  0.00  0.00    +0.000 A 
ATOM      8  O   UNL     1      -0.381  11.529  21.185  0.00  0.00    +0.000 OA
ATOM      9  C   UNL     1       0.301  10.414  20.789  0.00  0.00    +0.000 A 
ENDROOT
BRANCH   7  10
ATOM     10  C   UNL     1      -1.650  12.337  23.077  0.00  0.00    +0.000 A 
ATOM     11  C   UNL     1      -2.982  12.084  23.484  0.00  0.00    +0.000 A 
ATOM     12  C   UNL     1      -3.744  13.069  24.127  0.00  0.00    +0.000 A 
ATOM     13  C   UNL     1      -3.154  14.295  24.347  0.00  0.00    +0.000 A 
ATOM     14  C   UNL     1      -1.868  14.556  23.945  0.00  0.00    +0.000 A 
ATOM     15  C   UNL     1      -1.099  13.607  23.310  0.00  0.00    +0.000 A 
ATOM     16  O   UNL     1      -1.466  15.818  24.253  0.00  0.00    +0.000 OA
ATOM     17  C   UNL     1      -2.653  16.326  24.894  0.00  0.00    +0.000 C 
ATOM     18  O   UNL     1      -3.725  15.362  24.966  0.00  0.00    +0.000 OA
ENDBRANCH   7  10
BRANCH   1  20
ATOM     19  C   UNL     1       1.925  12.129  18.594  0.00  0.00    +0.000 C 
ATOM     20  O   UNL     1       0.850  11.193  18.597  0.00  0.00    +0.000 OA
ENDBRANCH   1  20
BRANCH   3  21
ATOM     21  C   UNL     1       2.194   6.616  20.225  0.00  0.00    +0.000 C 
BRANCH  21  22
ATOM     22  C   UNL     1       2.427   6.229  18.776  0.00  0.00    +0.000 C 
BRANCH  22  23
ATOM     23  C   UNL     1       1.901   4.848  18.423  0.00  0.00    +0.000 C 
BRANCH  23  24
ATOM     24  O   UNL     1       2.657   4.321  17.321  0.00  0.00    +0.000 OA
BRANCH  24  25
ATOM     25  C   UNL     1       3.629   3.429  17.662  0.00  0.00    +0.000 C 
ATOM     26  O   UNL     1       3.440   2.331  18.178  0.00  0.00    +0.000 OA
BRANCH  25  27
ATOM     27  C   UNL     1       5.005   3.953  17.302  0.00  0.00    +0.000 C 
BRANCH  27  28
ATOM     28  N   UNL     1       4.904   5.094  16.371  0.00  0.00    +0.000 NA
ATOM     29  C   UNL     1       5.503   4.809  15.044  0.00  0.00    +0.000 C 
ATOM     30  C   UNL     1       7.034   4.692  15.072  0.00  0.00    +0.000 C 
ATOM     31  O   UNL     1       7.622   5.892  15.592  0.00  0.00    +0.000 OA
ATOM     32  C   UNL     1       7.124   6.187  16.903  0.00  0.00    +0.000 C 
ATOM     33  C   UNL     1       5.588   6.281  16.928  0.00  0.00    +0.000 C 
ENDBRANCH  27  28
ENDBRANCH  25  27
ENDBRANCH  24  25
ENDBRANCH  23  24
ENDBRANCH  22  23
ENDBRANCH  21  22
ENDBRANCH   3  21
TORSDOF 9
ENDMDL
MODEL 2
REMARK VINA RESULT:      -7.8      3.705     10.916
REMARK  Name = 
REMARK  10 active torsions:
REMARK  status: ('A' for Active; 'I' for Inactive)
REMARK    1  A    between atoms: C_1  and  O_2
REMARK    2  A    between atoms: O_2  and  C_3
REMARK    3  A    between atoms: C_5  and  C_6
REMARK    4  A    between atoms: C_6  and  C_7
REMARK    5  A    between atoms: C_7  and  C_8
REMARK    6  A    between atoms: C_8  and  O_9
REMARK    7  A    between atoms: O_9  and  C_10
REMARK    8  A    between atoms: C_10  and  C_12
REMARK    9  A    between atoms: C_12  and  N_13
REMARK   10  A    between atoms: C_22  and  C_23
REMARK                            x       y       z     vdW  Elec       q    Type
REMARK                         _______ _______ _______ _____ _____    ______ ____
ROOT
ATOM      1  C   UNL     1       0.572  10.807  19.670  0.00  0.00    +0.000 A 
ATOM      2  C   UNL     1      -0.161  11.281  20.768  0.00  0.00    +0.000 A 
ATOM      3  C   UNL     1      -0.427  10.502  21.915  0.00  0.00    +0.000 A 
ATOM      4  C   UNL     1       0.057   9.190  21.978  0.00  0.00    +0.000 A 
ATOM      5  C   UNL     1       0.811   8.695  20.906  0.00  0.00    +0.000 A 
ATOM      6  C   UNL     1       1.457   7.466  20.646  0.00  0.00    +0.000 A 
ATOM      7  C   UNL     1       2.085   7.589  19.423  0.00  0.00    +0.000 A 
ATOM      8  O   UNL     1       1.815   8.824  18.895  0.00  0.00    +0.000 OA
ATOM      9  C   UNL     1       1.048   9.501  19.799  0.00  0.00    +0.000 A 
ENDROOT
BRANCH   7  10
ATOM     10  C   UNL     1       2.957   6.706  18.668  0.00  0.00    +0.000 A 
ATOM     11  C   UNL     1       3.024   5.317  18.929  0.00  0.00    +0.000 A 
ATOM     12  C   UNL     1       3.828   4.470  18.154  0.00  0.00    +0.000 A 
ATOM     13  C   UNL     1       4.555   5.036  17.129  0.00  0.00    +0.000 A 
ATOM     14  C   UNL     1       4.509   6.384  16.875  0.00  0.00    +0.000 A 
ATOM     15  C   UNL     1       3.729   7.237  17.622  0.00  0.00    +0.000 A 
ATOM     16  O   UNL     1       5.291   6.749  15.824  0.00  0.00    +0.000 OA
ATOM     17  C   UNL     1       5.842   5.472  15.448  0.00  0.00    +0.000 C 
ATOM     18  O   UNL     1       5.373   4.379  16.264  0.00  0.00    +0.000 OA
ENDBRANCH   7  10
BRANCH   1  20
ATOM     19  C   UNL     1       2.010  12.343  18.561  0.00  0.00    +0.000 C 
ATOM     20  O   UNL     1       0.848  11.519  18.533  0.00  0.00    +0.000 OA
ENDBRANCH   1  20
BRANCH   3  21
ATOM     21  C   UNL     1      -1.232  11.005  23.096  0.00  0.00    +0.000 C 
BRANCH  21  22
ATOM     22  C   UNL     1      -2.034  12.259  22.796  0.00  0.00    +0.000 C 
BRANCH  22  23
ATOM     23  C   UNL     1      -3.194  12.482  23.751  0.00  0.00    +0.000 C 
BRANCH  23  24
ATOM     24  O   UNL     1      -4.425  12.167  23.081  0.00  0.00    +0.000 OA
BRANCH  24  25
ATOM     25  C   UNL     1      -4.870  13.120  22.214  0.00  0.00    +0.000 C 
ATOM     26  O   UNL     1      -4.615  14.318  22.279  0.00  0.00    +0.000 OA
BRANCH  25  27
ATOM     27  C   UNL     1      -5.721  12.508  21.118  0.00  0.00    +0.000 C 
BRANCH  27  28
ATOM     28  N   UNL     1      -5.319  13.022  19.794  0.00  0.00    +0.000 NA
ATOM     29  C   UNL     1      -6.420  13.726  19.091  0.00  0.00    +0.000 C 
ATOM     30  C   UNL     1      -7.548  12.793  18.624  0.00  0.00    +0.000 C 
ATOM     31  O   UNL     1      -7.032  11.771  17.761  0.00  0.00    +0.000 OA
ATOM     32  C   UNL     1      -6.002  11.015  18.410  0.00  0.00    +0.000 C 
ATOM     33  C   UNL     1      -4.864  11.916  18.925  0.00  0.00    +0.000 C 
ENDBRANCH  27  28
ENDBRANCH  25  27
ENDBRANCH  24  25
ENDBRANCH  23  24
ENDBRANCH  22  23
ENDBRANCH  21  22
ENDBRANCH   3  21
TORSDOF 9
ENDMDL
MODEL 3
REMARK VINA RESULT:      -7.7      1.663      2.880
REMARK  Name = 
REMARK  10 active torsions:
REMARK  status: ('A' for Active; 'I' for Inactive)
REMARK    1  A    between atoms: C_1  and  O_2
REMARK    2  A    between atoms: O_2  and  C_3
REMARK    3  A    between atoms: C_5  and  C_6
REMARK    4  A    between atoms: C_6  and  C_7
REMARK    5  A    between atoms: C_7  and  C_8
REMARK    6  A    between atoms: C_8  and  O_9
REMARK    7  A    between atoms: O_9  and  C_10
REMARK    8  A    between atoms: C_10  and  C_12
REMARK    9  A    between atoms: C_12  and  N_13
REMARK   10  A    between atoms: C_22  and  C_23
REMARK                            x       y       z     vdW  Elec       q    Type
REMARK                         _______ _______ _______ _____ _____    ______ ____
ROOT
ATOM      1  C   UNL     1       1.244  10.947  18.898  0.00  0.00    +0.000 A 
ATOM      2  C   UNL     1       1.834   9.742  18.487  0.00  0.00    +0.000 A 
ATOM      3  C   UNL     1       1.818   8.567  19.270  0.00  0.00    +0.000 A 
ATOM      4  C   UNL     1       1.187   8.587  20.520  0.00  0.00    +0.000 A 
ATOM      5  C   UNL     1       0.571   9.769  20.949  0.00  0.00    +0.000 A 
ATOM      6  C   UNL     1      -0.155  10.134  22.104  0.00  0.00    +0.000 A 
ATOM      7  C   UNL     1      -0.554  11.445  21.935  0.00  0.00    +0.000 A 
ATOM      8  O   UNL     1      -0.065  11.920  20.746  0.00  0.00    +0.000 OA
ATOM      9  C   UNL     1       0.612  10.900  20.141  0.00  0.00    +0.000 A 
ENDROOT
BRANCH   7  10
ATOM     10  C   UNL     1      -1.381  12.336  22.730  0.00  0.00    +0.000 A 
ATOM     11  C   UNL     1      -2.656  11.946  23.207  0.00  0.00    +0.000 A 
ATOM     12  C   UNL     1      -3.417  12.797  24.021  0.00  0.00    +0.000 A 
ATOM     13  C   UNL     1      -2.884  14.028  24.339  0.00  0.00    +0.000 A 
ATOM     14  C   UNL     1      -1.655  14.421  23.871  0.00  0.00    +0.000 A 
ATOM     15  C   UNL     1      -0.889  13.606  23.070  0.00  0.00    +0.000 A 
ATOM     16  O   UNL     1      -1.304  15.664  24.296  0.00  0.00    +0.000 OA
ATOM     17  C   UNL     1      -2.459  16.012  25.083  0.00  0.00    +0.000 C 
ATOM     18  O   UNL     1      -3.462  14.975  25.124  0.00  0.00    +0.000 OA
ENDBRANCH   7  10
BRANCH   1  20
ATOM     19  C   UNL     1       2.353  12.985  18.373  0.00  0.00    +0.000 C 
ATOM     20  O   UNL     1       1.241  12.114  18.181  0.00  0.00    +0.000 OA
ENDBRANCH   1  20
BRANCH   3  21
ATOM     21  C   UNL     1       2.466   7.268  18.837  0.00  0.00    +0.000 C 
BRANCH  21  22
ATOM     22  C   UNL     1       3.317   7.400  17.586  0.00  0.00    +0.000 C 
BRANCH  22  23
ATOM     23  C   UNL     1       4.607   6.599  17.641  0.00  0.00    +0.000 C 
BRANCH  23  24
ATOM     24  O   UNL     1       4.763   6.044  18.956  0.00  0.00    +0.000 OA
BRANCH  24  25
ATOM     25  C   UNL     1       5.232   4.764  18.990  0.00  0.00    +0.000 C 
ATOM     26  O   UNL     1       6.382   4.419  18.740  0.00  0.00    +0.000 OA
BRANCH  25  27
ATOM     27  C   UNL     1       4.143   3.793  19.403  0.00  0.00    +0.000 C 
BRANCH  27  28
ATOM     28  N   UNL     1       3.786   2.899  18.284  0.00  0.00    +0.000 NA
ATOM     29  C   UNL     1       2.906   3.552  17.283  0.00  0.00    +0.000 C 
ATOM     30  C   UNL     1       1.485   3.824  17.798  0.00  0.00    +0.000 C 
ATOM     31  O   UNL     1       0.863   2.607  18.231  0.00  0.00    +0.000 OA
ATOM     32  C   UNL     1       1.642   1.960  19.246  0.00  0.00    +0.000 C 
ATOM     33  C   UNL     1       3.087   1.696  18.783  0.00  0.00    +0.000 C 
ENDBRANCH  27  28
ENDBRANCH  25  27
ENDBRANCH  24  25
ENDBRANCH  23  24
ENDBRANCH  22  23
ENDBRANCH  21  22
ENDBRANCH   3  21
TORSDOF 9
ENDMDL
MODEL 4
REMARK VINA RESULT:      -7.7      0.933      1.511
REMARK  Name = 
REMARK  10 active torsions:
REMARK  status: ('A' for Active; 'I' for Inactive)
REMARK    1  A    between atoms: C_1  and  O_2
REMARK    2  A    between atoms: O_2  and  C_3
REMARK    3  A    between atoms: C_5  and  C_6
REMARK    4  A    between atoms: C_6  and  C_7
REMARK    5  A    between atoms: C_7  and  C_8
REMARK    6  A    between atoms: C_8  and  O_9
REMARK    7  A    between atoms: O_9  and  C_10
REMARK    8  A    between atoms: C_10  and  C_12
REMARK    9  A    between atoms: C_12  and  N_13
REMARK   10  A    between atoms: C_22  and  C_23
REMARK                            x       y       z     vdW  Elec       q    Type
REMARK                         _______ _______ _______ _____ _____    ______ ____
ROOT
ATOM      1  C   UNL     1       1.000  10.204  19.390  0.00  0.00    +0.000 A 
ATOM      2  C   UNL     1       1.625   8.954  19.263  0.00  0.00    +0.000 A 
ATOM      3  C   UNL     1       1.651   7.994  20.298  0.00  0.00    +0.000 A 
ATOM      4  C   UNL     1       1.029   8.286  21.517  0.00  0.00    +0.000 A 
ATOM      5  C   UNL     1       0.378   9.517  21.668  0.00  0.00    +0.000 A 
ATOM      6  C   UNL     1      -0.352  10.119  22.716  0.00  0.00    +0.000 A 
ATOM      7  C   UNL     1      -0.793  11.342  22.253  0.00  0.00    +0.000 A 
ATOM      8  O   UNL     1      -0.328  11.541  20.980  0.00  0.00    +0.000 OA
ATOM      9  C   UNL     1       0.378  10.429  20.619  0.00  0.00    +0.000 A 
ENDROOT
BRANCH   7  10
ATOM     10  C   UNL     1      -1.644  12.369  22.831  0.00  0.00    +0.000 A 
ATOM     11  C   UNL     1      -1.108  13.529  23.440  0.00  0.00    +0.000 A 
ATOM     12  C   UNL     1      -1.943  14.537  23.941  0.00  0.00    +0.000 A 
ATOM     13  C   UNL     1      -3.305  14.359  23.824  0.00  0.00    +0.000 A 
ATOM     14  C   UNL     1      -3.836  13.233  23.248  0.00  0.00    +0.000 A 
ATOM     15  C   UNL     1      -3.038  12.228  22.749  0.00  0.00    +0.000 A 
ATOM     16  O   UNL     1      -5.195  13.245  23.223  0.00  0.00    +0.000 OA
ATOM     17  C   UNL     1      -5.460  14.511  23.858  0.00  0.00    +0.000 C 
ATOM     18  O   UNL     1      -4.266  15.229  24.234  0.00  0.00    +0.000 OA
ENDBRANCH   7  10
BRANCH   1  20
ATOM     19  C   UNL     1       1.997  12.143  18.441  0.00  0.00    +0.000 C 
ATOM     20  O   UNL     1       0.956  11.171  18.422  0.00  0.00    +0.000 OA
ENDBRANCH   1  20
BRANCH   3  21
ATOM     21  C   UNL     1       2.338   6.650  20.170  0.00  0.00    +0.000 C 
BRANCH  21  22
ATOM     22  C   UNL     1       1.419   5.469  20.428  0.00  0.00    +0.000 C 
BRANCH  22  23
ATOM     23  C   UNL     1       1.965   4.149  19.910  0.00  0.00    +0.000 C 
BRANCH  23  24
ATOM     24  O   UNL     1       3.169   4.394  19.167  0.00  0.00    +0.000 OA
BRANCH  24  25
ATOM     25  C   UNL     1       3.142   3.978  17.870  0.00  0.00    +0.000 C 
ATOM     26  O   UNL     1       2.140   3.629  17.254  0.00  0.00    +0.000 OA
BRANCH  25  27
ATOM     27  C   UNL     1       4.526   4.016  17.253  0.00  0.00    +0.000 C 
BRANCH  27  28
ATOM     28  N   UNL     1       4.628   5.101  16.258  0.00  0.00    +0.000 NA
ATOM     29  C   UNL     1       5.514   4.757  15.119  0.00  0.00    +0.000 C 
ATOM     30  C   UNL     1       7.000   4.677  15.497  0.00  0.00    +0.000 C 
ATOM     31  O   UNL     1       7.444   5.916  16.065  0.00  0.00    +0.000 OA
ATOM     32  C   UNL     1       6.660   6.271  17.211  0.00  0.00    +0.000 C 
ATOM     33  C   UNL     1       5.156   6.332  16.884  0.00  0.00    +0.000 C 
ENDBRANCH  27  28
ENDBRANCH  25  27
ENDBRANCH  24  25
ENDBRANCH  23  24
ENDBRANCH  22  23
ENDBRANCH  21  22
ENDBRANCH   3  21
TORSDOF 9
ENDMDL
MODEL 5
REMARK VINA RESULT:      -7.7      4.000     10.508
REMARK  Name = 
REMARK  10 active torsions:
REMARK  status: ('A' for Active; 'I' for Inactive)
REMARK    1  A    between atoms: C_1  and  O_2
REMARK    2  A    between atoms: O_2  and  C_3
REMARK    3  A    between atoms: C_5  and  C_6
REMARK    4  A    between atoms: C_6  and  C_7
REMARK    5  A    between atoms: C_7  and  C_8
REMARK    6  A    between atoms: C_8  and  O_9
REMARK    7  A    between atoms: O_9  and  C_10
REMARK    8  A    between atoms: C_10  and  C_12
REMARK    9  A    between atoms: C_12  and  N_13
REMARK   10  A    between atoms: C_22  and  C_23
REMARK                            x       y       z     vdW  Elec       q    Type
REMARK                         _______ _______ _______ _____ _____    ______ ____
ROOT
ATOM      1  C   UNL     1       0.791  10.066  21.310  0.00  0.00    +0.000 A 
ATOM      2  C   UNL     1       0.562  11.333  20.751  0.00  0.00    +0.000 A 
ATOM      3  C   UNL     1       0.842  11.645  19.404  0.00  0.00    +0.000 A 
ATOM      4  C   UNL     1       1.375  10.657  18.569  0.00  0.00    +0.000 A 
ATOM      5  C   UNL     1       1.595   9.376  19.092  0.00  0.00    +0.000 A 
ATOM      6  C   UNL     1       2.083   8.166  18.551  0.00  0.00    +0.000 A 
ATOM      7  C   UNL     1       2.030   7.222  19.556  0.00  0.00    +0.000 A 
ATOM      8  O   UNL     1       1.574   7.808  20.707  0.00  0.00    +0.000 OA
ATOM      9  C   UNL     1       1.302   9.116  20.425  0.00  0.00    +0.000 A 
ENDROOT
BRANCH   7  10
ATOM     10  C   UNL     1       2.317   5.797  19.590  0.00  0.00    +0.000 A 
ATOM     11  C   UNL     1       2.089   5.016  20.747  0.00  0.00    +0.000 A 
ATOM     12  C   UNL     1       2.318   3.633  20.745  0.00  0.00    +0.000 A 
ATOM     13  C   UNL     1       2.775   3.059  19.578  0.00  0.00    +0.000 A 
ATOM     14  C   UNL     1       3.012   3.810  18.454  0.00  0.00    +0.000 A 
ATOM     15  C   UNL     1       2.798   5.169  18.430  0.00  0.00    +0.000 A 
ATOM     16  O   UNL     1       3.456   3.064  17.408  0.00  0.00    +0.000 OA
ATOM     17  C   UNL     1       3.477   1.753  18.006  0.00  0.00    +0.000 C 
ATOM     18  O   UNL     1       3.037   1.740  19.380  0.00  0.00    +0.000 OA
ENDBRANCH   7  10
BRANCH   1  20
ATOM     19  C   UNL     1      -0.665  10.201  23.186  0.00  0.00    +0.000 C 
ATOM     20  O   UNL     1       0.546   9.717  22.612  0.00  0.00    +0.000 OA
ENDBRANCH   1  20
BRANCH   3  21
ATOM     21  C   UNL     1       0.610  13.016  18.801  0.00  0.00    +0.000 C 
BRANCH  21  22
ATOM     22  C   UNL     1      -0.750  13.171  18.144  0.00  0.00    +0.000 C 
BRANCH  22  23
ATOM     23  C   UNL     1      -1.697  12.018  18.428  0.00  0.00    +0.000 C 
BRANCH  23  24
ATOM     24  O   UNL     1      -2.055  11.384  17.189  0.00  0.00    +0.000 OA
BRANCH  24  25
ATOM     25  C   UNL     1      -3.394  11.258  16.972  0.00  0.00    +0.000 C 
ATOM     26  O   UNL     1      -3.934  11.174  15.873  0.00  0.00    +0.000 OA
BRANCH  25  27
ATOM     27  C   UNL     1      -4.159  11.212  18.280  0.00  0.00    +0.000 C 
BRANCH  27  28
ATOM     28  N   UNL     1      -5.399  12.007  18.190  0.00  0.00    +0.000 NA
ATOM     29  C   UNL     1      -5.550  12.967  19.312  0.00  0.00    +0.000 C 
ATOM     30  C   UNL     1      -5.826  12.296  20.664  0.00  0.00    +0.000 C 
ATOM     31  O   UNL     1      -7.006  11.485  20.594  0.00  0.00    +0.000 OA
ATOM     32  C   UNL     1      -6.894  10.495  19.563  0.00  0.00    +0.000 C 
ATOM     33  C   UNL     1      -6.584  11.124  18.192  0.00  0.00    +0.000 C 
ENDBRANCH  27  28
ENDBRANCH  25  27
ENDBRANCH  24  25
ENDBRANCH  23  24
ENDBRANCH  22  23
ENDBRANCH  21  22
ENDBRANCH   3  21
TORSDOF 9
ENDMDL
MODEL 6
REMARK VINA RESULT:      -7.6      1.265      1.776
REMARK  Name = 
REMARK  10 active torsions:
REMARK  status: ('A' for Active; 'I' for Inactive)
REMARK    1  A    between atoms: C_1  and  O_2
REMARK    2  A    between atoms: O_2  and  C_3
REMARK    3  A    between atoms: C_5  and  C_6
REMARK    4  A    between atoms: C_6  and  C_7
REMARK    5  A    between atoms: C_7  and  C_8
REMARK    6  A    between atoms: C_8  and  O_9
REMARK    7  A    between atoms: O_9  and  C_10
REMARK    8  A    between atoms: C_10  and  C_12
REMARK    9  A    between atoms: C_12  and  N_13
REMARK   10  A    between atoms: C_22  and  C_23
REMARK                            x       y       z     vdW  Elec       q    Type
REMARK                         _______ _______ _______ _____ _____    ______ ____
ROOT
ATOM      1  C   UNL     1       0.949  10.250  19.466  0.00  0.00    +0.000 A 
ATOM      2  C   UNL     1       1.586   9.005  19.356  0.00  0.00    +0.000 A 
ATOM      3  C   UNL     1       1.614   8.055  20.399  0.00  0.00    +0.000 A 
ATOM      4  C   UNL     1       0.980   8.352  21.611  0.00  0.00    +0.000 A 
ATOM      5  C   UNL     1       0.316   9.578  21.745  0.00  0.00    +0.000 A 
ATOM      6  C   UNL     1      -0.428  10.182  22.783  0.00  0.00    +0.000 A 
ATOM      7  C   UNL     1      -0.877  11.396  22.305  0.00  0.00    +0.000 A 
ATOM      8  O   UNL     1      -0.404  11.589  21.034  0.00  0.00    +0.000 OA
ATOM      9  C   UNL     1       0.315  10.480  20.689  0.00  0.00    +0.000 A 
ENDROOT
BRANCH   7  10
ATOM     10  C   UNL     1      -1.741  12.421  22.867  0.00  0.00    +0.000 A 
ATOM     11  C   UNL     1      -1.221  13.565  23.518  0.00  0.00    +0.000 A 
ATOM     12  C   UNL     1      -2.067  14.571  24.004  0.00  0.00    +0.000 A 
ATOM     13  C   UNL     1      -3.425  14.407  23.830  0.00  0.00    +0.000 A 
ATOM     14  C   UNL     1      -3.941  13.296  23.213  0.00  0.00    +0.000 A 
ATOM     15  C   UNL     1      -3.133  12.293  22.728  0.00  0.00    +0.000 A 
ATOM     16  O   UNL     1      -5.298  13.320  23.135  0.00  0.00    +0.000 OA
ATOM     17  C   UNL     1      -5.579  14.577  23.781  0.00  0.00    +0.000 C 
ATOM     18  O   UNL     1      -4.395  15.278  24.216  0.00  0.00    +0.000 OA
ENDBRANCH   7  10
BRANCH   1  20
ATOM     19  C   UNL     1       1.954  12.170  18.486  0.00  0.00    +0.000 C 
ATOM     20  O   UNL     1       0.902  11.208  18.489  0.00  0.00    +0.000 OA
ENDBRANCH   1  20
BRANCH   3  21
ATOM     21  C   UNL     1       2.315   6.716  20.288  0.00  0.00    +0.000 C 
BRANCH  21  22
ATOM     22  C   UNL     1       1.384   5.527  20.440  0.00  0.00    +0.000 C 
BRANCH  22  23
ATOM     23  C   UNL     1       1.955   4.233  19.886  0.00  0.00    +0.000 C 
BRANCH  23  24
ATOM     24  O   UNL     1       3.362   4.179  20.167  0.00  0.00    +0.000 OA
BRANCH  24  25
ATOM     25  C   UNL     1       4.072   3.311  19.391  0.00  0.00    +0.000 C 
ATOM     26  O   UNL     1       4.357   2.156  19.690  0.00  0.00    +0.000 OA
BRANCH  25  27
ATOM     27  C   UNL     1       4.462   3.949  18.072  0.00  0.00    +0.000 C 
BRANCH  27  28
ATOM     28  N   UNL     1       5.040   5.290  18.289  0.00  0.00    +0.000 NA
ATOM     29  C   UNL     1       5.078   6.108  17.052  0.00  0.00    +0.000 C 
ATOM     30  C   UNL     1       6.090   5.606  16.012  0.00  0.00    +0.000 C 
ATOM     31  O   UNL     1       7.409   5.562  16.572  0.00  0.00    +0.000 OA
ATOM     32  C   UNL     1       7.448   4.733  17.742  0.00  0.00    +0.000 C 
ATOM     33  C   UNL     1       6.423   5.182  18.800  0.00  0.00    +0.000 C 
ENDBRANCH  27  28
ENDBRANCH  25  27
ENDBRANCH  24  25
ENDBRANCH  23  24
ENDBRANCH  22  23
ENDBRANCH  21  22
ENDBRANCH   3  21
TORSDOF 9
ENDMDL
MODEL 7
REMARK VINA RESULT:      -7.6      4.650     11.386
REMARK  Name = 
REMARK  10 active torsions:
REMARK  status: ('A' for Active; 'I' for Inactive)
REMARK    1  A    between atoms: C_1  and  O_2
REMARK    2  A    between atoms: O_2  and  C_3
REMARK    3  A    between atoms: C_5  and  C_6
REMARK    4  A    between atoms: C_6  and  C_7
REMARK    5  A    between atoms: C_7  and  C_8
REMARK    6  A    between atoms: C_8  and  O_9
REMARK    7  A    between atoms: O_9  and  C_10
REMARK    8  A    between atoms: C_10  and  C_12
REMARK    9  A    between atoms: C_12  and  N_13
REMARK   10  A    between atoms: C_22  and  C_23
REMARK                            x       y       z     vdW  Elec       q    Type
REMARK                         _______ _______ _______ _____ _____    ______ ____
ROOT
ATOM      1  C   UNL     1       0.388   9.295  20.846  0.00  0.00    +0.000 A 
ATOM      2  C   UNL     1      -0.656  10.185  20.555  0.00  0.00    +0.000 A 
ATOM      3  C   UNL     1      -0.941  10.644  19.250  0.00  0.00    +0.000 A 
ATOM      4  C   UNL     1      -0.153  10.199  18.182  0.00  0.00    +0.000 A 
ATOM      5  C   UNL     1       0.884   9.293  18.437  0.00  0.00    +0.000 A 
ATOM      6  C   UNL     1       1.834   8.636  17.625  0.00  0.00    +0.000 A 
ATOM      7  C   UNL     1       2.579   7.820  18.452  0.00  0.00    +0.000 A 
ATOM      8  O   UNL     1       2.160   7.980  19.747  0.00  0.00    +0.000 OA
ATOM      9  C   UNL     1       1.124   8.869  19.739  0.00  0.00    +0.000 A 
ENDROOT
BRANCH   7  10
ATOM     10  C   UNL     1       3.634   6.854  18.197  0.00  0.00    +0.000 A 
ATOM     11  C   UNL     1       3.879   5.765  19.068  0.00  0.00    +0.000 A 
ATOM     12  C   UNL     1       4.863   4.811  18.778  0.00  0.00    +0.000 A 
ATOM     13  C   UNL     1       5.588   4.969  17.616  0.00  0.00    +0.000 A 
ATOM     14  C   UNL     1       5.369   6.028  16.771  0.00  0.00    +0.000 A 
ATOM     15  C   UNL     1       4.410   6.979  17.033  0.00  0.00    +0.000 A 
ATOM     16  O   UNL     1       6.180   6.007  15.680  0.00  0.00    +0.000 OA
ATOM     17  C   UNL     1       6.943   4.812  15.939  0.00  0.00    +0.000 C 
ATOM     18  O   UNL     1       6.566   4.142  17.160  0.00  0.00    +0.000 OA
ENDBRANCH   7  10
BRANCH   1  20
ATOM     19  C   UNL     1       0.090   9.480  23.198  0.00  0.00    +0.000 C 
ATOM     20  O   UNL     1       0.710   8.829  22.093  0.00  0.00    +0.000 OA
ENDBRANCH   1  20
BRANCH   3  21
ATOM     21  C   UNL     1      -2.058  11.617  18.935  0.00  0.00    +0.000 C 
BRANCH  21  22
ATOM     22  C   UNL     1      -2.629  11.458  17.537  0.00  0.00    +0.000 C 
BRANCH  22  23
ATOM     23  C   UNL     1      -4.136  11.634  17.472  0.00  0.00    +0.000 C 
BRANCH  23  24
ATOM     24  O   UNL     1      -4.771  10.525  18.126  0.00  0.00    +0.000 OA
BRANCH  24  25
ATOM     25  C   UNL     1      -5.974  10.805  18.701  0.00  0.00    +0.000 C 
ATOM     26  O   UNL     1      -6.918  10.027  18.797  0.00  0.00    +0.000 OA
BRANCH  25  27
ATOM     27  C   UNL     1      -6.007  12.222  19.239  0.00  0.00    +0.000 C 
BRANCH  27  28
ATOM     28  N   UNL     1      -7.361  12.798  19.120  0.00  0.00    +0.000 NA
ATOM     29  C   UNL     1      -7.657  13.296  17.754  0.00  0.00    +0.000 C 
ATOM     30  C   UNL     1      -6.859  14.550  17.370  0.00  0.00    +0.000 C 
ATOM     31  O   UNL     1      -7.102  15.609  18.306  0.00  0.00    +0.000 OA
ATOM     32  C   UNL     1      -6.775  15.204  19.642  0.00  0.00    +0.000 C 
ATOM     33  C   UNL     1      -7.530  13.928  20.058  0.00  0.00    +0.000 C 
ENDBRANCH  27  28
ENDBRANCH  25  27
ENDBRANCH  24  25
ENDBRANCH  23  24
ENDBRANCH  22  23
ENDBRANCH  21  22
ENDBRANCH   3  21
TORSDOF 9
ENDMDL
MODEL 8
REMARK VINA RESULT:      -7.6      2.930     10.281
REMARK  Name = 
REMARK  10 active torsions:
REMARK  status: ('A' for Active; 'I' for Inactive)
REMARK    1  A    between atoms: C_1  and  O_2
REMARK    2  A    between atoms: O_2  and  C_3
REMARK    3  A    between atoms: C_5  and  C_6
REMARK    4  A    between atoms: C_6  and  C_7
REMARK    5  A    between atoms: C_7  and  C_8
REMARK    6  A    between atoms: C_8  and  O_9
REMARK    7  A    between atoms: O_9  and  C_10
REMARK    8  A    between atoms: C_10  and  C_12
REMARK    9  A    between atoms: C_12  and  N_13
REMARK   10  A    between atoms: C_22  and  C_23
REMARK                            x       y       z     vdW  Elec       q    Type
REMARK                         _______ _______ _______ _____ _____    ______ ____
ROOT
ATOM      1  C   UNL     1       1.394   9.548  19.191  0.00  0.00    +0.000 A 
ATOM      2  C   UNL     1       0.644   9.881  20.329  0.00  0.00    +0.000 A 
ATOM      3  C   UNL     1       0.375   8.967  21.372  0.00  0.00    +0.000 A 
ATOM      4  C   UNL     1       0.871   7.662  21.282  0.00  0.00    +0.000 A 
ATOM      5  C   UNL     1       1.641   7.305  20.167  0.00  0.00    +0.000 A 
ATOM      6  C   UNL     1       2.301   6.122  19.769  0.00  0.00    +0.000 A 
ATOM      7  C   UNL     1       2.940   6.396  18.577  0.00  0.00    +0.000 A 
ATOM      8  O   UNL     1       2.664   7.683  18.198  0.00  0.00    +0.000 OA
ATOM      9  C   UNL     1       1.881   8.240  19.168  0.00  0.00    +0.000 A 
ENDROOT
BRANCH   7  10
ATOM     10  C   UNL     1       3.829   5.617  17.731  0.00  0.00    +0.000 A 
ATOM     11  C   UNL     1       3.885   4.205  17.804  0.00  0.00    +0.000 A 
ATOM     12  C   UNL     1       4.706   3.466  16.941  0.00  0.00    +0.000 A 
ATOM     13  C   UNL     1       5.460   4.160  16.020  0.00  0.00    +0.000 A 
ATOM     14  C   UNL     1       5.424   5.531  15.949  0.00  0.00    +0.000 A 
ATOM     15  C   UNL     1       4.628   6.280  16.785  0.00  0.00    +0.000 A 
ATOM     16  O   UNL     1       6.233   6.029  14.977  0.00  0.00    +0.000 OA
ATOM     17  C   UNL     1       6.790   4.811  14.446  0.00  0.00    +0.000 C 
ATOM     18  O   UNL     1       6.297   3.620  15.095  0.00  0.00    +0.000 OA
ENDBRANCH   7  10
BRANCH   1  20
ATOM     19  C   UNL     1       1.877  11.765  18.478  0.00  0.00    +0.000 C 
ATOM     20  O   UNL     1       1.674  10.393  18.150  0.00  0.00    +0.000 OA
ENDBRANCH   1  20
BRANCH   3  21
ATOM     21  C   UNL     1      -0.447   9.318  22.595  0.00  0.00    +0.000 C 
BRANCH  21  22
ATOM     22  C   UNL     1      -0.442  10.800  22.928  0.00  0.00    +0.000 C 
BRANCH  22  23
ATOM     23  C   UNL     1      -1.600  11.566  22.314  0.00  0.00    +0.000 C 
BRANCH  23  24
ATOM     24  O   UNL     1      -1.107  12.782  21.730  0.00  0.00    +0.000 OA
BRANCH  24  25
ATOM     25  C   UNL     1      -1.652  13.106  20.524  0.00  0.00    +0.000 C 
ATOM     26  O   UNL     1      -1.614  14.214  19.998  0.00  0.00    +0.000 OA
BRANCH  25  27
ATOM     27  C   UNL     1      -2.311  11.902  19.880  0.00  0.00    +0.000 C 
BRANCH  27  28
ATOM     28  N   UNL     1      -2.693  12.197  18.485  0.00  0.00    +0.000 NA
ATOM     29  C   UNL     1      -4.034  11.670  18.132  0.00  0.00    +0.000 C 
ATOM     30  C   UNL     1      -4.092  10.138  18.048  0.00  0.00    +0.000 C 
ATOM     31  O   UNL     1      -3.141   9.649  17.093  0.00  0.00    +0.000 OA
ATOM     32  C   UNL     1      -1.812  10.078  17.418  0.00  0.00    +0.000 C 
ATOM     33  C   UNL     1      -1.716  11.610  17.544  0.00  0.00    +0.000 C 
ENDBRANCH  27  28
ENDBRANCH  25  27
ENDBRANCH  24  25
ENDBRANCH  23  24
ENDBRANCH  22  23
ENDBRANCH  21  22
ENDBRANCH   3  21
TORSDOF 9
ENDMDL
MODEL 9
REMARK VINA RESULT:      -7.5      0.706      1.134
REMARK  Name = 
REMARK  10 active torsions:
REMARK  status: ('A' for Active; 'I' for Inactive)
REMARK    1  A    between atoms: C_1  and  O_2
REMARK    2  A    between atoms: O_2  and  C_3
REMARK    3  A    between atoms: C_5  and  C_6
REMARK    4  A    between atoms: C_6  and  C_7
REMARK    5  A    between atoms: C_7  and  C_8
REMARK    6  A    between atoms: C_8  and  O_9
REMARK    7  A    between atoms: O_9  and  C_10
REMARK    8  A    between atoms: C_10  and  C_12
REMARK    9  A    between atoms: C_12  and  N_13
REMARK   10  A    between atoms: C_22  and  C_23
REMARK                            x       y       z     vdW  Elec       q    Type
REMARK                         _______ _______ _______ _____ _____    ______ ____
ROOT
ATOM      1  C   UNL     1       1.019  10.127  19.924  0.00  0.00    +0.000 A 
ATOM      2  C   UNL     1       1.506   8.820  19.773  0.00  0.00    +0.000 A 
ATOM      3  C   UNL     1       1.301   7.803  20.731  0.00  0.00    +0.000 A 
ATOM      4  C   UNL     1       0.581   8.095  21.895  0.00  0.00    +0.000 A 
ATOM      5  C   UNL     1       0.064   9.385  22.065  0.00  0.00    +0.000 A 
ATOM      6  C   UNL     1      -0.707  10.008  23.071  0.00  0.00    +0.000 A 
ATOM      7  C   UNL     1      -0.948  11.302  22.655  0.00  0.00    +0.000 A 
ATOM      8  O   UNL     1      -0.319  11.519  21.457  0.00  0.00    +0.000 OA
ATOM      9  C   UNL     1       0.290  10.352  21.093  0.00  0.00    +0.000 A 
ENDROOT
BRANCH   7  10
ATOM     10  C   UNL     1      -1.735  12.389  23.212  0.00  0.00    +0.000 A 
ATOM     11  C   UNL     1      -3.085  12.214  23.598  0.00  0.00    +0.000 A 
ATOM     12  C   UNL     1      -3.812  13.257  24.187  0.00  0.00    +0.000 A 
ATOM     13  C   UNL     1      -3.170  14.462  24.376  0.00  0.00    +0.000 A 
ATOM     14  C   UNL     1      -1.864  14.647  23.994  0.00  0.00    +0.000 A 
ATOM     15  C   UNL     1      -1.128  13.640  23.412  0.00  0.00    +0.000 A 
ATOM     16  O   UNL     1      -1.409  15.898  24.265  0.00  0.00    +0.000 OA
ATOM     17  C   UNL     1      -2.584  16.485  24.860  0.00  0.00    +0.000 C 
ATOM     18  O   UNL     1      -3.702  15.577  24.942  0.00  0.00    +0.000 OA
ENDBRANCH   7  10
BRANCH   1  20
ATOM     19  C   UNL     1       2.124  10.917  17.972  0.00  0.00    +0.000 C 
ATOM     20  O   UNL     1       1.199  11.149  19.030  0.00  0.00    +0.000 OA
ENDBRANCH   1  20
BRANCH   3  21
ATOM     21  C   UNL     1       1.838   6.394  20.578  0.00  0.00    +0.000 C 
BRANCH  21  22
ATOM     22  C   UNL     1       2.847   6.246  19.453  0.00  0.00    +0.000 C 
BRANCH  22  23
ATOM     23  C   UNL     1       2.311   5.488  18.251  0.00  0.00    +0.000 C 
BRANCH  23  24
ATOM     24  O   UNL     1       2.203   4.094  18.581  0.00  0.00    +0.000 OA
BRANCH  24  25
ATOM     25  C   UNL     1       3.248   3.321  18.170  0.00  0.00    +0.000 C 
ATOM     26  O   UNL     1       3.627   2.288  18.712  0.00  0.00    +0.000 OA
BRANCH  25  27
ATOM     27  C   UNL     1       3.892   3.890  16.921  0.00  0.00    +0.000 C 
BRANCH  27  28
ATOM     28  N   UNL     1       5.364   3.822  17.013  0.00  0.00    +0.000 NA
ATOM     29  C   UNL     1       5.949   4.975  17.741  0.00  0.00    +0.000 C 
ATOM     30  C   UNL     1       5.845   6.303  16.976  0.00  0.00    +0.000 C 
ATOM     31  O   UNL     1       6.481   6.199  15.695  0.00  0.00    +0.000 OA
ATOM     32  C   UNL     1       5.913   5.135  14.920  0.00  0.00    +0.000 C 
ATOM     33  C   UNL     1       5.966   3.788  15.663  0.00  0.00    +0.000 C 
ENDBRANCH  27  28
ENDBRANCH  25  27
ENDBRANCH  24  25
ENDBRANCH  23  24
ENDBRANCH  22  23
ENDBRANCH  21  22
ENDBRANCH   3  21
TORSDOF 9
ENDMDL
