MODEL 1
REMARK VINA RESULT:      -6.8      0.000      0.000
REMARK  Name = 
REMARK  12 active torsions:
REMARK  status: ('A' for Active; 'I' for Inactive)
REMARK    1  A    between atoms: C_1  and  O_2
REMARK    2  A    between atoms: O_2  and  C_3
REMARK    3  A    between atoms: C_6  and  C_7
REMARK    4  A    between atoms: C_7  and  C_8
REMARK    5  A    between atoms: C_7  and  N_17
REMARK    6  A    between atoms: C_8  and  C_9
REMARK    7  A    between atoms: C_9  and  C_10
REMARK    8  A    between atoms: C_10  and  C_11
REMARK    9  A    between atoms: N_17  and  C_18
REMARK   10  A    between atoms: N_17  and  C_19
REMARK   11  A    between atoms: C_21  and  O_22
REMARK   12  A    between atoms: O_22  and  C_23
REMARK                            x       y       z     vdW  Elec       q    Type
REMARK                         _______ _______ _______ _____ _____    ______ ____
ROOT
ATOM      1  C   UNL     1       4.487   5.678  17.592  0.00  0.00    +0.000 C 
ENDROOT
BRANCH   1   5
ATOM      2  C   UNL     1       1.607   8.254  19.621  0.00  0.00    +0.000 A 
ATOM      3  C   UNL     1       1.994   7.028  20.186  0.00  0.00    +0.000 A 
ATOM      4  C   UNL     1       2.911   6.204  19.539  0.00  0.00    +0.000 A 
ATOM      5  C   UNL     1       3.410   6.537  18.277  0.00  0.00    +0.000 A 
ATOM      6  C   UNL     1       2.955   7.719  17.679  0.00  0.00    +0.000 A 
ATOM      7  C   UNL     1       2.067   8.589  18.339  0.00  0.00    +0.000 A 
BRANCH   2   9
ATOM      8  C   UNL     1       0.500   8.751  21.657  0.00  0.00    +0.000 C 
ATOM      9  O   UNL     1       0.773   9.101  20.299  0.00  0.00    +0.000 OA
ENDBRANCH   2   9
BRANCH   7  10
ATOM     10  O   UNL     1       1.802   9.705  17.590  0.00  0.00    +0.000 OA
ATOM     11  C   UNL     1       2.279  10.968  18.023  0.00  0.00    +0.000 C 
ENDBRANCH   7  10
ENDBRANCH   1   5
BRANCH   1  12
ATOM     12  N   UNL     1       5.322   6.453  16.631  0.00  0.00    +0.000 NA
ATOM     13  C   UNL     1       6.655   6.752  17.176  0.00  0.00    +0.000 C 
ATOM     14  C   UNL     1       5.500   5.763  15.348  0.00  0.00    +0.000 C 
ENDBRANCH   1  12
BRANCH   1  15
ATOM     15  C   UNL     1       3.774   4.435  16.963  0.00  0.00    +0.000 C 
BRANCH  15  16
ATOM     16  C   UNL     1       4.361   3.088  17.409  0.00  0.00    +0.000 C 
BRANCH  16  17
ATOM     17  C   UNL     1       3.299   2.041  17.751  0.00  0.00    +0.000 C 
BRANCH  17  18
ATOM     18  C   UNL     1       2.601   2.424  19.037  0.00  0.00    +0.000 A 
ATOM     19  C   UNL     1       1.256   2.815  19.027  0.00  0.00    +0.000 A 
ATOM     20  C   UNL     1       0.639   3.259  20.199  0.00  0.00    +0.000 A 
ATOM     21  C   UNL     1       1.360   3.318  21.390  0.00  0.00    +0.000 A 
ATOM     22  C   UNL     1       2.698   2.928  21.412  0.00  0.00    +0.000 A 
ATOM     23  C   UNL     1       3.316   2.483  20.242  0.00  0.00    +0.000 A 
ENDBRANCH  17  18
ENDBRANCH  16  17
ENDBRANCH  15  16
ENDBRANCH   1  15
TORSDOF 8
ENDMDL
MODEL 2
REMARK VINA RESULT:      -6.6      0.537      1.131
REMARK  Name = 
REMARK  12 active torsions:
REMARK  status: ('A' for Active; 'I' for Inactive)
REMARK    1  A    between atoms: C_1  and  O_2
REMARK    2  A    between atoms: O_2  and  C_3
REMARK    3  A    between atoms: C_6  and  C_7
REMARK    4  A    between atoms: C_7  and  C_8
REMARK    5  A    between atoms: C_7  and  N_17
REMARK    6  A    between atoms: C_8  and  C_9
REMARK    7  A    between atoms: C_9  and  C_10
REMARK    8  A    between atoms: C_10  and  C_11
REMARK    9  A    between atoms: N_17  and  C_18
REMARK   10  A    between atoms: N_17  and  C_19
REMARK   11  A    between atoms: C_21  and  O_22
REMARK   12  A    between atoms: O_22  and  C_23
REMARK                            x       y       z     vdW  Elec       q    Type
REMARK                         _______ _______ _______ _____ _____    ______ ____
ROOT
ATOM      1  C   UNL     1       4.713   5.459  17.964  0.00  0.00    +0.000 C 
ENDROOT
BRANCH   1   5
ATOM      2  C   UNL     1       1.689   8.156  19.585  0.00  0.00    +0.000 A 
ATOM      3  C   UNL     1       2.037   6.978  20.265  0.00  0.00    +0.000 A 
ATOM      4  C   UNL     1       3.000   6.116  19.749  0.00  0.00    +0.000 A 
ATOM      5  C   UNL     1       3.587   6.358  18.505  0.00  0.00    +0.000 A 
ATOM      6  C   UNL     1       3.175   7.489  17.789  0.00  0.00    +0.000 A 
ATOM      7  C   UNL     1       2.240   8.399  18.318  0.00  0.00    +0.000 A 
BRANCH   2   9
ATOM      8  C   UNL     1       0.326   8.716  21.441  0.00  0.00    +0.000 C 
ATOM      9  O   UNL     1       0.807   9.045  20.136  0.00  0.00    +0.000 OA
ENDBRANCH   2   9
BRANCH   7  10
ATOM     10  O   UNL     1       2.028   9.455  17.471  0.00  0.00    +0.000 OA
ATOM     11  C   UNL     1       2.217  10.779  17.942  0.00  0.00    +0.000 C 
ENDBRANCH   7  10
ENDBRANCH   1   5
BRANCH   1  12
ATOM     12  N   UNL     1       5.897   6.231  17.491  0.00  0.00    +0.000 NA
ATOM     13  C   UNL     1       7.054   6.067  18.383  0.00  0.00    +0.000 C 
ATOM     14  C   UNL     1       6.313   5.859  16.134  0.00  0.00    +0.000 C 
ENDBRANCH   1  12
BRANCH   1  15
ATOM     15  C   UNL     1       4.089   4.517  16.881  0.00  0.00    +0.000 C 
BRANCH  15  16
ATOM     16  C   UNL     1       4.189   3.023  17.222  0.00  0.00    +0.000 C 
BRANCH  16  17
ATOM     17  C   UNL     1       2.835   2.368  17.502  0.00  0.00    +0.000 C 
BRANCH  17  18
ATOM     18  C   UNL     1       2.410   2.662  18.923  0.00  0.00    +0.000 A 
ATOM     19  C   UNL     1       3.305   2.481  19.985  0.00  0.00    +0.000 A 
ATOM     20  C   UNL     1       2.884   2.661  21.305  0.00  0.00    +0.000 A 
ATOM     21  C   UNL     1       1.566   3.021  21.575  0.00  0.00    +0.000 A 
ATOM     22  C   UNL     1       0.667   3.206  20.526  0.00  0.00    +0.000 A 
ATOM     23  C   UNL     1       1.086   3.027  19.207  0.00  0.00    +0.000 A 
ENDBRANCH  17  18
ENDBRANCH  16  17
ENDBRANCH  15  16
ENDBRANCH   1  15
TORSDOF 8
ENDMDL
MODEL 3
REMARK VINA RESULT:      -6.6      2.764      6.224
REMARK  Name = 
REMARK  12 active torsions:
REMARK  status: ('A' for Active; 'I' for Inactive)
REMARK    1  A    between atoms: C_1  and  O_2
REMARK    2  A    between atoms: O_2  and  C_3
REMARK    3  A    between atoms: C_6  and  C_7
REMARK    4  A    between atoms: C_7  and  C_8
REMARK    5  A    between atoms: C_7  and  N_17
REMARK    6  A    between atoms: C_8  and  C_9
REMARK    7  A    between atoms: C_9  and  C_10
REMARK    8  A    between atoms: C_10  and  C_11
REMARK    9  A    between atoms: N_17  and  C_18
REMARK   10  A    between atoms: N_17  and  C_19
REMARK   11  A    between atoms: C_21  and  O_22
REMARK   12  A    between atoms: O_22  and  C_23
REMARK                            x       y       z     vdW  Elec       q    Type
REMARK                         _______ _______ _______ _____ _____    ______ ____
ROOT
ATOM      1  C   UNL     1       4.045   3.970  18.147  0.00  0.00    +0.000 C 
ENDROOT
BRANCH   1   5
ATOM      2  C   UNL     1       7.035   5.075  15.166  0.00  0.00    +0.000 A 
ATOM      3  C   UNL     1       6.291   3.892  15.030  0.00  0.00    +0.000 A 
ATOM      4  C   UNL     1       5.338   3.537  15.981  0.00  0.00    +0.000 A 
ATOM      5  C   UNL     1       5.153   4.305  17.133  0.00  0.00    +0.000 A 
ATOM      6  C   UNL     1       5.957   5.439  17.307  0.00  0.00    +0.000 A 
ATOM      7  C   UNL     1       6.890   5.841  16.332  0.00  0.00    +0.000 A 
BRANCH   2   9
ATOM      8  C   UNL     1       7.689   4.897  12.895  0.00  0.00    +0.000 C 
ATOM      9  O   UNL     1       7.908   5.466  14.187  0.00  0.00    +0.000 OA
ENDBRANCH   2   9
BRANCH   7  10
ATOM     10  O   UNL     1       7.523   7.003  16.688  0.00  0.00    +0.000 OA
ATOM     11  C   UNL     1       7.855   7.230  18.048  0.00  0.00    +0.000 C 
ENDBRANCH   7  10
ENDBRANCH   1   5
BRANCH   1  12
ATOM     12  N   UNL     1       4.207   2.620  18.758  0.00  0.00    +0.000 NA
ATOM     13  C   UNL     1       4.072   2.657  20.222  0.00  0.00    +0.000 C 
ATOM     14  C   UNL     1       3.244   1.642  18.238  0.00  0.00    +0.000 C 
ENDBRANCH   1  12
BRANCH   1  15
ATOM     15  C   UNL     1       2.668   4.191  17.438  0.00  0.00    +0.000 C 
BRANCH  15  16
ATOM     16  C   UNL     1       1.803   5.284  18.083  0.00  0.00    +0.000 C 
BRANCH  16  17
ATOM     17  C   UNL     1       2.511   6.037  19.211  0.00  0.00    +0.000 C 
BRANCH  17  18
ATOM     18  C   UNL     1       2.110   7.494  19.183  0.00  0.00    +0.000 A 
ATOM     19  C   UNL     1       1.655   8.129  20.346  0.00  0.00    +0.000 A 
ATOM     20  C   UNL     1       1.195   9.448  20.299  0.00  0.00    +0.000 A 
ATOM     21  C   UNL     1       1.183  10.141  19.091  0.00  0.00    +0.000 A 
ATOM     22  C   UNL     1       1.636   9.521  17.929  0.00  0.00    +0.000 A 
ATOM     23  C   UNL     1       2.097   8.204  17.974  0.00  0.00    +0.000 A 
ENDBRANCH  17  18
ENDBRANCH  16  17
ENDBRANCH  15  16
ENDBRANCH   1  15
TORSDOF 8
ENDMDL
MODEL 4
REMARK VINA RESULT:      -6.4      2.763      6.265
REMARK  Name = 
REMARK  12 active torsions:
REMARK  status: ('A' for Active; 'I' for Inactive)
REMARK    1  A    between atoms: C_1  and  O_2
REMARK    2  A    between atoms: O_2  and  C_3
REMARK    3  A    between atoms: C_6  and  C_7
REMARK    4  A    between atoms: C_7  and  C_8
REMARK    5  A    between atoms: C_7  and  N_17
REMARK    6  A    between atoms: C_8  and  C_9
REMARK    7  A    between atoms: C_9  and  C_10
REMARK    8  A    between atoms: C_10  and  C_11
REMARK    9  A    between atoms: N_17  and  C_18
REMARK   10  A    between atoms: N_17  and  C_19
REMARK   11  A    between atoms: C_21  and  O_22
REMARK   12  A    between atoms: O_22  and  C_23
REMARK                            x       y       z     vdW  Elec       q    Type
REMARK                         _______ _______ _______ _____ _____    ______ ____
ROOT
ATOM      1  C   UNL     1       3.954   3.851  19.110  0.00  0.00    +0.000 C 
ENDROOT
BRANCH   1   5
ATOM      2  C   UNL     1       6.708   4.935  15.901  0.00  0.00    +0.000 A 
ATOM      3  C   UNL     1       5.653   4.037  15.668  0.00  0.00    +0.000 A 
ATOM      4  C   UNL     1       4.775   3.689  16.691  0.00  0.00    +0.000 A 
ATOM      5  C   UNL     1       4.966   4.160  17.992  0.00  0.00    +0.000 A 
ATOM      6  C   UNL     1       6.069   4.987  18.240  0.00  0.00    +0.000 A 
ATOM      7  C   UNL     1       6.938   5.390  17.208  0.00  0.00    +0.000 A 
BRANCH   2   9
ATOM      8  C   UNL     1       7.163   4.862  13.577  0.00  0.00    +0.000 C 
ATOM      9  O   UNL     1       7.516   5.343  14.875  0.00  0.00    +0.000 OA
ENDBRANCH   2   9
BRANCH   7  10
ATOM     10  O   UNL     1       7.911   6.238  17.670  0.00  0.00    +0.000 OA
ATOM     11  C   UNL     1       7.701   7.639  17.616  0.00  0.00    +0.000 C 
ENDBRANCH   7  10
ENDBRANCH   1   5
BRANCH   1  12
ATOM     12  N   UNL     1       2.994   2.772  18.742  0.00  0.00    +0.000 NA
ATOM     13  C   UNL     1       3.655   1.464  18.617  0.00  0.00    +0.000 C 
ATOM     14  C   UNL     1       1.896   2.636  19.706  0.00  0.00    +0.000 C 
ENDBRANCH   1  12
BRANCH   1  15
ATOM     15  C   UNL     1       3.275   5.200  19.522  0.00  0.00    +0.000 C 
BRANCH  15  16
ATOM     16  C   UNL     1       2.503   5.882  18.384  0.00  0.00    +0.000 C 
BRANCH  16  17
ATOM     17  C   UNL     1       2.971   7.311  18.098  0.00  0.00    +0.000 C 
BRANCH  17  18
ATOM     18  C   UNL     1       2.000   8.297  18.706  0.00  0.00    +0.000 A 
ATOM     19  C   UNL     1       1.692   8.243  20.072  0.00  0.00    +0.000 A 
ATOM     20  C   UNL     1       0.724   9.092  20.614  0.00  0.00    +0.000 A 
ATOM     21  C   UNL     1       0.055  10.000  19.797  0.00  0.00    +0.000 A 
ATOM     22  C   UNL     1       0.355  10.066  18.438  0.00  0.00    +0.000 A 
ATOM     23  C   UNL     1       1.322   9.218  17.895  0.00  0.00    +0.000 A 
ENDBRANCH  17  18
ENDBRANCH  16  17
ENDBRANCH  15  16
ENDBRANCH   1  15
TORSDOF 8
ENDMDL
MODEL 5
REMARK VINA RESULT:      -6.3      1.881      4.869
REMARK  Name = 
REMARK  12 active torsions:
REMARK  status: ('A' for Active; 'I' for Inactive)
REMARK    1  A    between atoms: C_1  and  O_2
REMARK    2  A    between atoms: O_2  and  C_3
REMARK    3  A    between atoms: C_6  and  C_7
REMARK    4  A    between atoms: C_7  and  C_8
REMARK    5  A    between atoms: C_7  and  N_17
REMARK    6  A    between atoms: C_8  and  C_9
REMARK    7  A    between atoms: C_9  and  C_10
REMARK    8  A    between atoms: C_10  and  C_11
REMARK    9  A    between atoms: N_17  and  C_18
REMARK   10  A    between atoms: N_17  and  C_19
REMARK   11  A    between atoms: C_21  and  O_22
REMARK   12  A    between atoms: O_22  and  C_23
REMARK                            x       y       z     vdW  Elec       q    Type
REMARK                         _______ _______ _______ _____ _____    ______ ____
ROOT
ATOM      1  C   UNL     1       2.361   4.308  19.311  0.00  0.00    +0.000 C 
ENDROOT
BRANCH   1   5
ATOM      2  C   UNL     1       1.782   8.630  19.113  0.00  0.00    +0.000 A 
ATOM      3  C   UNL     1       2.277   7.922  18.006  0.00  0.00    +0.000 A 
ATOM      4  C   UNL     1       2.464   6.544  18.068  0.00  0.00    +0.000 A 
ATOM      5  C   UNL     1       2.240   5.841  19.255  0.00  0.00    +0.000 A 
ATOM      6  C   UNL     1       1.828   6.564  20.381  0.00  0.00    +0.000 A 
ATOM      7  C   UNL     1       1.585   7.949  20.324  0.00  0.00    +0.000 A 
BRANCH   2   9
ATOM      8  C   UNL     1       0.215  10.314  18.544  0.00  0.00    +0.000 C 
ATOM      9  O   UNL     1       1.516   9.969  19.023  0.00  0.00    +0.000 OA
ENDBRANCH   2   9
BRANCH   7  10
ATOM     10  O   UNL     1       1.141   8.435  21.527  0.00  0.00    +0.000 OA
ATOM     11  C   UNL     1      -0.252   8.552  21.761  0.00  0.00    +0.000 C 
ENDBRANCH   7  10
ENDBRANCH   1   5
BRANCH   1  12
ATOM     12  N   UNL     1       1.117   3.645  19.795  0.00  0.00    +0.000 NA
ATOM     13  C   UNL     1       0.629   2.631  18.847  0.00  0.00    +0.000 C 
ATOM     14  C   UNL     1       1.288   3.000  21.102  0.00  0.00    +0.000 C 
ENDBRANCH   1  12
BRANCH   1  15
ATOM     15  C   UNL     1       3.638   3.964  20.148  0.00  0.00    +0.000 C 
BRANCH  15  16
ATOM     16  C   UNL     1       4.834   3.506  19.300  0.00  0.00    +0.000 C 
BRANCH  16  17
ATOM     17  C   UNL     1       5.727   4.657  18.832  0.00  0.00    +0.000 C 
BRANCH  17  18
ATOM     18  C   UNL     1       5.930   4.570  17.336  0.00  0.00    +0.000 A 
ATOM     19  C   UNL     1       7.170   4.889  16.767  0.00  0.00    +0.000 A 
ATOM     20  C   UNL     1       7.330   4.900  15.379  0.00  0.00    +0.000 A 
ATOM     21  C   UNL     1       6.254   4.597  14.549  0.00  0.00    +0.000 A 
ATOM     22  C   UNL     1       5.016   4.276  15.104  0.00  0.00    +0.000 A 
ATOM     23  C   UNL     1       4.854   4.263  16.490  0.00  0.00    +0.000 A 
ENDBRANCH  17  18
ENDBRANCH  16  17
ENDBRANCH  15  16
ENDBRANCH   1  15
TORSDOF 8
ENDMDL
MODEL 6
REMARK VINA RESULT:      -6.3      1.188      2.100
REMARK  Name = 
REMARK  12 active torsions:
REMARK  status: ('A' for Active; 'I' for Inactive)
REMARK    1  A    between atoms: C_1  and  O_2
REMARK    2  A    between atoms: O_2  and  C_3
REMARK    3  A    between atoms: C_6  and  C_7
REMARK    4  A    between atoms: C_7  and  C_8
REMARK    5  A    between atoms: C_7  and  N_17
REMARK    6  A    between atoms: C_8  and  C_9
REMARK    7  A    between atoms: C_9  and  C_10
REMARK    8  A    between atoms: C_10  and  C_11
REMARK    9  A    between atoms: N_17  and  C_18
REMARK   10  A    between atoms: N_17  and  C_19
REMARK   11  A    between atoms: C_21  and  O_22
REMARK   12  A    between atoms: O_22  and  C_23
REMARK                            x       y       z     vdW  Elec       q    Type
REMARK                         _______ _______ _______ _____ _____    ______ ____
ROOT
ATOM      1  C   UNL     1       4.159   5.799  18.420  0.00  0.00    +0.000 C 
ENDROOT
BRANCH   1   5
ATOM      2  C   UNL     1       1.345   9.103  18.886  0.00  0.00    +0.000 A 
ATOM      3  C   UNL     1       2.147   9.001  17.738  0.00  0.00    +0.000 A 
ATOM      4  C   UNL     1       3.047   7.949  17.588  0.00  0.00    +0.000 A 
ATOM      5  C   UNL     1       3.232   7.013  18.608  0.00  0.00    +0.000 A 
ATOM      6  C   UNL     1       2.492   7.166  19.787  0.00  0.00    +0.000 A 
ATOM      7  C   UNL     1       1.542   8.194  19.936  0.00  0.00    +0.000 A 
BRANCH   2   9
ATOM      8  C   UNL     1      -0.687  10.008  18.070  0.00  0.00    +0.000 C 
ATOM      9  O   UNL     1       0.401  10.088  18.992  0.00  0.00    +0.000 OA
ENDBRANCH   2   9
BRANCH   7  10
ATOM     10  O   UNL     1       0.902   8.119  21.146  0.00  0.00    +0.000 OA
ATOM     11  C   UNL     1       1.295   8.984  22.200  0.00  0.00    +0.000 C 
ENDBRANCH   7  10
ENDBRANCH   1   5
BRANCH   1  12
ATOM     12  N   UNL     1       5.604   6.164  18.443  0.00  0.00    +0.000 NA
ATOM     13  C   UNL     1       6.393   5.240  19.273  0.00  0.00    +0.000 C 
ATOM     14  C   UNL     1       6.204   6.194  17.104  0.00  0.00    +0.000 C 
ENDBRANCH   1  12
BRANCH   1  15
ATOM     15  C   UNL     1       3.707   5.053  17.120  0.00  0.00    +0.000 C 
BRANCH  15  16
ATOM     16  C   UNL     1       3.989   3.544  17.138  0.00  0.00    +0.000 C 
BRANCH  16  17
ATOM     17  C   UNL     1       2.748   2.694  17.421  0.00  0.00    +0.000 C 
BRANCH  17  18
ATOM     18  C   UNL     1       2.330   2.865  18.864  0.00  0.00    +0.000 A 
ATOM     19  C   UNL     1       1.138   3.528  19.185  0.00  0.00    +0.000 A 
ATOM     20  C   UNL     1       0.800   3.770  20.519  0.00  0.00    +0.000 A 
ATOM     21  C   UNL     1       1.649   3.354  21.542  0.00  0.00    +0.000 A 
ATOM     22  C   UNL     1       2.835   2.691  21.234  0.00  0.00    +0.000 A 
ATOM     23  C   UNL     1       3.175   2.448  19.902  0.00  0.00    +0.000 A 
ENDBRANCH  17  18
ENDBRANCH  16  17
ENDBRANCH  15  16
ENDBRANCH   1  15
TORSDOF 8
ENDMDL
MODEL 7
REMARK VINA RESULT:      -6.3      1.789      4.863
REMARK  Name = 
REMARK  12 active torsions:
REMARK  status: ('A' for Active; 'I' for Inactive)
REMARK    1  A    between atoms: C_1  and  O_2
REMARK    2  A    between atoms: O_2  and  C_3
REMARK    3  A    between atoms: C_6  and  C_7
REMARK    4  A    between atoms: C_7  and  C_8
REMARK    5  A    between atoms: C_7  and  N_17
REMARK    6  A    between atoms: C_8  and  C_9
REMARK    7  A    between atoms: C_9  and  C_10
REMARK    8  A    between atoms: C_10  and  C_11
REMARK    9  A    between atoms: N_17  and  C_18
REMARK   10  A    between atoms: N_17  and  C_19
REMARK   11  A    between atoms: C_21  and  O_22
REMARK   12  A    between atoms: O_22  and  C_23
REMARK                            x       y       z     vdW  Elec       q    Type
REMARK                         _______ _______ _______ _____ _____    ______ ____
ROOT
ATOM      1  C   UNL     1       2.413   4.854  19.353  0.00  0.00    +0.000 C 
ENDROOT
BRANCH   1   5
ATOM      2  C   UNL     1       1.665   9.142  19.027  0.00  0.00    +0.000 A 
ATOM      3  C   UNL     1       2.209   8.425  17.949  0.00  0.00    +0.000 A 
ATOM      4  C   UNL     1       2.451   7.058  18.052  0.00  0.00    +0.000 A 
ATOM      5  C   UNL     1       2.231   6.378  19.253  0.00  0.00    +0.000 A 
ATOM      6  C   UNL     1       1.769   7.113  20.351  0.00  0.00    +0.000 A 
ATOM      7  C   UNL     1       1.472   8.486  20.252  0.00  0.00    +0.000 A 
BRANCH   2   9
ATOM      8  C   UNL     1      -0.031  10.755  18.654  0.00  0.00    +0.000 C 
ATOM      9  O   UNL     1       1.348  10.466  18.895  0.00  0.00    +0.000 OA
ENDBRANCH   2   9
BRANCH   7  10
ATOM     10  O   UNL     1       0.985   8.984  21.432  0.00  0.00    +0.000 OA
ATOM     11  C   UNL     1      -0.349   8.694  21.816  0.00  0.00    +0.000 C 
ENDBRANCH   7  10
ENDBRANCH   1   5
BRANCH   1  12
ATOM     12  N   UNL     1       1.511   4.227  20.360  0.00  0.00    +0.000 NA
ATOM     13  C   UNL     1       0.728   3.121  19.788  0.00  0.00    +0.000 C 
ATOM     14  C   UNL     1       2.235   3.713  21.529  0.00  0.00    +0.000 C 
ENDBRANCH   1  12
BRANCH   1  15
ATOM     15  C   UNL     1       3.934   4.571  19.590  0.00  0.00    +0.000 C 
BRANCH  15  16
ATOM     16  C   UNL     1       4.580   3.690  18.511  0.00  0.00    +0.000 C 
BRANCH  16  17
ATOM     17  C   UNL     1       4.967   4.459  17.246  0.00  0.00    +0.000 C 
BRANCH  17  18
ATOM     18  C   UNL     1       6.070   5.443  17.564  0.00  0.00    +0.000 A 
ATOM     19  C   UNL     1       7.063   5.121  18.499  0.00  0.00    +0.000 A 
ATOM     20  C   UNL     1       8.026   6.065  18.863  0.00  0.00    +0.000 A 
ATOM     21  C   UNL     1       8.005   7.338  18.298  0.00  0.00    +0.000 A 
ATOM     22  C   UNL     1       7.024   7.669  17.365  0.00  0.00    +0.000 A 
ATOM     23  C   UNL     1       6.061   6.727  17.000  0.00  0.00    +0.000 A 
ENDBRANCH  17  18
ENDBRANCH  16  17
ENDBRANCH  15  16
ENDBRANCH   1  15
TORSDOF 8
ENDMDL
MODEL 8
REMARK VINA RESULT:      -6.3      1.213      2.386
REMARK  Name = 
REMARK  12 active torsions:
REMARK  status: ('A' for Active; 'I' for Inactive)
REMARK    1  A    between atoms: C_1  and  O_2
REMARK    2  A    between atoms: O_2  and  C_3
REMARK    3  A    between atoms: C_6  and  C_7
REMARK    4  A    between atoms: C_7  and  C_8
REMARK    5  A    between atoms: C_7  and  N_17
REMARK    6  A    between atoms: C_8  and  C_9
REMARK    7  A    between atoms: C_9  and  C_10
REMARK    8  A    between atoms: C_10  and  C_11
REMARK    9  A    between atoms: N_17  and  C_18
REMARK   10  A    between atoms: N_17  and  C_19
REMARK   11  A    between atoms: C_21  and  O_22
REMARK   12  A    between atoms: O_22  and  C_23
REMARK                            x       y       z     vdW  Elec       q    Type
REMARK                         _______ _______ _______ _____ _____    ______ ____
ROOT
ATOM      1  C   UNL     1       5.254   4.879  17.627  0.00  0.00    +0.000 C 
ENDROOT
BRANCH   1   5
ATOM      2  C   UNL     1       2.328   7.988  18.531  0.00  0.00    +0.000 A 
ATOM      3  C   UNL     1       3.190   8.114  17.430  0.00  0.00    +0.000 A 
ATOM      4  C   UNL     1       4.125   7.124  17.141  0.00  0.00    +0.000 A 
ATOM      5  C   UNL     1       4.284   6.020  17.982  0.00  0.00    +0.000 A 
ATOM      6  C   UNL     1       3.482   5.941  19.127  0.00  0.00    +0.000 A 
ATOM      7  C   UNL     1       2.496   6.906  19.408  0.00  0.00    +0.000 A 
BRANCH   2   9
ATOM      8  C   UNL     1       1.548  10.193  18.146  0.00  0.00    +0.000 C 
ATOM      9  O   UNL     1       1.352   8.919  18.763  0.00  0.00    +0.000 OA
ENDBRANCH   2   9
BRANCH   7  10
ATOM     10  O   UNL     1       1.798   6.599  20.547  0.00  0.00    +0.000 OA
ATOM     11  C   UNL     1       1.228   7.642  21.320  0.00  0.00    +0.000 C 
ENDBRANCH   7  10
ENDBRANCH   1   5
BRANCH   1  12
ATOM     12  N   UNL     1       6.635   5.359  17.337  0.00  0.00    +0.000 NA
ATOM     13  C   UNL     1       7.593   4.939  18.371  0.00  0.00    +0.000 C 
ATOM     14  C   UNL     1       7.136   4.897  16.038  0.00  0.00    +0.000 C 
ENDBRANCH   1  12
BRANCH   1  15
ATOM     15  C   UNL     1       4.608   4.049  16.468  0.00  0.00    +0.000 C 
BRANCH  15  16
ATOM     16  C   UNL     1       3.265   3.402  16.838  0.00  0.00    +0.000 C 
BRANCH  16  17
ATOM     17  C   UNL     1       3.398   2.241  17.825  0.00  0.00    +0.000 C 
BRANCH  17  18
ATOM     18  C   UNL     1       2.700   2.590  19.120  0.00  0.00    +0.000 A 
ATOM     19  C   UNL     1       3.354   2.421  20.348  0.00  0.00    +0.000 A 
ATOM     20  C   UNL     1       2.678   2.652  21.548  0.00  0.00    +0.000 A 
ATOM     21  C   UNL     1       1.343   3.051  21.533  0.00  0.00    +0.000 A 
ATOM     22  C   UNL     1       0.683   3.225  20.318  0.00  0.00    +0.000 A 
ATOM     23  C   UNL     1       1.358   2.995  19.117  0.00  0.00    +0.000 A 
ENDBRANCH  17  18
ENDBRANCH  16  17
ENDBRANCH  15  16
ENDBRANCH   1  15
TORSDOF 8
ENDMDL
MODEL 9
REMARK VINA RESULT:      -6.3      2.997      6.611
REMARK  Name = 
REMARK  12 active torsions:
REMARK  status: ('A' for Active; 'I' for Inactive)
REMARK    1  A    between atoms: C_1  and  O_2
REMARK    2  A    between atoms: O_2  and  C_3
REMARK    3  A    between atoms: C_6  and  C_7
REMARK    4  A    between atoms: C_7  and  C_8
REMARK    5  A    between atoms: C_7  and  N_17
REMARK    6  A    between atoms: C_8  and  C_9
REMARK    7  A    between atoms: C_9  and  C_10
REMARK    8  A    between atoms: C_10  and  C_11
REMARK    9  A    between atoms: N_17  and  C_18
REMARK   10  A    between atoms: N_17  and  C_19
REMARK   11  A    between atoms: C_21  and  O_22
REMARK   12  A    between atoms: O_22  and  C_23
REMARK                            x       y       z     vdW  Elec       q    Type
REMARK                         _______ _______ _______ _____ _____    ______ ____
ROOT
ATOM      1  C   UNL     1       3.038   4.291  19.772  0.00  0.00    +0.000 C 
ENDROOT
BRANCH   1   5
ATOM      2  C   UNL     1       6.047   4.335  16.610  0.00  0.00    +0.000 A 
ATOM      3  C   UNL     1       4.705   4.045  16.318  0.00  0.00    +0.000 A 
ATOM      4  C   UNL     1       3.744   4.028  17.325  0.00  0.00    +0.000 A 
ATOM      5  C   UNL     1       4.102   4.222  18.662  0.00  0.00    +0.000 A 
ATOM      6  C   UNL     1       5.455   4.425  18.960  0.00  0.00    +0.000 A 
ATOM      7  C   UNL     1       6.433   4.495  17.950  0.00  0.00    +0.000 A 
BRANCH   2   9
ATOM      8  C   UNL     1       6.456   4.395  14.277  0.00  0.00    +0.000 C 
ATOM      9  O   UNL     1       6.973   4.436  15.608  0.00  0.00    +0.000 OA
ENDBRANCH   2   9
BRANCH   7  10
ATOM     10  O   UNL     1       7.676   4.754  18.467  0.00  0.00    +0.000 OA
ATOM     11  C   UNL     1       7.866   5.888  19.297  0.00  0.00    +0.000 C 
ENDBRANCH   7  10
ENDBRANCH   1   5
BRANCH   1  12
ATOM     12  N   UNL     1       2.435   2.963  20.081  0.00  0.00    +0.000 NA
ATOM     13  C   UNL     1       2.396   2.699  21.528  0.00  0.00    +0.000 C 
ATOM     14  C   UNL     1       1.072   2.821  19.557  0.00  0.00    +0.000 C 
ENDBRANCH   1  12
BRANCH   1  15
ATOM     15  C   UNL     1       1.998   5.387  19.365  0.00  0.00    +0.000 C 
BRANCH  15  16
ATOM     16  C   UNL     1       2.501   6.825  19.559  0.00  0.00    +0.000 C 
BRANCH  16  17
ATOM     17  C   UNL     1       1.751   7.592  20.650  0.00  0.00    +0.000 C 
BRANCH  17  18
ATOM     18  C   UNL     1       1.083   8.810  20.051  0.00  0.00    +0.000 A 
ATOM     19  C   UNL     1       0.074   9.484  20.751  0.00  0.00    +0.000 A 
ATOM     20  C   UNL     1      -0.608  10.550  20.158  0.00  0.00    +0.000 A 
ATOM     21  C   UNL     1      -0.290  10.949  18.862  0.00  0.00    +0.000 A 
ATOM     22  C   UNL     1       0.713  10.287  18.157  0.00  0.00    +0.000 A 
ATOM     23  C   UNL     1       1.396   9.223  18.748  0.00  0.00    +0.000 A 
ENDBRANCH  17  18
ENDBRANCH  16  17
ENDBRANCH  15  16
ENDBRANCH   1  15
TORSDOF 8
ENDMDL
