MODEL 1
REMARK VINA RESULT:      -6.1      0.000      0.000
REMARK  Name = 
REMARK  13 active torsions:
REMARK  status: ('A' for Active; 'I' for Inactive)
REMARK    1  A    between atoms: C_1  and  C_2
REMARK    2  A    between atoms: C_2  and  C_3
REMARK    3  A    between atoms: C_2  and  C_4
REMARK    4  A    between atoms: C_2  and  S_5
REMARK    5  A    between atoms: S_5  and  N_7
REMARK    6  A    between atoms: N_13  and  C_14
REMARK    7  A    between atoms: C_14  and  C_15
REMARK    8  A    between atoms: C_21  and  C_22
REMARK    9  A    between atoms: C_22  and  C_23
REMARK   10  A    between atoms: C_23  and  O_24
REMARK   11  A    between atoms: C_26  and  C_27
REMARK   12  A    between atoms: C_27  and  C_28
REMARK   13  A    between atoms: C_28  and  O_29
REMARK                            x       y       z     vdW  Elec       q    Type
REMARK                         _______ _______ _______ _____ _____    ______ ____
ROOT
ATOM      1  N   UNL     1       3.096   5.603  18.926  0.00  0.00    +0.000 NA
ATOM      2  C   UNL     1       3.780   6.737  18.266  0.00  0.00    +0.000 C 
ATOM      3  C   UNL     1       2.911   7.921  18.487  0.00  0.00    +0.000 A 
ATOM      4  C   UNL     1       2.910   9.031  17.757  0.00  0.00    +0.000 A 
ATOM      5  C   UNL     1       1.949  10.089  18.086  0.00  0.00    +0.000 A 
ATOM      6  O   UNL     1       1.984  11.121  17.419  0.00  0.00    +0.000 OA
ATOM      7  N   UNL     1       1.042   9.822  19.126  0.00  0.00    +0.000 N 
ATOM      8  C   UNL     1       1.081   8.632  19.911  0.00  0.00    +0.000 A 
ATOM      9  C   UNL     1       2.011   7.686  19.601  0.00  0.00    +0.000 A 
ATOM     10  C   UNL     1       2.490   6.318  20.134  0.00  0.00    +0.000 C 
ENDROOT
BRANCH   1  11
ATOM     11  S   UNL     1       2.107   4.653  17.928  0.00  0.00    +0.000 S 
ATOM     12  O   UNL     1       0.873   4.023  18.661  0.00  0.00    +0.000 OA
BRANCH  11  14
ATOM     13  C   UNL     1       4.208   3.112  18.806  0.00  0.00    +0.000 C 
ATOM     14  C   UNL     1       3.296   3.239  17.566  0.00  0.00    +0.000 C 
ATOM     15  C   UNL     1       4.168   3.509  16.336  0.00  0.00    +0.000 C 
ATOM     16  C   UNL     1       2.544   1.912  17.412  0.00  0.00    +0.000 C 
ENDBRANCH  11  14
ENDBRANCH   1  11
BRANCH   7  17
ATOM     17  C   UNL     1       0.020  10.861  19.286  0.00  0.00    +0.000 C 
BRANCH  17  18
ATOM     18  C   UNL     1      -1.232  10.655  18.443  0.00  0.00    +0.000 A 
ATOM     19  C   UNL     1      -1.292   9.767  17.356  0.00  0.00    +0.000 A 
ATOM     20  C   UNL     1      -2.447   9.659  16.579  0.00  0.00    +0.000 A 
ATOM     21  C   UNL     1      -3.564  10.434  16.876  0.00  0.00    +0.000 A 
ATOM     22  C   UNL     1      -3.532  11.305  17.963  0.00  0.00    +0.000 A 
ATOM     23  C   UNL     1      -2.376  11.413  18.742  0.00  0.00    +0.000 A 
ENDBRANCH  17  18
ENDBRANCH   7  17
BRANCH   8  24
ATOM     24  C   UNL     1       0.201   8.555  21.154  0.00  0.00    +0.000 C 
BRANCH  24  25
ATOM     25  C   UNL     1       0.659   9.237  22.448  0.00  0.00    +0.000 C 
BRANCH  25  26
ATOM     26  O   UNL     1      -0.346   9.210  23.446  0.00  0.00    +0.000 OA
ATOM     27  H   UNL     1      -1.004   8.549  23.168  0.00  0.00    +0.000 HD
ENDBRANCH  25  26
ENDBRANCH  24  25
ENDBRANCH   8  24
BRANCH  10  28
ATOM     28  C   UNL     1       1.641   5.448  21.079  0.00  0.00    +0.000 C 
BRANCH  28  29
ATOM     29  C   UNL     1       2.372   4.199  21.579  0.00  0.00    +0.000 C 
BRANCH  29  30
ATOM     30  O   UNL     1       1.557   3.041  21.396  0.00  0.00    +0.000 OA
ATOM     31  H   UNL     1       2.003   2.493  20.727  0.00  0.00    +0.000 HD
ENDBRANCH  29  30
ENDBRANCH  28  29
ENDBRANCH  10  28
TORSDOF 10
ENDMDL
MODEL 2
REMARK VINA RESULT:      -5.9      4.010      8.687
REMARK  Name = 
REMARK  13 active torsions:
REMARK  status: ('A' for Active; 'I' for Inactive)
REMARK    1  A    between atoms: C_1  and  C_2
REMARK    2  A    between atoms: C_2  and  C_3
REMARK    3  A    between atoms: C_2  and  C_4
REMARK    4  A    between atoms: C_2  and  S_5
REMARK    5  A    between atoms: S_5  and  N_7
REMARK    6  A    between atoms: N_13  and  C_14
REMARK    7  A    between atoms: C_14  and  C_15
REMARK    8  A    between atoms: C_21  and  C_22
REMARK    9  A    between atoms: C_22  and  C_23
REMARK   10  A    between atoms: C_23  and  O_24
REMARK   11  A    between atoms: C_26  and  C_27
REMARK   12  A    between atoms: C_27  and  C_28
REMARK   13  A    between atoms: C_28  and  O_29
REMARK                            x       y       z     vdW  Elec       q    Type
REMARK                         _______ _______ _______ _____ _____    ______ ____
ROOT
ATOM      1  N   UNL     1      -2.090  13.961  21.583  0.00  0.00    +0.000 NA
ATOM      2  C   UNL     1      -0.880  14.593  21.012  0.00  0.00    +0.000 C 
ATOM      3  C   UNL     1      -0.273  13.576  20.116  0.00  0.00    +0.000 A 
ATOM      4  C   UNL     1       0.995  13.545  19.722  0.00  0.00    +0.000 A 
ATOM      5  C   UNL     1       1.442  12.437  18.871  0.00  0.00    +0.000 A 
ATOM      6  O   UNL     1       2.611  12.442  18.492  0.00  0.00    +0.000 OA
ATOM      7  N   UNL     1       0.496  11.439  18.580  0.00  0.00    +0.000 N 
ATOM      8  C   UNL     1      -0.868  11.510  18.994  0.00  0.00    +0.000 A 
ATOM      9  C   UNL     1      -1.256  12.572  19.753  0.00  0.00    +0.000 A 
ATOM     10  C   UNL     1      -2.550  13.129  20.386  0.00  0.00    +0.000 C 
ENDROOT
BRANCH   1  11
ATOM     11  S   UNL     1      -1.895  13.222  23.096  0.00  0.00    +0.000 S 
ATOM     12  O   UNL     1      -2.118  11.671  23.085  0.00  0.00    +0.000 OA
BRANCH  11  14
ATOM     13  C   UNL     1      -3.989  15.003  23.035  0.00  0.00    +0.000 C 
ATOM     14  C   UNL     1      -3.367  13.970  24.000  0.00  0.00    +0.000 C 
ATOM     15  C   UNL     1      -2.958  14.684  25.292  0.00  0.00    +0.000 C 
ATOM     16  C   UNL     1      -4.436  12.909  24.287  0.00  0.00    +0.000 C 
ENDBRANCH  11  14
ENDBRANCH   1  11
BRANCH   7  17
ATOM     17  C   UNL     1       1.062  10.295  17.858  0.00  0.00    +0.000 C 
BRANCH  17  18
ATOM     18  C   UNL     1       1.415   9.102  18.737  0.00  0.00    +0.000 A 
ATOM     19  C   UNL     1       1.087   9.026  20.102  0.00  0.00    +0.000 A 
ATOM     20  C   UNL     1       1.485   7.935  20.876  0.00  0.00    +0.000 A 
ATOM     21  C   UNL     1       2.216   6.899  20.301  0.00  0.00    +0.000 A 
ATOM     22  C   UNL     1       2.532   6.946  18.946  0.00  0.00    +0.000 A 
ATOM     23  C   UNL     1       2.133   8.037  18.169  0.00  0.00    +0.000 A 
ENDBRANCH  17  18
ENDBRANCH   7  17
BRANCH   8  24
ATOM     24  C   UNL     1      -1.850  10.491  18.426  0.00  0.00    +0.000 C 
BRANCH  24  25
ATOM     25  C   UNL     1      -2.614  10.813  17.137  0.00  0.00    +0.000 C 
BRANCH  25  26
ATOM     26  O   UNL     1      -2.029  11.892  16.430  0.00  0.00    +0.000 OA
ATOM     27  H   UNL     1      -2.724  12.563  16.310  0.00  0.00    +0.000 HD
ENDBRANCH  25  26
ENDBRANCH  24  25
ENDBRANCH   8  24
BRANCH  10  28
ATOM     28  C   UNL     1      -3.807  12.268  20.605  0.00  0.00    +0.000 C 
BRANCH  28  29
ATOM     29  C   UNL     1      -5.083  12.895  20.035  0.00  0.00    +0.000 C 
BRANCH  29  30
ATOM     30  O   UNL     1      -5.002  12.979  18.612  0.00  0.00    +0.000 OA
ATOM     31  H   UNL     1      -4.256  13.572  18.414  0.00  0.00    +0.000 HD
ENDBRANCH  29  30
ENDBRANCH  28  29
ENDBRANCH  10  28
TORSDOF 10
ENDMDL
MODEL 3
REMARK VINA RESULT:      -5.9      2.449      7.131
REMARK  Name = 
REMARK  13 active torsions:
REMARK  status: ('A' for Active; 'I' for Inactive)
REMARK    1  A    between atoms: C_1  and  C_2
REMARK    2  A    between atoms: C_2  and  C_3
REMARK    3  A    between atoms: C_2  and  C_4
REMARK    4  A    between atoms: C_2  and  S_5
REMARK    5  A    between atoms: S_5  and  N_7
REMARK    6  A    between atoms: N_13  and  C_14
REMARK    7  A    between atoms: C_14  and  C_15
REMARK    8  A    between atoms: C_21  and  C_22
REMARK    9  A    between atoms: C_22  and  C_23
REMARK   10  A    between atoms: C_23  and  O_24
REMARK   11  A    between atoms: C_26  and  C_27
REMARK   12  A    between atoms: C_27  and  C_28
REMARK   13  A    between atoms: C_28  and  O_29
REMARK                            x       y       z     vdW  Elec       q    Type
REMARK                         _______ _______ _______ _____ _____    ______ ____
ROOT
ATOM      1  N   UNL     1       0.369  10.368  19.584  0.00  0.00    +0.000 NA
ATOM      2  C   UNL     1       0.847  10.126  18.205  0.00  0.00    +0.000 C 
ATOM      3  C   UNL     1       1.752   8.952  18.286  0.00  0.00    +0.000 A 
ATOM      4  C   UNL     1       2.696   8.637  17.407  0.00  0.00    +0.000 A 
ATOM      5  C   UNL     1       3.536   7.462  17.667  0.00  0.00    +0.000 A 
ATOM      6  O   UNL     1       4.384   7.169  16.828  0.00  0.00    +0.000 OA
ATOM      7  N   UNL     1       3.319   6.781  18.878  0.00  0.00    +0.000 N 
ATOM      8  C   UNL     1       2.280   7.126  19.793  0.00  0.00    +0.000 A 
ATOM      9  C   UNL     1       1.495   8.201  19.502  0.00  0.00    +0.000 A 
ATOM     10  C   UNL     1       0.268   8.929  20.091  0.00  0.00    +0.000 C 
ENDROOT
BRANCH   1  11
ATOM     11  S   UNL     1       1.241  11.515  20.479  0.00  0.00    +0.000 S 
ATOM     12  O   UNL     1       0.498  12.028  21.759  0.00  0.00    +0.000 OA
BRANCH  11  14
ATOM     13  C   UNL     1       1.460  14.226  20.072  0.00  0.00    +0.000 C 
ATOM     14  C   UNL     1       1.235  12.939  19.247  0.00  0.00    +0.000 C 
ATOM     15  C   UNL     1      -0.096  13.059  18.498  0.00  0.00    +0.000 C 
ATOM     16  C   UNL     1       2.400  12.818  18.258  0.00  0.00    +0.000 C 
ENDBRANCH  11  14
ENDBRANCH   1  11
BRANCH   7  17
ATOM     17  C   UNL     1       4.299   5.721  19.132  0.00  0.00    +0.000 C 
BRANCH  17  18
ATOM     18  C   UNL     1       3.827   4.320  18.768  0.00  0.00    +0.000 A 
ATOM     19  C   UNL     1       4.314   3.157  19.389  0.00  0.00    +0.000 A 
ATOM     20  C   UNL     1       3.890   1.892  18.978  0.00  0.00    +0.000 A 
ATOM     21  C   UNL     1       2.971   1.765  17.941  0.00  0.00    +0.000 A 
ATOM     22  C   UNL     1       2.461   2.906  17.326  0.00  0.00    +0.000 A 
ATOM     23  C   UNL     1       2.883   4.173  17.738  0.00  0.00    +0.000 A 
ENDBRANCH  17  18
ENDBRANCH   7  17
BRANCH   8  24
ATOM     24  C   UNL     1       1.994   6.179  20.953  0.00  0.00    +0.000 C 
BRANCH  24  25
ATOM     25  C   UNL     1       1.107   4.950  20.727  0.00  0.00    +0.000 C 
BRANCH  25  26
ATOM     26  O   UNL     1       1.619   3.800  21.374  0.00  0.00    +0.000 OA
ATOM     27  H   UNL     1       1.927   4.081  22.253  0.00  0.00    +0.000 HD
ENDBRANCH  25  26
ENDBRANCH  24  25
ENDBRANCH   8  24
BRANCH  10  28
ATOM     28  C   UNL     1      -0.179   8.757  21.554  0.00  0.00    +0.000 C 
BRANCH  28  29
ATOM     29  C   UNL     1       0.931   9.045  22.569  0.00  0.00    +0.000 C 
BRANCH  29  30
ATOM     30  O   UNL     1       0.407   9.756  23.690  0.00  0.00    +0.000 OA
ATOM     31  H   UNL     1       1.109  10.362  23.985  0.00  0.00    +0.000 HD
ENDBRANCH  29  30
ENDBRANCH  28  29
ENDBRANCH  10  28
TORSDOF 10
ENDMDL
MODEL 4
REMARK VINA RESULT:      -5.8      4.223      8.893
REMARK  Name = 
REMARK  13 active torsions:
REMARK  status: ('A' for Active; 'I' for Inactive)
REMARK    1  A    between atoms: C_1  and  C_2
REMARK    2  A    between atoms: C_2  and  C_3
REMARK    3  A    between atoms: C_2  and  C_4
REMARK    4  A    between atoms: C_2  and  S_5
REMARK    5  A    between atoms: S_5  and  N_7
REMARK    6  A    between atoms: N_13  and  C_14
REMARK    7  A    between atoms: C_14  and  C_15
REMARK    8  A    between atoms: C_21  and  C_22
REMARK    9  A    between atoms: C_22  and  C_23
REMARK   10  A    between atoms: C_23  and  O_24
REMARK   11  A    between atoms: C_26  and  C_27
REMARK   12  A    between atoms: C_27  and  C_28
REMARK   13  A    between atoms: C_28  and  O_29
REMARK                            x       y       z     vdW  Elec       q    Type
REMARK                         _______ _______ _______ _____ _____    ______ ____
ROOT
ATOM      1  N   UNL     1      -2.135  14.232  21.523  0.00  0.00    +0.000 NA
ATOM      2  C   UNL     1      -0.883  14.834  21.010  0.00  0.00    +0.000 C 
ATOM      3  C   UNL     1      -0.262  13.803  20.141  0.00  0.00    +0.000 A 
ATOM      4  C   UNL     1       1.022  13.740  19.807  0.00  0.00    +0.000 A 
ATOM      5  C   UNL     1       1.479  12.622  18.974  0.00  0.00    +0.000 A 
ATOM      6  O   UNL     1       2.664  12.598  18.649  0.00  0.00    +0.000 OA
ATOM      7  N   UNL     1       0.522  11.649  18.637  0.00  0.00    +0.000 N 
ATOM      8  C   UNL     1      -0.857  11.754  18.987  0.00  0.00    +0.000 A 
ATOM      9  C   UNL     1      -1.252  12.824  19.731  0.00  0.00    +0.000 A 
ATOM     10  C   UNL     1      -2.560  13.413  20.304  0.00  0.00    +0.000 C 
ENDROOT
BRANCH   1  11
ATOM     11  S   UNL     1      -2.028  13.486  23.043  0.00  0.00    +0.000 S 
ATOM     12  O   UNL     1      -2.324  11.947  23.023  0.00  0.00    +0.000 OA
BRANCH  11  14
ATOM     13  C   UNL     1      -2.989  14.766  25.278  0.00  0.00    +0.000 C 
ATOM     14  C   UNL     1      -3.495  14.304  23.894  0.00  0.00    +0.000 C 
ATOM     15  C   UNL     1      -4.667  13.339  24.093  0.00  0.00    +0.000 C 
ATOM     16  C   UNL     1      -3.949  15.554  23.131  0.00  0.00    +0.000 C 
ENDBRANCH  11  14
ENDBRANCH   1  11
BRANCH   7  17
ATOM     17  C   UNL     1       1.092  10.492  17.940  0.00  0.00    +0.000 C 
BRANCH  17  18
ATOM     18  C   UNL     1       1.373   9.289  18.830  0.00  0.00    +0.000 A 
ATOM     19  C   UNL     1       0.928   9.194  20.160  0.00  0.00    +0.000 A 
ATOM     20  C   UNL     1       1.262   8.094  20.953  0.00  0.00    +0.000 A 
ATOM     21  C   UNL     1       2.044   7.068  20.430  0.00  0.00    +0.000 A 
ATOM     22  C   UNL     1       2.477   7.134  19.108  0.00  0.00    +0.000 A 
ATOM     23  C   UNL     1       2.142   8.234  18.314  0.00  0.00    +0.000 A 
ENDBRANCH  17  18
ENDBRANCH   7  17
BRANCH   8  24
ATOM     24  C   UNL     1      -1.837  10.761  18.373  0.00  0.00    +0.000 C 
BRANCH  24  25
ATOM     25  C   UNL     1      -2.449  11.055  16.999  0.00  0.00    +0.000 C 
BRANCH  25  26
ATOM     26  O   UNL     1      -3.566  11.920  17.090  0.00  0.00    +0.000 OA
ATOM     27  H   UNL     1      -4.327  11.375  17.357  0.00  0.00    +0.000 HD
ENDBRANCH  25  26
ENDBRANCH  24  25
ENDBRANCH   8  24
BRANCH  10  28
ATOM     28  C   UNL     1      -3.847  12.584  20.463  0.00  0.00    +0.000 C 
BRANCH  28  29
ATOM     29  C   UNL     1      -5.123  13.376  20.162  0.00  0.00    +0.000 C 
BRANCH  29  30
ATOM     30  O   UNL     1      -4.831  14.770  20.064  0.00  0.00    +0.000 OA
ATOM     31  H   UNL     1      -4.869  14.993  19.118  0.00  0.00    +0.000 HD
ENDBRANCH  29  30
ENDBRANCH  28  29
ENDBRANCH  10  28
TORSDOF 10
ENDMDL
MODEL 5
REMARK VINA RESULT:      -5.7      3.104      7.462
REMARK  Name = 
REMARK  13 active torsions:
REMARK  status: ('A' for Active; 'I' for Inactive)
REMARK    1  A    between atoms: C_1  and  C_2
REMARK    2  A    between atoms: C_2  and  C_3
REMARK    3  A    between atoms: C_2  and  C_4
REMARK    4  A    between atoms: C_2  and  S_5
REMARK    5  A    between atoms: S_5  and  N_7
REMARK    6  A    between atoms: N_13  and  C_14
REMARK    7  A    between atoms: C_14  and  C_15
REMARK    8  A    between atoms: C_21  and  C_22
REMARK    9  A    between atoms: C_22  and  C_23
REMARK   10  A    between atoms: C_23  and  O_24
REMARK   11  A    between atoms: C_26  and  C_27
REMARK   12  A    between atoms: C_27  and  C_28
REMARK   13  A    between atoms: C_28  and  O_29
REMARK                            x       y       z     vdW  Elec       q    Type
REMARK                         _______ _______ _______ _____ _____    ______ ____
ROOT
ATOM      1  N   UNL     1       0.484  12.151  19.244  0.00  0.00    +0.000 NA
ATOM      2  C   UNL     1       0.838  11.486  17.970  0.00  0.00    +0.000 C 
ATOM      3  C   UNL     1       1.355  10.145  18.340  0.00  0.00    +0.000 A 
ATOM      4  C   UNL     1       2.144   9.382  17.591  0.00  0.00    +0.000 A 
ATOM      5  C   UNL     1       2.604   8.099  18.132  0.00  0.00    +0.000 A 
ATOM      6  O   UNL     1       3.307   7.393  17.413  0.00  0.00    +0.000 OA
ATOM      7  N   UNL     1       2.221   7.792  19.450  0.00  0.00    +0.000 N 
ATOM      8  C   UNL     1       1.352   8.617  20.224  0.00  0.00    +0.000 A 
ATOM      9  C   UNL     1       0.915   9.785  19.676  0.00  0.00    +0.000 A 
ATOM     10  C   UNL     1      -0.028  10.952  20.041  0.00  0.00    +0.000 C 
ENDROOT
BRANCH   1  11
ATOM     11  S   UNL     1       1.677  13.157  19.909  0.00  0.00    +0.000 S 
ATOM     12  O   UNL     1       2.082  12.785  21.377  0.00  0.00    +0.000 OA
BRANCH  11  14
ATOM     13  C   UNL     1       1.586  15.847  19.348  0.00  0.00    +0.000 C 
ATOM     14  C   UNL     1       0.705  14.766  20.012  0.00  0.00    +0.000 C 
ATOM     15  C   UNL     1       0.415  15.183  21.457  0.00  0.00    +0.000 C 
ATOM     16  C   UNL     1      -0.597  14.677  19.206  0.00  0.00    +0.000 C 
ENDBRANCH  11  14
ENDBRANCH   1  11
BRANCH   7  17
ATOM     17  C   UNL     1       2.848   6.571  19.967  0.00  0.00    +0.000 C 
BRANCH  17  18
ATOM     18  C   UNL     1       2.077   5.290  19.680  0.00  0.00    +0.000 A 
ATOM     19  C   UNL     1       1.417   4.548  20.675  0.00  0.00    +0.000 A 
ATOM     20  C   UNL     1       0.773   3.348  20.367  0.00  0.00    +0.000 A 
ATOM     21  C   UNL     1       0.773   2.870  19.061  0.00  0.00    +0.000 A 
ATOM     22  C   UNL     1       1.402   3.601  18.057  0.00  0.00    +0.000 A 
ATOM     23  C   UNL     1       2.047   4.803  18.363  0.00  0.00    +0.000 A 
ENDBRANCH  17  18
ENDBRANCH   7  17
BRANCH   8  24
ATOM     24  C   UNL     1       0.824   8.071  21.547  0.00  0.00    +0.000 C 
BRANCH  24  25
ATOM     25  C   UNL     1       1.008   8.890  22.829  0.00  0.00    +0.000 C 
BRANCH  25  26
ATOM     26  O   UNL     1       2.340   9.345  22.981  0.00  0.00    +0.000 OA
ATOM     27  H   UNL     1       2.466   9.548  23.924  0.00  0.00    +0.000 HD
ENDBRANCH  25  26
ENDBRANCH  24  25
ENDBRANCH   8  24
BRANCH  10  28
ATOM     28  C   UNL     1      -0.473  11.241  21.487  0.00  0.00    +0.000 C 
BRANCH  28  29
ATOM     29  C   UNL     1      -1.720  12.125  21.575  0.00  0.00    +0.000 C 
BRANCH  29  30
ATOM     30  O   UNL     1      -1.973  12.492  22.931  0.00  0.00    +0.000 OA
ATOM     31  H   UNL     1      -2.741  11.969  23.220  0.00  0.00    +0.000 HD
ENDBRANCH  29  30
ENDBRANCH  28  29
ENDBRANCH  10  28
TORSDOF 10
ENDMDL
MODEL 6
REMARK VINA RESULT:      -5.6      3.067      7.363
REMARK  Name = 
REMARK  13 active torsions:
REMARK  status: ('A' for Active; 'I' for Inactive)
REMARK    1  A    between atoms: C_1  and  C_2
REMARK    2  A    between atoms: C_2  and  C_3
REMARK    3  A    between atoms: C_2  and  C_4
REMARK    4  A    between atoms: C_2  and  S_5
REMARK    5  A    between atoms: S_5  and  N_7
REMARK    6  A    between atoms: N_13  and  C_14
REMARK    7  A    between atoms: C_14  and  C_15
REMARK    8  A    between atoms: C_21  and  C_22
REMARK    9  A    between atoms: C_22  and  C_23
REMARK   10  A    between atoms: C_23  and  O_24
REMARK   11  A    between atoms: C_26  and  C_27
REMARK   12  A    between atoms: C_27  and  C_28
REMARK   13  A    between atoms: C_28  and  O_29
REMARK                            x       y       z     vdW  Elec       q    Type
REMARK                         _______ _______ _______ _____ _____    ______ ____
ROOT
ATOM      1  N   UNL     1       0.808  12.100  18.951  0.00  0.00    +0.000 NA
ATOM      2  C   UNL     1       1.255  11.351  17.756  0.00  0.00    +0.000 C 
ATOM      3  C   UNL     1       1.647  10.004  18.241  0.00  0.00    +0.000 A 
ATOM      4  C   UNL     1       2.463   9.161  17.619  0.00  0.00    +0.000 A 
ATOM      5  C   UNL     1       2.782   7.883  18.266  0.00  0.00    +0.000 A 
ATOM      6  O   UNL     1       3.515   7.103  17.661  0.00  0.00    +0.000 OA
ATOM      7  N   UNL     1       2.242   7.666  19.545  0.00  0.00    +0.000 N 
ATOM      8  C   UNL     1       1.346   8.578  20.180  0.00  0.00    +0.000 A 
ATOM      9  C   UNL     1       1.044   9.738  19.535  0.00  0.00    +0.000 A 
ATOM     10  C   UNL     1       0.140  10.974  19.741  0.00  0.00    +0.000 C 
ENDROOT
BRANCH   1  11
ATOM     11  S   UNL     1       1.981  13.070  19.699  0.00  0.00    +0.000 S 
ATOM     12  O   UNL     1       2.106  12.848  21.245  0.00  0.00    +0.000 OA
BRANCH  11  14
ATOM     13  C   UNL     1       1.081  15.390  20.867  0.00  0.00    +0.000 C 
ATOM     14  C   UNL     1       1.185  14.759  19.461  0.00  0.00    +0.000 C 
ATOM     15  C   UNL     1      -0.219  14.664  18.857  0.00  0.00    +0.000 C 
ATOM     16  C   UNL     1       2.075  15.675  18.613  0.00  0.00    +0.000 C 
ENDBRANCH  11  14
ENDBRANCH   1  11
BRANCH   7  17
ATOM     17  C   UNL     1       2.733   6.441  20.183  0.00  0.00    +0.000 C 
BRANCH  17  18
ATOM     18  C   UNL     1       2.044   5.164  19.722  0.00  0.00    +0.000 A 
ATOM     19  C   UNL     1       2.022   4.741  18.382  0.00  0.00    +0.000 A 
ATOM     20  C   UNL     1       1.325   3.592  18.003  0.00  0.00    +0.000 A 
ATOM     21  C   UNL     1       0.641   2.843  18.956  0.00  0.00    +0.000 A 
ATOM     22  C   UNL     1       0.668   3.234  20.292  0.00  0.00    +0.000 A 
ATOM     23  C   UNL     1       1.366   4.384  20.673  0.00  0.00    +0.000 A 
ENDBRANCH  17  18
ENDBRANCH   7  17
BRANCH   8  24
ATOM     24  C   UNL     1       0.647   8.132  21.460  0.00  0.00    +0.000 C 
BRANCH  24  25
ATOM     25  C   UNL     1       0.891   8.901  22.762  0.00  0.00    +0.000 C 
BRANCH  25  26
ATOM     26  O   UNL     1       2.214   9.397  22.845  0.00  0.00    +0.000 OA
ATOM     27  H   UNL     1       2.692   8.829  23.475  0.00  0.00    +0.000 HD
ENDBRANCH  25  26
ENDBRANCH  24  25
ENDBRANCH   8  24
BRANCH  10  28
ATOM     28  C   UNL     1      -0.439  11.362  21.113  0.00  0.00    +0.000 C 
BRANCH  28  29
ATOM     29  C   UNL     1      -1.844  11.965  21.033  0.00  0.00    +0.000 C 
BRANCH  29  30
ATOM     30  O   UNL     1      -2.237  12.130  19.670  0.00  0.00    +0.000 OA
ATOM     31  H   UNL     1      -1.547  11.705  19.132  0.00  0.00    +0.000 HD
ENDBRANCH  29  30
ENDBRANCH  28  29
ENDBRANCH  10  28
TORSDOF 10
ENDMDL
MODEL 7
REMARK VINA RESULT:      -5.6      3.162      7.607
REMARK  Name = 
REMARK  13 active torsions:
REMARK  status: ('A' for Active; 'I' for Inactive)
REMARK    1  A    between atoms: C_1  and  C_2
REMARK    2  A    between atoms: C_2  and  C_3
REMARK    3  A    between atoms: C_2  and  C_4
REMARK    4  A    between atoms: C_2  and  S_5
REMARK    5  A    between atoms: S_5  and  N_7
REMARK    6  A    between atoms: N_13  and  C_14
REMARK    7  A    between atoms: C_14  and  C_15
REMARK    8  A    between atoms: C_21  and  C_22
REMARK    9  A    between atoms: C_22  and  C_23
REMARK   10  A    between atoms: C_23  and  O_24
REMARK   11  A    between atoms: C_26  and  C_27
REMARK   12  A    between atoms: C_27  and  C_28
REMARK   13  A    between atoms: C_28  and  O_29
REMARK                            x       y       z     vdW  Elec       q    Type
REMARK                         _______ _______ _______ _____ _____    ______ ____
ROOT
ATOM      1  N   UNL     1      -0.484  12.487  19.764  0.00  0.00    +0.000 NA
ATOM      2  C   UNL     1      -0.323  11.893  18.418  0.00  0.00    +0.000 C 
ATOM      3  C   UNL     1       0.446  10.638  18.615  0.00  0.00    +0.000 A 
ATOM      4  C   UNL     1       1.153  10.006  17.685  0.00  0.00    +0.000 A 
ATOM      5  C   UNL     1       1.895   8.798  18.064  0.00  0.00    +0.000 A 
ATOM      6  O   UNL     1       2.519   8.210  17.184  0.00  0.00    +0.000 OA
ATOM      7  N   UNL     1       1.852   8.426  19.419  0.00  0.00    +0.000 N 
ATOM      8  C   UNL     1       1.062   9.107  20.393  0.00  0.00    +0.000 A 
ATOM      9  C   UNL     1       0.358  10.204  19.997  0.00  0.00    +0.000 A 
ATOM     10  C   UNL     1      -0.638  11.218  20.602  0.00  0.00    +0.000 C 
ENDROOT
BRANCH   1  11
ATOM     11  S   UNL     1       0.671  13.649  20.203  0.00  0.00    +0.000 S 
ATOM     12  O   UNL     1       1.191  13.512  21.674  0.00  0.00    +0.000 OA
BRANCH  11  14
ATOM     13  C   UNL     1      -0.224  15.805  18.750  0.00  0.00    +0.000 C 
ATOM     14  C   UNL     1      -0.407  15.192  20.155  0.00  0.00    +0.000 C 
ATOM     15  C   UNL     1       0.008  16.227  21.205  0.00  0.00    +0.000 C 
ATOM     16  C   UNL     1      -1.890  14.833  20.309  0.00  0.00    +0.000 C 
ENDBRANCH  11  14
ENDBRANCH   1  11
BRANCH   7  17
ATOM     17  C   UNL     1       2.740   7.305  19.742  0.00  0.00    +0.000 C 
BRANCH  17  18
ATOM     18  C   UNL     1       2.140   5.927  19.494  0.00  0.00    +0.000 A 
ATOM     19  C   UNL     1       2.117   5.312  18.231  0.00  0.00    +0.000 A 
ATOM     20  C   UNL     1       1.503   4.072  18.047  0.00  0.00    +0.000 A 
ATOM     21  C   UNL     1       0.903   3.423  19.122  0.00  0.00    +0.000 A 
ATOM     22  C   UNL     1       0.933   4.006  20.386  0.00  0.00    +0.000 A 
ATOM     23  C   UNL     1       1.549   5.247  20.572  0.00  0.00    +0.000 A 
ENDBRANCH  17  18
ENDBRANCH   7  17
BRANCH   8  24
ATOM     24  C   UNL     1       0.914   8.478  21.773  0.00  0.00    +0.000 C 
BRANCH  24  25
ATOM     25  C   UNL     1       1.576   9.145  22.984  0.00  0.00    +0.000 C 
BRANCH  25  26
ATOM     26  O   UNL     1       0.639   9.451  24.000  0.00  0.00    +0.000 OA
ATOM     27  H   UNL     1       1.148   9.693  24.793  0.00  0.00    +0.000 HD
ENDBRANCH  25  26
ENDBRANCH  24  25
ENDBRANCH   8  24
BRANCH  10  28
ATOM     28  C   UNL     1      -0.798  11.425  22.119  0.00  0.00    +0.000 C 
BRANCH  28  29
ATOM     29  C   UNL     1      -2.089  12.153  22.503  0.00  0.00    +0.000 C 
BRANCH  29  30
ATOM     30  O   UNL     1      -2.786  11.426  23.515  0.00  0.00    +0.000 OA
ATOM     31  H   UNL     1      -2.650  11.913  24.346  0.00  0.00    +0.000 HD
ENDBRANCH  29  30
ENDBRANCH  28  29
ENDBRANCH  10  28
TORSDOF 10
ENDMDL
MODEL 8
REMARK VINA RESULT:      -5.6      3.235      7.797
REMARK  Name = 
REMARK  13 active torsions:
REMARK  status: ('A' for Active; 'I' for Inactive)
REMARK    1  A    between atoms: C_1  and  C_2
REMARK    2  A    between atoms: C_2  and  C_3
REMARK    3  A    between atoms: C_2  and  C_4
REMARK    4  A    between atoms: C_2  and  S_5
REMARK    5  A    between atoms: S_5  and  N_7
REMARK    6  A    between atoms: N_13  and  C_14
REMARK    7  A    between atoms: C_14  and  C_15
REMARK    8  A    between atoms: C_21  and  C_22
REMARK    9  A    between atoms: C_22  and  C_23
REMARK   10  A    between atoms: C_23  and  O_24
REMARK   11  A    between atoms: C_26  and  C_27
REMARK   12  A    between atoms: C_27  and  C_28
REMARK   13  A    between atoms: C_28  and  O_29
REMARK                            x       y       z     vdW  Elec       q    Type
REMARK                         _______ _______ _______ _____ _____    ______ ____
ROOT
ATOM      1  N   UNL     1      -0.882  12.525  20.057  0.00  0.00    +0.000 NA
ATOM      2  C   UNL     1      -0.737  12.008  18.678  0.00  0.00    +0.000 C 
ATOM      3  C   UNL     1       0.106  10.791  18.786  0.00  0.00    +0.000 A 
ATOM      4  C   UNL     1       0.814  10.246  17.802  0.00  0.00    +0.000 A 
ATOM      5  C   UNL     1       1.633   9.065  18.095  0.00  0.00    +0.000 A 
ATOM      6  O   UNL     1       2.257   8.557  17.165  0.00  0.00    +0.000 OA
ATOM      7  N   UNL     1       1.660   8.625  19.430  0.00  0.00    +0.000 N 
ATOM      8  C   UNL     1       0.869   9.213  20.462  0.00  0.00    +0.000 A 
ATOM      9  C   UNL     1       0.092  10.286  20.147  0.00  0.00    +0.000 A 
ATOM     10  C   UNL     1      -0.936  11.210  20.835  0.00  0.00    +0.000 C 
ENDROOT
BRANCH   1  11
ATOM     11  S   UNL     1       0.222  13.729  20.516  0.00  0.00    +0.000 S 
ATOM     12  O   UNL     1       0.695  13.630  22.006  0.00  0.00    +0.000 OA
BRANCH  11  14
ATOM     13  C   UNL     1      -2.346  14.699  20.356  0.00  0.00    +0.000 C 
ATOM     14  C   UNL     1      -0.899  15.237  20.406  0.00  0.00    +0.000 C 
ATOM     15  C   UNL     1      -0.638  16.070  19.148  0.00  0.00    +0.000 C 
ATOM     16  C   UNL     1      -0.777  16.108  21.662  0.00  0.00    +0.000 C 
ENDBRANCH  11  14
ENDBRANCH   1  11
BRANCH   7  17
ATOM     17  C   UNL     1       2.620   7.543  19.665  0.00  0.00    +0.000 C 
BRANCH  17  18
ATOM     18  C   UNL     1       2.045   6.140  19.515  0.00  0.00    +0.000 A 
ATOM     19  C   UNL     1       1.492   5.415  20.584  0.00  0.00    +0.000 A 
ATOM     20  C   UNL     1       1.031   4.109  20.404  0.00  0.00    +0.000 A 
ATOM     21  C   UNL     1       1.113   3.506  19.153  0.00  0.00    +0.000 A 
ATOM     22  C   UNL     1       1.638   4.215  18.076  0.00  0.00    +0.000 A 
ATOM     23  C   UNL     1       2.099   5.523  18.254  0.00  0.00    +0.000 A 
ENDBRANCH  17  18
ENDBRANCH   7  17
BRANCH   8  24
ATOM     24  C   UNL     1       0.806   8.509  21.814  0.00  0.00    +0.000 C 
BRANCH  24  25
ATOM     25  C   UNL     1       1.609   9.066  22.994  0.00  0.00    +0.000 C 
BRANCH  25  26
ATOM     26  O   UNL     1       0.770   9.474  24.060  0.00  0.00    +0.000 OA
ATOM     27  H   UNL     1      -0.123   9.587  23.692  0.00  0.00    +0.000 HD
ENDBRANCH  25  26
ENDBRANCH  24  25
ENDBRANCH   8  24
BRANCH  10  28
ATOM     28  C   UNL     1      -1.052  11.334  22.365  0.00  0.00    +0.000 C 
BRANCH  28  29
ATOM     29  C   UNL     1      -2.341  12.021  22.825  0.00  0.00    +0.000 C 
BRANCH  29  30
ATOM     30  O   UNL     1      -2.039  13.241  23.501  0.00  0.00    +0.000 OA
ATOM     31  H   UNL     1      -2.270  13.103  24.436  0.00  0.00    +0.000 HD
ENDBRANCH  29  30
ENDBRANCH  28  29
ENDBRANCH  10  28
TORSDOF 10
ENDMDL
MODEL 9
REMARK VINA RESULT:      -5.6      3.089      7.372
REMARK  Name = 
REMARK  13 active torsions:
REMARK  status: ('A' for Active; 'I' for Inactive)
REMARK    1  A    between atoms: C_1  and  C_2
REMARK    2  A    between atoms: C_2  and  C_3
REMARK    3  A    between atoms: C_2  and  C_4
REMARK    4  A    between atoms: C_2  and  S_5
REMARK    5  A    between atoms: S_5  and  N_7
REMARK    6  A    between atoms: N_13  and  C_14
REMARK    7  A    between atoms: C_14  and  C_15
REMARK    8  A    between atoms: C_21  and  C_22
REMARK    9  A    between atoms: C_22  and  C_23
REMARK   10  A    between atoms: C_23  and  O_24
REMARK   11  A    between atoms: C_26  and  C_27
REMARK   12  A    between atoms: C_27  and  C_28
REMARK   13  A    between atoms: C_28  and  O_29
REMARK                            x       y       z     vdW  Elec       q    Type
REMARK                         _______ _______ _______ _____ _____    ______ ____
ROOT
ATOM      1  N   UNL     1       0.698  12.126  19.172  0.00  0.00    +0.000 NA
ATOM      2  C   UNL     1       1.010  11.421  17.909  0.00  0.00    +0.000 C 
ATOM      3  C   UNL     1       1.499  10.076  18.304  0.00  0.00    +0.000 A 
ATOM      4  C   UNL     1       2.253   9.274  17.560  0.00  0.00    +0.000 A 
ATOM      5  C   UNL     1       2.690   7.993  18.126  0.00  0.00    +0.000 A 
ATOM      6  O   UNL     1       3.361   7.251  17.412  0.00  0.00    +0.000 OA
ATOM      7  N   UNL     1       2.324   7.729  19.457  0.00  0.00    +0.000 N 
ATOM      8  C   UNL     1       1.492   8.596  20.226  0.00  0.00    +0.000 A 
ATOM      9  C   UNL     1       1.075   9.761  19.656  0.00  0.00    +0.000 A 
ATOM     10  C   UNL     1       0.170  10.961  20.009  0.00  0.00    +0.000 C 
ENDROOT
BRANCH   1  11
ATOM     11  S   UNL     1       1.929  13.116  19.790  0.00  0.00    +0.000 S 
ATOM     12  O   UNL     1       2.255  12.865  21.302  0.00  0.00    +0.000 OA
BRANCH  11  14
ATOM     13  C   UNL     1      -0.251  14.549  18.919  0.00  0.00    +0.000 C 
ATOM     14  C   UNL     1       1.062  14.785  19.698  0.00  0.00    +0.000 C 
ATOM     15  C   UNL     1       1.894  15.836  18.957  0.00  0.00    +0.000 C 
ATOM     16  C   UNL     1       0.681  15.287  21.096  0.00  0.00    +0.000 C 
ENDBRANCH  11  14
ENDBRANCH   1  11
BRANCH   7  17
ATOM     17  C   UNL     1       2.929   6.506  19.994  0.00  0.00    +0.000 C 
BRANCH  17  18
ATOM     18  C   UNL     1       2.174   5.226  19.662  0.00  0.00    +0.000 A 
ATOM     19  C   UNL     1       2.022   4.737  18.353  0.00  0.00    +0.000 A 
ATOM     20  C   UNL     1       1.270   3.589  18.098  0.00  0.00    +0.000 A 
ATOM     21  C   UNL     1       0.658   2.907  19.145  0.00  0.00    +0.000 A 
ATOM     22  C   UNL     1       0.814   3.362  20.452  0.00  0.00    +0.000 A 
ATOM     23  C   UNL     1       1.568   4.511  20.709  0.00  0.00    +0.000 A 
ENDBRANCH  17  18
ENDBRANCH   7  17
BRANCH   8  24
ATOM     24  C   UNL     1       0.975   8.098  21.571  0.00  0.00    +0.000 C 
BRANCH  24  25
ATOM     25  C   UNL     1      -0.535   8.036  21.826  0.00  0.00    +0.000 C 
BRANCH  25  26
ATOM     26  O   UNL     1      -0.883   8.585  23.084  0.00  0.00    +0.000 OA
ATOM     27  H   UNL     1      -1.135   9.512  22.930  0.00  0.00    +0.000 HD
ENDBRANCH  25  26
ENDBRANCH  24  25
ENDBRANCH   8  24
BRANCH  10  28
ATOM     28  C   UNL     1      -0.240  11.298  21.455  0.00  0.00    +0.000 C 
BRANCH  28  29
ATOM     29  C   UNL     1      -1.468  12.208  21.544  0.00  0.00    +0.000 C 
BRANCH  29  30
ATOM     30  O   UNL     1      -2.269  12.077  20.369  0.00  0.00    +0.000 OA
ATOM     31  H   UNL     1      -1.670  12.196  19.612  0.00  0.00    +0.000 HD
ENDBRANCH  29  30
ENDBRANCH  28  29
ENDBRANCH  10  28
TORSDOF 10
ENDMDL
