MODEL 1
REMARK VINA RESULT:      -6.0      0.000      0.000
REMARK  Name = 
REMARK  7 active torsions:
REMARK  status: ('A' for Active; 'I' for Inactive)
REMARK    1  A    between atoms: C_2  and  C_3
REMARK    2  A    between atoms: C_2  and  C_10
REMARK    3  A    between atoms: C_3  and  P_4
REMARK    4  A    between atoms: P_4  and  C_6
REMARK    5  A    between atoms: P_4  and  C_8
REMARK    6  A    between atoms: C_6  and  O_7
REMARK    7  A    between atoms: C_8  and  O_9
REMARK                            x       y       z     vdW  Elec       q    Type
REMARK                         _______ _______ _______ _____ _____    ______ ____
ROOT
ATOM      1  O   UNL     1       4.822   4.307  14.828  0.00  0.00    +0.000 OA
ATOM      2  C   UNL     1       5.171   4.224  16.007  0.00  0.00    +0.000 C 
ENDROOT
BRANCH   2   3
ATOM      3  C   UNL     1       4.132   4.093  17.085  0.00  0.00    +0.000 A 
ATOM      4  C   UNL     1       3.483   5.256  17.522  0.00  0.00    +0.000 A 
ATOM      5  C   UNL     1       2.495   5.192  18.512  0.00  0.00    +0.000 A 
ATOM      6  C   UNL     1       2.154   3.965  19.072  0.00  0.00    +0.000 A 
ATOM      7 CL   UNL     1       0.933   3.880  20.281  0.00  0.00    +0.000 Cl
ATOM      8  C   UNL     1       2.793   2.804  18.654  0.00  0.00    +0.000 A 
ATOM      9  C   UNL     1       3.772   2.865  17.658  0.00  0.00    +0.000 A 
ENDBRANCH   2   3
BRANCH   2  10
ATOM     10  C   UNL     1       6.632   4.276  16.370  0.00  0.00    +0.000 C 
BRANCH  10  11
ATOM     11  P   UNL     1       7.074   4.977  18.002  0.00  0.00    +0.000 P 
ATOM     12  O   UNL     1       8.408   4.199  18.013  0.00  0.00    +0.000 OA
BRANCH  11  13
ATOM     13  C   UNL     1       7.333   6.697  17.212  0.00  0.00    +0.000 C 
BRANCH  13  14
ATOM     14  O   UNL     1       8.015   7.473  18.200  0.00  0.00    +0.000 OA
ATOM     15  H   UNL     1       8.913   7.097  18.270  0.00  0.00    +0.000 HD
ENDBRANCH  13  14
ENDBRANCH  11  13
BRANCH  11  16
ATOM     16  C   UNL     1       7.515   5.680  19.633  0.00  0.00    +0.000 C 
BRANCH  16  17
ATOM     17  O   UNL     1       8.754   5.123  20.075  0.00  0.00    +0.000 OA
ATOM     18  H   UNL     1       8.775   4.236  19.647  0.00  0.00    +0.000 HD
ENDBRANCH  16  17
ENDBRANCH  11  16
ENDBRANCH  10  11
ENDBRANCH   2  10
TORSDOF 7
ENDMDL
MODEL 2
REMARK VINA RESULT:      -5.9      3.247      4.291
REMARK  Name = 
REMARK  7 active torsions:
REMARK  status: ('A' for Active; 'I' for Inactive)
REMARK    1  A    between atoms: C_2  and  C_3
REMARK    2  A    between atoms: C_2  and  C_10
REMARK    3  A    between atoms: C_3  and  P_4
REMARK    4  A    between atoms: P_4  and  C_6
REMARK    5  A    between atoms: P_4  and  C_8
REMARK    6  A    between atoms: C_6  and  O_7
REMARK    7  A    between atoms: C_8  and  O_9
REMARK                            x       y       z     vdW  Elec       q    Type
REMARK                         _______ _______ _______ _____ _____    ______ ____
ROOT
ATOM      1  O   UNL     1       2.941   5.369  17.683  0.00  0.00    +0.000 OA
ATOM      2  C   UNL     1       3.354   6.511  17.893  0.00  0.00    +0.000 C 
ENDROOT
BRANCH   2   3
ATOM      3  C   UNL     1       2.471   7.509  18.586  0.00  0.00    +0.000 A 
ATOM      4  C   UNL     1       1.962   8.577  17.832  0.00  0.00    +0.000 A 
ATOM      5  C   UNL     1       1.120   9.528  18.421  0.00  0.00    +0.000 A 
ATOM      6  C   UNL     1       0.786   9.418  19.767  0.00  0.00    +0.000 A 
ATOM      7 CL   UNL     1      -0.256  10.579  20.493  0.00  0.00    +0.000 Cl
ATOM      8  C   UNL     1       1.287   8.370  20.529  0.00  0.00    +0.000 A 
ATOM      9  C   UNL     1       2.119   7.413  19.940  0.00  0.00    +0.000 A 
ENDBRANCH   2   3
BRANCH   2  10
ATOM     10  C   UNL     1       4.733   6.912  17.437  0.00  0.00    +0.000 C 
BRANCH  10  11
ATOM     11  P   UNL     1       5.839   5.590  16.821  0.00  0.00    +0.000 P 
ATOM     12  O   UNL     1       6.841   6.634  16.279  0.00  0.00    +0.000 OA
BRANCH  11  13
ATOM     13  C   UNL     1       6.301   5.119  18.613  0.00  0.00    +0.000 C 
BRANCH  13  14
ATOM     14  O   UNL     1       5.886   3.760  18.771  0.00  0.00    +0.000 OA
ATOM     15  H   UNL     1       6.183   3.485  19.659  0.00  0.00    +0.000 HD
ENDBRANCH  13  14
ENDBRANCH  11  13
BRANCH  11  16
ATOM     16  C   UNL     1       6.944   4.268  16.207  0.00  0.00    +0.000 C 
BRANCH  16  17
ATOM     17  O   UNL     1       8.065   4.134  17.083  0.00  0.00    +0.000 OA
ATOM     18  H   UNL     1       8.520   5.006  17.012  0.00  0.00    +0.000 HD
ENDBRANCH  16  17
ENDBRANCH  11  16
ENDBRANCH  10  11
ENDBRANCH   2  10
TORSDOF 7
ENDMDL
MODEL 3
REMARK VINA RESULT:      -5.8      3.287      4.416
REMARK  Name = 
REMARK  7 active torsions:
REMARK  status: ('A' for Active; 'I' for Inactive)
REMARK    1  A    between atoms: C_2  and  C_3
REMARK    2  A    between atoms: C_2  and  C_10
REMARK    3  A    between atoms: C_3  and  P_4
REMARK    4  A    between atoms: P_4  and  C_6
REMARK    5  A    between atoms: P_4  and  C_8
REMARK    6  A    between atoms: C_6  and  O_7
REMARK    7  A    between atoms: C_8  and  O_9
REMARK                            x       y       z     vdW  Elec       q    Type
REMARK                         _______ _______ _______ _____ _____    ______ ____
ROOT
ATOM      1  O   UNL     1       2.873   5.357  17.768  0.00  0.00    +0.000 OA
ATOM      2  C   UNL     1       3.289   6.511  17.873  0.00  0.00    +0.000 C 
ENDROOT
BRANCH   2   3
ATOM      3  C   UNL     1       2.437   7.555  18.537  0.00  0.00    +0.000 A 
ATOM      4  C   UNL     1       2.130   7.393  19.896  0.00  0.00    +0.000 A 
ATOM      5  C   UNL     1       1.354   8.342  20.570  0.00  0.00    +0.000 A 
ATOM      6  C   UNL     1       0.876   9.457  19.888  0.00  0.00    +0.000 A 
ATOM      7 CL   UNL     1      -0.069  10.632  20.715  0.00  0.00    +0.000 Cl
ATOM      8  C   UNL     1       1.166   9.630  18.540  0.00  0.00    +0.000 A 
ATOM      9  C   UNL     1       1.950   8.687  17.868  0.00  0.00    +0.000 A 
ENDBRANCH   2   3
BRANCH   2  10
ATOM     10  C   UNL     1       4.639   6.882  17.317  0.00  0.00    +0.000 C 
BRANCH  10  11
ATOM     11  P   UNL     1       5.746   5.519  16.801  0.00  0.00    +0.000 P 
ATOM     12  O   UNL     1       6.793   6.523  16.272  0.00  0.00    +0.000 OA
BRANCH  11  13
ATOM     13  C   UNL     1       6.113   5.101  18.627  0.00  0.00    +0.000 C 
BRANCH  13  14
ATOM     14  O   UNL     1       5.774   3.721  18.780  0.00  0.00    +0.000 OA
ATOM     15  H   UNL     1       6.382   3.364  19.456  0.00  0.00    +0.000 HD
ENDBRANCH  13  14
ENDBRANCH  11  13
BRANCH  11  16
ATOM     16  C   UNL     1       6.851   4.155  16.285  0.00  0.00    +0.000 C 
BRANCH  16  17
ATOM     17  O   UNL     1       8.035   4.170  17.083  0.00  0.00    +0.000 OA
ATOM     18  H   UNL     1       7.759   3.722  17.916  0.00  0.00    +0.000 HD
ENDBRANCH  16  17
ENDBRANCH  11  16
ENDBRANCH  10  11
ENDBRANCH   2  10
TORSDOF 7
ENDMDL
MODEL 4
REMARK VINA RESULT:      -5.8      3.992      5.724
REMARK  Name = 
REMARK  7 active torsions:
REMARK  status: ('A' for Active; 'I' for Inactive)
REMARK    1  A    between atoms: C_2  and  C_3
REMARK    2  A    between atoms: C_2  and  C_10
REMARK    3  A    between atoms: C_3  and  P_4
REMARK    4  A    between atoms: P_4  and  C_6
REMARK    5  A    between atoms: P_4  and  C_8
REMARK    6  A    between atoms: C_6  and  O_7
REMARK    7  A    between atoms: C_8  and  O_9
REMARK                            x       y       z     vdW  Elec       q    Type
REMARK                         _______ _______ _______ _____ _____    ______ ____
ROOT
ATOM      1  O   UNL     1       5.613   4.507  19.226  0.00  0.00    +0.000 OA
ATOM      2  C   UNL     1       4.952   4.508  18.186  0.00  0.00    +0.000 C 
ENDROOT
BRANCH   2   3
ATOM      3  C   UNL     1       5.650   4.598  16.859  0.00  0.00    +0.000 A 
ATOM      4  C   UNL     1       4.907   4.322  15.702  0.00  0.00    +0.000 A 
ATOM      5  C   UNL     1       5.500   4.406  14.437  0.00  0.00    +0.000 A 
ATOM      6  C   UNL     1       6.840   4.762  14.322  0.00  0.00    +0.000 A 
ATOM      7 CL   UNL     1       7.571   4.877  12.769  0.00  0.00    +0.000 Cl
ATOM      8  C   UNL     1       7.592   5.033  15.460  0.00  0.00    +0.000 A 
ATOM      9  C   UNL     1       6.998   4.960  16.723  0.00  0.00    +0.000 A 
ENDBRANCH   2   3
BRANCH   2  10
ATOM     10  C   UNL     1       3.448   4.445  18.245  0.00  0.00    +0.000 C 
BRANCH  10  11
ATOM     11  P   UNL     1       2.695   3.478  19.605  0.00  0.00    +0.000 P 
ATOM     12  O   UNL     1       1.303   3.563  18.940  0.00  0.00    +0.000 OA
BRANCH  11  13
ATOM     13  C   UNL     1       3.601   1.905  19.013  0.00  0.00    +0.000 C 
BRANCH  13  14
ATOM     14  O   UNL     1       4.767   1.803  19.834  0.00  0.00    +0.000 OA
ATOM     15  H   UNL     1       5.395   1.237  19.347  0.00  0.00    +0.000 HD
ENDBRANCH  13  14
ENDBRANCH  11  13
BRANCH  11  16
ATOM     16  C   UNL     1       1.943   2.512  20.965  0.00  0.00    +0.000 C 
BRANCH  16  17
ATOM     17  O   UNL     1       2.846   2.456  22.069  0.00  0.00    +0.000 OA
ATOM     18  H   UNL     1       3.080   3.400  22.225  0.00  0.00    +0.000 HD
ENDBRANCH  16  17
ENDBRANCH  11  16
ENDBRANCH  10  11
ENDBRANCH   2  10
TORSDOF 7
ENDMDL
MODEL 5
REMARK VINA RESULT:      -5.8      4.167      5.865
REMARK  Name = 
REMARK  7 active torsions:
REMARK  status: ('A' for Active; 'I' for Inactive)
REMARK    1  A    between atoms: C_2  and  C_3
REMARK    2  A    between atoms: C_2  and  C_10
REMARK    3  A    between atoms: C_3  and  P_4
REMARK    4  A    between atoms: P_4  and  C_6
REMARK    5  A    between atoms: P_4  and  C_8
REMARK    6  A    between atoms: C_6  and  O_7
REMARK    7  A    between atoms: C_8  and  O_9
REMARK                            x       y       z     vdW  Elec       q    Type
REMARK                         _______ _______ _______ _____ _____    ______ ____
ROOT
ATOM      1  O   UNL     1       4.867   5.479  19.560  0.00  0.00    +0.000 OA
ATOM      2  C   UNL     1       4.986   4.469  18.864  0.00  0.00    +0.000 C 
ENDROOT
BRANCH   2   3
ATOM      3  C   UNL     1       5.625   4.569  17.508  0.00  0.00    +0.000 A 
ATOM      4  C   UNL     1       4.800   4.466  16.379  0.00  0.00    +0.000 A 
ATOM      5  C   UNL     1       5.338   4.568  15.091  0.00  0.00    +0.000 A 
ATOM      6  C   UNL     1       6.705   4.769  14.925  0.00  0.00    +0.000 A 
ATOM      7 CL   UNL     1       7.370   4.906  13.344  0.00  0.00    +0.000 Cl
ATOM      8  C   UNL     1       7.537   4.867  16.034  0.00  0.00    +0.000 A 
ATOM      9  C   UNL     1       6.999   4.776  17.321  0.00  0.00    +0.000 A 
ENDBRANCH   2   3
BRANCH   2  10
ATOM     10  C   UNL     1       4.471   3.143  19.360  0.00  0.00    +0.000 C 
BRANCH  10  11
ATOM     11  P   UNL     1       2.675   2.821  19.209  0.00  0.00    +0.000 P 
ATOM     12  O   UNL     1       2.938   1.359  18.786  0.00  0.00    +0.000 OA
BRANCH  11  13
ATOM     13  C   UNL     1       2.479   2.923  21.106  0.00  0.00    +0.000 C 
BRANCH  13  14
ATOM     14  O   UNL     1       2.455   4.319  21.413  0.00  0.00    +0.000 OA
ATOM     15  H   UNL     1       1.934   4.408  22.234  0.00  0.00    +0.000 HD
ENDBRANCH  13  14
ENDBRANCH  11  13
BRANCH  11  16
ATOM     16  C   UNL     1       0.880   2.501  19.058  0.00  0.00    +0.000 C 
BRANCH  16  17
ATOM     17  O   UNL     1       0.190   3.123  20.143  0.00  0.00    +0.000 OA
ATOM     18  H   UNL     1       0.743   3.913  20.347  0.00  0.00    +0.000 HD
ENDBRANCH  16  17
ENDBRANCH  11  16
ENDBRANCH  10  11
ENDBRANCH   2  10
TORSDOF 7
ENDMDL
MODEL 6
REMARK VINA RESULT:      -5.8      1.131      1.665
REMARK  Name = 
REMARK  7 active torsions:
REMARK  status: ('A' for Active; 'I' for Inactive)
REMARK    1  A    between atoms: C_2  and  C_3
REMARK    2  A    between atoms: C_2  and  C_10
REMARK    3  A    between atoms: C_3  and  P_4
REMARK    4  A    between atoms: P_4  and  C_6
REMARK    5  A    between atoms: P_4  and  C_8
REMARK    6  A    between atoms: C_6  and  O_7
REMARK    7  A    between atoms: C_8  and  O_9
REMARK                            x       y       z     vdW  Elec       q    Type
REMARK                         _______ _______ _______ _____ _____    ______ ____
ROOT
ATOM      1  O   UNL     1       4.331   4.372  15.578  0.00  0.00    +0.000 OA
ATOM      2  C   UNL     1       4.848   4.077  16.657  0.00  0.00    +0.000 C 
ENDROOT
BRANCH   2   3
ATOM      3  C   UNL     1       3.980   3.836  17.859  0.00  0.00    +0.000 A 
ATOM      4  C   UNL     1       3.710   2.509  18.225  0.00  0.00    +0.000 A 
ATOM      5  C   UNL     1       2.921   2.225  19.346  0.00  0.00    +0.000 A 
ATOM      6  C   UNL     1       2.396   3.266  20.105  0.00  0.00    +0.000 A 
ATOM      7 CL   UNL     1       1.435   2.921  21.490  0.00  0.00    +0.000 Cl
ATOM      8  C   UNL     1       2.649   4.586  19.753  0.00  0.00    +0.000 A 
ATOM      9  C   UNL     1       3.445   4.871  18.640  0.00  0.00    +0.000 A 
ENDBRANCH   2   3
BRANCH   2  10
ATOM     10  C   UNL     1       6.346   3.981  16.777  0.00  0.00    +0.000 C 
BRANCH  10  11
ATOM     11  P   UNL     1       7.158   4.993  18.068  0.00  0.00    +0.000 P 
ATOM     12  O   UNL     1       8.453   4.157  17.958  0.00  0.00    +0.000 OA
BRANCH  11  13
ATOM     13  C   UNL     1       7.243   6.481  16.874  0.00  0.00    +0.000 C 
BRANCH  13  14
ATOM     14  O   UNL     1       7.615   5.934  15.607  0.00  0.00    +0.000 OA
ATOM     15  H   UNL     1       8.538   6.212  15.450  0.00  0.00    +0.000 HD
ENDBRANCH  13  14
ENDBRANCH  11  13
BRANCH  11  16
ATOM     16  C   UNL     1       7.969   6.005  19.359  0.00  0.00    +0.000 C 
BRANCH  16  17
ATOM     17  O   UNL     1       8.137   5.225  20.544  0.00  0.00    +0.000 OA
ATOM     18  H   UNL     1       7.339   5.443  21.080  0.00  0.00    +0.000 HD
ENDBRANCH  16  17
ENDBRANCH  11  16
ENDBRANCH  10  11
ENDBRANCH   2  10
TORSDOF 7
ENDMDL
MODEL 7
REMARK VINA RESULT:      -5.7      4.109      5.865
REMARK  Name = 
REMARK  7 active torsions:
REMARK  status: ('A' for Active; 'I' for Inactive)
REMARK    1  A    between atoms: C_2  and  C_3
REMARK    2  A    between atoms: C_2  and  C_10
REMARK    3  A    between atoms: C_3  and  P_4
REMARK    4  A    between atoms: P_4  and  C_6
REMARK    5  A    between atoms: P_4  and  C_8
REMARK    6  A    between atoms: C_6  and  O_7
REMARK    7  A    between atoms: C_8  and  O_9
REMARK                            x       y       z     vdW  Elec       q    Type
REMARK                         _______ _______ _______ _____ _____    ______ ____
ROOT
ATOM      1  O   UNL     1       6.232   4.397  19.419  0.00  0.00    +0.000 OA
ATOM      2  C   UNL     1       5.388   4.666  18.563  0.00  0.00    +0.000 C 
ENDROOT
BRANCH   2   3
ATOM      3  C   UNL     1       5.760   4.623  17.108  0.00  0.00    +0.000 A 
ATOM      4  C   UNL     1       7.078   4.943  16.753  0.00  0.00    +0.000 A 
ATOM      5  C   UNL     1       7.486   4.904  15.414  0.00  0.00    +0.000 A 
ATOM      6  C   UNL     1       6.576   4.548  14.424  0.00  0.00    +0.000 A 
ATOM      7 CL   UNL     1       7.075   4.488  12.778  0.00  0.00    +0.000 Cl
ATOM      8  C   UNL     1       5.265   4.234  14.758  0.00  0.00    +0.000 A 
ATOM      9  C   UNL     1       4.859   4.263  16.096  0.00  0.00    +0.000 A 
ENDBRANCH   2   3
BRANCH   2  10
ATOM     10  C   UNL     1       3.992   5.059  18.973  0.00  0.00    +0.000 C 
BRANCH  10  11
ATOM     11  P   UNL     1       2.907   3.747  19.645  0.00  0.00    +0.000 P 
ATOM     12  O   UNL     1       2.476   4.656  20.817  0.00  0.00    +0.000 OA
BRANCH  11  13
ATOM     13  C   UNL     1       1.703   3.967  18.178  0.00  0.00    +0.000 C 
BRANCH  13  14
ATOM     14  O   UNL     1       0.878   2.800  18.182  0.00  0.00    +0.000 OA
ATOM     15  H   UNL     1       0.340   2.848  18.995  0.00  0.00    +0.000 HD
ENDBRANCH  13  14
ENDBRANCH  11  13
BRANCH  11  16
ATOM     16  C   UNL     1       1.822   2.435  20.315  0.00  0.00    +0.000 C 
BRANCH  16  17
ATOM     17  O   UNL     1       0.764   3.028  21.071  0.00  0.00    +0.000 OA
ATOM     18  H   UNL     1       0.253   3.534  20.397  0.00  0.00    +0.000 HD
ENDBRANCH  16  17
ENDBRANCH  11  16
ENDBRANCH  10  11
ENDBRANCH   2  10
TORSDOF 7
ENDMDL
MODEL 8
REMARK VINA RESULT:      -5.7      4.096      5.939
REMARK  Name = 
REMARK  7 active torsions:
REMARK  status: ('A' for Active; 'I' for Inactive)
REMARK    1  A    between atoms: C_2  and  C_3
REMARK    2  A    between atoms: C_2  and  C_10
REMARK    3  A    between atoms: C_3  and  P_4
REMARK    4  A    between atoms: P_4  and  C_6
REMARK    5  A    between atoms: P_4  and  C_8
REMARK    6  A    between atoms: C_6  and  O_7
REMARK    7  A    between atoms: C_8  and  O_9
REMARK                            x       y       z     vdW  Elec       q    Type
REMARK                         _______ _______ _______ _____ _____    ______ ____
ROOT
ATOM      1  O   UNL     1       5.446   3.137  19.390  0.00  0.00    +0.000 OA
ATOM      2  C   UNL     1       5.023   4.040  18.666  0.00  0.00    +0.000 C 
ENDROOT
BRANCH   2   3
ATOM      3  C   UNL     1       5.665   4.289  17.331  0.00  0.00    +0.000 A 
ATOM      4  C   UNL     1       4.871   4.167  16.182  0.00  0.00    +0.000 A 
ATOM      5  C   UNL     1       5.412   4.403  14.913  0.00  0.00    +0.000 A 
ATOM      6  C   UNL     1       6.751   4.760  14.786  0.00  0.00    +0.000 A 
ATOM      7 CL   UNL     1       7.418   5.062  13.229  0.00  0.00    +0.000 Cl
ATOM      8  C   UNL     1       7.553   4.879  15.914  0.00  0.00    +0.000 A 
ATOM      9  C   UNL     1       7.011   4.654  17.183  0.00  0.00    +0.000 A 
ENDBRANCH   2   3
BRANCH   2  10
ATOM     10  C   UNL     1       3.881   4.908  19.127  0.00  0.00    +0.000 C 
BRANCH  10  11
ATOM     11  P   UNL     1       2.540   4.106  20.082  0.00  0.00    +0.000 P 
ATOM     12  O   UNL     1       1.755   5.433  20.159  0.00  0.00    +0.000 OA
BRANCH  11  13
ATOM     13  C   UNL     1       2.002   3.123  18.535  0.00  0.00    +0.000 C 
BRANCH  13  14
ATOM     14  O   UNL     1       2.511   1.802  18.724  0.00  0.00    +0.000 OA
ATOM     15  H   UNL     1       1.739   1.236  18.916  0.00  0.00    +0.000 HD
ENDBRANCH  13  14
ENDBRANCH  11  13
BRANCH  11  16
ATOM     16  C   UNL     1       1.201   3.303  21.036  0.00  0.00    +0.000 C 
BRANCH  16  17
ATOM     17  O   UNL     1       0.174   2.866  20.144  0.00  0.00    +0.000 OA
ATOM     18  H   UNL     1      -0.345   2.225  20.684  0.00  0.00    +0.000 HD
ENDBRANCH  16  17
ENDBRANCH  11  16
ENDBRANCH  10  11
ENDBRANCH   2  10
TORSDOF 7
ENDMDL
MODEL 9
REMARK VINA RESULT:      -5.7      1.892      2.558
REMARK  Name = 
REMARK  7 active torsions:
REMARK  status: ('A' for Active; 'I' for Inactive)
REMARK    1  A    between atoms: C_2  and  C_3
REMARK    2  A    between atoms: C_2  and  C_10
REMARK    3  A    between atoms: C_3  and  P_4
REMARK    4  A    between atoms: P_4  and  C_6
REMARK    5  A    between atoms: P_4  and  C_8
REMARK    6  A    between atoms: C_6  and  O_7
REMARK    7  A    between atoms: C_8  and  O_9
REMARK                            x       y       z     vdW  Elec       q    Type
REMARK                         _______ _______ _______ _____ _____    ______ ____
ROOT
ATOM      1  O   UNL     1       3.651   2.988  17.554  0.00  0.00    +0.000 OA
ATOM      2  C   UNL     1       4.127   4.109  17.743  0.00  0.00    +0.000 C 
ENDROOT
BRANCH   2   3
ATOM      3  C   UNL     1       3.353   5.125  18.533  0.00  0.00    +0.000 A 
ATOM      4  C   UNL     1       2.844   4.744  19.783  0.00  0.00    +0.000 A 
ATOM      5  C   UNL     1       2.129   5.654  20.571  0.00  0.00    +0.000 A 
ATOM      6  C   UNL     1       1.916   6.950  20.109  0.00  0.00    +0.000 A 
ATOM      7 CL   UNL     1       1.047   8.076  21.078  0.00  0.00    +0.000 Cl
ATOM      8  C   UNL     1       2.407   7.341  18.870  0.00  0.00    +0.000 A 
ATOM      9  C   UNL     1       3.131   6.436  18.088  0.00  0.00    +0.000 A 
ENDBRANCH   2   3
BRANCH   2  10
ATOM     10  C   UNL     1       5.471   4.468  17.165  0.00  0.00    +0.000 C 
BRANCH  10  11
ATOM     11  P   UNL     1       6.728   5.151  18.306  0.00  0.00    +0.000 P 
ATOM     12  O   UNL     1       7.804   4.192  17.750  0.00  0.00    +0.000 OA
BRANCH  11  13
ATOM     13  C   UNL     1       6.752   6.790  17.327  0.00  0.00    +0.000 C 
BRANCH  13  14
ATOM     14  O   UNL     1       7.635   6.566  16.226  0.00  0.00    +0.000 OA
ATOM     15  H   UNL     1       8.541   6.646  16.582  0.00  0.00    +0.000 HD
ENDBRANCH  13  14
ENDBRANCH  11  13
BRANCH  11  16
ATOM     16  C   UNL     1       7.984   5.835  19.447  0.00  0.00    +0.000 C 
BRANCH  16  17
ATOM     17  O   UNL     1       8.438   7.099  18.959  0.00  0.00    +0.000 OA
ATOM     18  H   UNL     1       8.550   6.946  17.992  0.00  0.00    +0.000 HD
ENDBRANCH  16  17
ENDBRANCH  11  16
ENDBRANCH  10  11
ENDBRANCH   2  10
TORSDOF 7
ENDMDL
