MODEL 1
REMARK VINA RESULT:      -7.2      0.000      0.000
REMARK  Name = 
REMARK  11 active torsions:
REMARK  status: ('A' for Active; 'I' for Inactive)
REMARK    1  A    between atoms: C_1  and  C_2
REMARK    2  A    between atoms: C_2  and  O_3
REMARK    3  A    between atoms: O_3  and  C_4
REMARK    4  A    between atoms: C_4  and  C_6
REMARK    5  A    between atoms: C_9  and  O_10
REMARK    6  A    between atoms: O_10  and  C_11
REMARK    7  A    between atoms: C_11  and  C_12
REMARK    8  A    between atoms: C_12  and  C_13
REMARK    9  A    between atoms: C_13  and  N_14
REMARK   10  A    between atoms: N_14  and  C_15
REMARK   11  A    between atoms: C_15  and  C_16
REMARK                            x       y       z     vdW  Elec       q    Type
REMARK                         _______ _______ _______ _____ _____    ______ ____
ROOT
ATOM      1  C   UNL     1       6.861   4.890  14.614  0.00  0.00    +0.000 A 
ATOM      2  C   UNL     1       5.722   5.434  15.176  0.00  0.00    +0.000 A 
ATOM      3  C   UNL     1       5.906   5.446  16.582  0.00  0.00    +0.000 A 
ATOM      4  C   UNL     1       5.121   5.828  17.689  0.00  0.00    +0.000 A 
ATOM      5  C   UNL     1       5.694   5.699  18.966  0.00  0.00    +0.000 A 
ATOM      6  C   UNL     1       7.002   5.228  19.136  0.00  0.00    +0.000 A 
ATOM      7  C   UNL     1       7.783   4.845  18.043  0.00  0.00    +0.000 A 
ATOM      8  C   UNL     1       7.188   4.952  16.789  0.00  0.00    +0.000 A 
ATOM      9  O   UNL     1       7.758   4.586  15.602  0.00  0.00    +0.000 OA
ENDROOT
BRANCH   1  10
ATOM     10  C   UNL     1       7.139   4.626  13.222  0.00  0.00    +0.000 C 
ATOM     11  O   UNL     1       7.695   5.410  12.470  0.00  0.00    +0.000 OA
BRANCH  10  12
ATOM     12  O   UNL     1       6.569   3.444  12.824  0.00  0.00    +0.000 OA
BRANCH  12  14
ATOM     13  C   UNL     1       4.604   3.345  11.451  0.00  0.00    +0.000 C 
ATOM     14  C   UNL     1       5.139   3.479  12.866  0.00  0.00    +0.000 C 
ENDBRANCH  12  14
ENDBRANCH  10  12
ENDBRANCH   1  10
BRANCH   4  15
ATOM     15  O   UNL     1       3.851   6.280  17.434  0.00  0.00    +0.000 OA
BRANCH  15  16
ATOM     16  C   UNL     1       3.565   7.628  17.809  0.00  0.00    +0.000 C 
BRANCH  16  17
ATOM     17  C   UNL     1       2.095   7.734  18.200  0.00  0.00    +0.000 C 
BRANCH  17  18
ATOM     18  C   UNL     1       1.940   7.680  19.720  0.00  0.00    +0.000 C 
BRANCH  18  19
ATOM     19  N   UNL     1       2.661   6.525  20.247  0.00  0.00    +0.000 NA
ATOM     20  H   UNL     1       3.111   6.773  21.129  0.00  0.00    +0.000 HD
BRANCH  19  21
ATOM     21  C   UNL     1       1.768   5.387  20.475  0.00  0.00    +0.000 C 
BRANCH  21  22
ATOM     22  C   UNL     1       2.142   4.211  19.615  0.00  0.00    +0.000 A 
ATOM     23  C   UNL     1       3.142   3.305  19.988  0.00  0.00    +0.000 A 
ATOM     24  C   UNL     1       3.445   2.226  19.162  0.00  0.00    +0.000 A 
ATOM     25  C   UNL     1       2.745   2.093  17.976  0.00  0.00    +0.000 A 
ATOM     26  N   UNL     1       1.794   2.958  17.564  0.00  0.00    +0.000 NA
ATOM     27  C   UNL     1       1.517   3.994  18.390  0.00  0.00    +0.000 A 
ENDBRANCH  21  22
ENDBRANCH  19  21
ENDBRANCH  18  19
ENDBRANCH  17  18
ENDBRANCH  16  17
ENDBRANCH  15  16
ENDBRANCH   4  15
TORSDOF 10
ENDMDL
MODEL 2
REMARK VINA RESULT:      -7.0      3.711      8.311
REMARK  Name = 
REMARK  11 active torsions:
REMARK  status: ('A' for Active; 'I' for Inactive)
REMARK    1  A    between atoms: C_1  and  C_2
REMARK    2  A    between atoms: C_2  and  O_3
REMARK    3  A    between atoms: O_3  and  C_4
REMARK    4  A    between atoms: C_4  and  C_6
REMARK    5  A    between atoms: C_9  and  O_10
REMARK    6  A    between atoms: O_10  and  C_11
REMARK    7  A    between atoms: C_11  and  C_12
REMARK    8  A    between atoms: C_12  and  C_13
REMARK    9  A    between atoms: C_13  and  N_14
REMARK   10  A    between atoms: N_14  and  C_15
REMARK   11  A    between atoms: C_15  and  C_16
REMARK                            x       y       z     vdW  Elec       q    Type
REMARK                         _______ _______ _______ _____ _____    ______ ____
ROOT
ATOM      1  C   UNL     1       0.521   9.609  21.426  0.00  0.00    +0.000 A 
ATOM      2  C   UNL     1       1.066   8.342  21.501  0.00  0.00    +0.000 A 
ATOM      3  C   UNL     1       1.600   8.032  20.225  0.00  0.00    +0.000 A 
ATOM      4  C   UNL     1       2.237   6.911  19.654  0.00  0.00    +0.000 A 
ATOM      5  C   UNL     1       2.649   7.013  18.314  0.00  0.00    +0.000 A 
ATOM      6  C   UNL     1       2.454   8.187  17.576  0.00  0.00    +0.000 A 
ATOM      7  C   UNL     1       1.820   9.299  18.136  0.00  0.00    +0.000 A 
ATOM      8  C   UNL     1       1.393   9.170  19.454  0.00  0.00    +0.000 A 
ATOM      9  O   UNL     1       0.714  10.116  20.168  0.00  0.00    +0.000 OA
ENDROOT
BRANCH   1  10
ATOM     10  C   UNL     1      -0.177  10.350  22.449  0.00  0.00    +0.000 C 
ATOM     11  O   UNL     1      -0.124  10.096  23.641  0.00  0.00    +0.000 OA
BRANCH  10  12
ATOM     12  O   UNL     1      -1.017  11.281  21.894  0.00  0.00    +0.000 OA
BRANCH  12  14
ATOM     13  C   UNL     1      -1.939  13.121  23.126  0.00  0.00    +0.000 C 
ATOM     14  C   UNL     1      -0.742  12.611  22.344  0.00  0.00    +0.000 C 
ENDBRANCH  12  14
ENDBRANCH  10  12
ENDBRANCH   1  10
BRANCH   4  15
ATOM     15  O   UNL     1       2.390   5.802  20.446  0.00  0.00    +0.000 OA
BRANCH  15  16
ATOM     16  C   UNL     1       1.306   4.874  20.463  0.00  0.00    +0.000 C 
BRANCH  16  17
ATOM     17  C   UNL     1       1.741   3.614  21.205  0.00  0.00    +0.000 C 
BRANCH  17  18
ATOM     18  C   UNL     1       2.566   2.711  20.289  0.00  0.00    +0.000 C 
BRANCH  18  19
ATOM     19  N   UNL     1       3.803   3.388  19.915  0.00  0.00    +0.000 NA
ATOM     20  H   UNL     1       4.553   3.109  20.548  0.00  0.00    +0.000 HD
BRANCH  19  21
ATOM     21  C   UNL     1       4.201   3.072  18.542  0.00  0.00    +0.000 C 
BRANCH  21  22
ATOM     22  C   UNL     1       4.891   4.236  17.884  0.00  0.00    +0.000 A 
ATOM     23  C   UNL     1       4.668   4.571  16.543  0.00  0.00    +0.000 A 
ATOM     24  C   UNL     1       5.324   5.664  15.982  0.00  0.00    +0.000 A 
ATOM     25  C   UNL     1       6.199   6.381  16.778  0.00  0.00    +0.000 A 
ATOM     26  N   UNL     1       6.465   6.075  18.066  0.00  0.00    +0.000 NA
ATOM     27  C   UNL     1       5.808   5.012  18.585  0.00  0.00    +0.000 A 
ENDBRANCH  21  22
ENDBRANCH  19  21
ENDBRANCH  18  19
ENDBRANCH  17  18
ENDBRANCH  16  17
ENDBRANCH  15  16
ENDBRANCH   4  15
TORSDOF 10
ENDMDL
MODEL 3
REMARK VINA RESULT:      -6.8      1.429      3.159
REMARK  Name = 
REMARK  11 active torsions:
REMARK  status: ('A' for Active; 'I' for Inactive)
REMARK    1  A    between atoms: C_1  and  C_2
REMARK    2  A    between atoms: C_2  and  O_3
REMARK    3  A    between atoms: O_3  and  C_4
REMARK    4  A    between atoms: C_4  and  C_6
REMARK    5  A    between atoms: C_9  and  O_10
REMARK    6  A    between atoms: O_10  and  C_11
REMARK    7  A    between atoms: C_11  and  C_12
REMARK    8  A    between atoms: C_12  and  C_13
REMARK    9  A    between atoms: C_13  and  N_14
REMARK   10  A    between atoms: N_14  and  C_15
REMARK   11  A    between atoms: C_15  and  C_16
REMARK                            x       y       z     vdW  Elec       q    Type
REMARK                         _______ _______ _______ _____ _____    ______ ____
ROOT
ATOM      1  C   UNL     1       6.641   4.424  14.629  0.00  0.00    +0.000 A 
ATOM      2  C   UNL     1       5.626   3.973  15.449  0.00  0.00    +0.000 A 
ATOM      3  C   UNL     1       5.880   4.467  16.754  0.00  0.00    +0.000 A 
ATOM      4  C   UNL     1       5.258   4.336  18.012  0.00  0.00    +0.000 A 
ATOM      5  C   UNL     1       5.831   5.025  19.095  0.00  0.00    +0.000 A 
ATOM      6  C   UNL     1       6.966   5.828  18.931  0.00  0.00    +0.000 A 
ATOM      7  C   UNL     1       7.590   5.959  17.687  0.00  0.00    +0.000 A 
ATOM      8  C   UNL     1       7.025   5.246  16.634  0.00  0.00    +0.000 A 
ATOM      9  O   UNL     1       7.506   5.198  15.356  0.00  0.00    +0.000 OA
ENDROOT
BRANCH   1  10
ATOM     10  C   UNL     1       6.851   4.153  13.227  0.00  0.00    +0.000 C 
ATOM     11  O   UNL     1       7.458   4.890  12.467  0.00  0.00    +0.000 OA
BRANCH  10  12
ATOM     12  O   UNL     1       6.159   3.037  12.834  0.00  0.00    +0.000 OA
BRANCH  12  14
ATOM     13  C   UNL     1       4.229   3.254  11.425  0.00  0.00    +0.000 C 
ATOM     14  C   UNL     1       5.740   3.100  11.467  0.00  0.00    +0.000 C 
ENDBRANCH  12  14
ENDBRANCH  10  12
ENDBRANCH   1  10
BRANCH   4  15
ATOM     15  O   UNL     1       4.149   3.531  18.085  0.00  0.00    +0.000 OA
BRANCH  15  16
ATOM     16  C   UNL     1       4.063   2.661  19.213  0.00  0.00    +0.000 C 
BRANCH  16  17
ATOM     17  C   UNL     1       2.607   2.258  19.422  0.00  0.00    +0.000 C 
BRANCH  17  18
ATOM     18  C   UNL     1       2.015   2.994  20.625  0.00  0.00    +0.000 C 
BRANCH  18  19
ATOM     19  N   UNL     1       1.377   4.229  20.180  0.00  0.00    +0.000 NA
ATOM     20  H   UNL     1       0.374   4.184  20.365  0.00  0.00    +0.000 HD
BRANCH  19  21
ATOM     21  C   UNL     1       1.931   5.400  20.862  0.00  0.00    +0.000 C 
BRANCH  21  22
ATOM     22  C   UNL     1       1.986   6.596  19.950  0.00  0.00    +0.000 A 
ATOM     23  C   UNL     1       1.544   7.861  20.356  0.00  0.00    +0.000 A 
ATOM     24  C   UNL     1       1.624   8.939  19.480  0.00  0.00    +0.000 A 
ATOM     25  C   UNL     1       2.131   8.716  18.211  0.00  0.00    +0.000 A 
ATOM     26  N   UNL     1       2.541   7.507  17.769  0.00  0.00    +0.000 NA
ATOM     27  C   UNL     1       2.456   6.480  18.646  0.00  0.00    +0.000 A 
ENDBRANCH  21  22
ENDBRANCH  19  21
ENDBRANCH  18  19
ENDBRANCH  17  18
ENDBRANCH  16  17
ENDBRANCH  15  16
ENDBRANCH   4  15
TORSDOF 10
ENDMDL
MODEL 4
REMARK VINA RESULT:      -6.7      1.211      3.116
REMARK  Name = 
REMARK  11 active torsions:
REMARK  status: ('A' for Active; 'I' for Inactive)
REMARK    1  A    between atoms: C_1  and  C_2
REMARK    2  A    between atoms: C_2  and  O_3
REMARK    3  A    between atoms: O_3  and  C_4
REMARK    4  A    between atoms: C_4  and  C_6
REMARK    5  A    between atoms: C_9  and  O_10
REMARK    6  A    between atoms: O_10  and  C_11
REMARK    7  A    between atoms: C_11  and  C_12
REMARK    8  A    between atoms: C_12  and  C_13
REMARK    9  A    between atoms: C_13  and  N_14
REMARK   10  A    between atoms: N_14  and  C_15
REMARK   11  A    between atoms: C_15  and  C_16
REMARK                            x       y       z     vdW  Elec       q    Type
REMARK                         _______ _______ _______ _____ _____    ______ ____
ROOT
ATOM      1  C   UNL     1       6.673   4.771  14.814  0.00  0.00    +0.000 A 
ATOM      2  C   UNL     1       5.786   4.121  15.650  0.00  0.00    +0.000 A 
ATOM      3  C   UNL     1       6.063   4.544  16.975  0.00  0.00    +0.000 A 
ATOM      4  C   UNL     1       5.552   4.230  18.251  0.00  0.00    +0.000 A 
ATOM      5  C   UNL     1       6.102   4.906  19.354  0.00  0.00    +0.000 A 
ATOM      6  C   UNL     1       7.106   5.870  19.194  0.00  0.00    +0.000 A 
ATOM      7  C   UNL     1       7.618   6.182  17.932  0.00  0.00    +0.000 A 
ATOM      8  C   UNL     1       7.082   5.481  16.856  0.00  0.00    +0.000 A 
ATOM      9  O   UNL     1       7.475   5.599  15.553  0.00  0.00    +0.000 OA
ENDROOT
BRANCH   1  10
ATOM     10  C   UNL     1       6.820   4.642  13.384  0.00  0.00    +0.000 C 
ATOM     11  O   UNL     1       7.796   5.015  12.755  0.00  0.00    +0.000 OA
BRANCH  10  12
ATOM     12  O   UNL     1       5.662   4.179  12.812  0.00  0.00    +0.000 OA
BRANCH  12  14
ATOM     13  C   UNL     1       4.602   2.697  11.252  0.00  0.00    +0.000 C 
ATOM     14  C   UNL     1       5.864   2.988  12.044  0.00  0.00    +0.000 C 
ENDBRANCH  12  14
ENDBRANCH  10  12
ENDBRANCH   1  10
BRANCH   4  15
ATOM     15  O   UNL     1       4.568   3.276  18.319  0.00  0.00    +0.000 OA
BRANCH  15  16
ATOM     16  C   UNL     1       4.363   2.659  19.589  0.00  0.00    +0.000 C 
BRANCH  16  17
ATOM     17  C   UNL     1       3.016   1.942  19.582  0.00  0.00    +0.000 C 
BRANCH  17  18
ATOM     18  C   UNL     1       2.377   2.018  18.195  0.00  0.00    +0.000 C 
BRANCH  18  19
ATOM     19  N   UNL     1       1.361   3.066  18.178  0.00  0.00    +0.000 NA
ATOM     20  H   UNL     1       1.096   3.303  19.135  0.00  0.00    +0.000 HD
BRANCH  19  21
ATOM     21  C   UNL     1       1.842   4.274  17.506  0.00  0.00    +0.000 C 
BRANCH  21  22
ATOM     22  C   UNL     1       1.922   5.439  18.454  0.00  0.00    +0.000 A 
ATOM     23  C   UNL     1       1.695   5.296  19.828  0.00  0.00    +0.000 A 
ATOM     24  C   UNL     1       1.791   6.403  20.667  0.00  0.00    +0.000 A 
ATOM     25  C   UNL     1       2.098   7.628  20.102  0.00  0.00    +0.000 A 
ATOM     26  N   UNL     1       2.296   7.816  18.779  0.00  0.00    +0.000 NA
ATOM     27  C   UNL     1       2.202   6.721  17.990  0.00  0.00    +0.000 A 
ENDBRANCH  21  22
ENDBRANCH  19  21
ENDBRANCH  18  19
ENDBRANCH  17  18
ENDBRANCH  16  17
ENDBRANCH  15  16
ENDBRANCH   4  15
TORSDOF 10
ENDMDL
MODEL 5
REMARK VINA RESULT:      -6.7      1.532      3.646
REMARK  Name = 
REMARK  11 active torsions:
REMARK  status: ('A' for Active; 'I' for Inactive)
REMARK    1  A    between atoms: C_1  and  C_2
REMARK    2  A    between atoms: C_2  and  O_3
REMARK    3  A    between atoms: O_3  and  C_4
REMARK    4  A    between atoms: C_4  and  C_6
REMARK    5  A    between atoms: C_9  and  O_10
REMARK    6  A    between atoms: O_10  and  C_11
REMARK    7  A    between atoms: C_11  and  C_12
REMARK    8  A    between atoms: C_12  and  C_13
REMARK    9  A    between atoms: C_13  and  N_14
REMARK   10  A    between atoms: N_14  and  C_15
REMARK   11  A    between atoms: C_15  and  C_16
REMARK                            x       y       z     vdW  Elec       q    Type
REMARK                         _______ _______ _______ _____ _____    ______ ____
ROOT
ATOM      1  C   UNL     1       6.555   4.485  14.872  0.00  0.00    +0.000 A 
ATOM      2  C   UNL     1       5.530   4.130  15.727  0.00  0.00    +0.000 A 
ATOM      3  C   UNL     1       5.881   4.580  17.025  0.00  0.00    +0.000 A 
ATOM      4  C   UNL     1       5.295   4.497  18.304  0.00  0.00    +0.000 A 
ATOM      5  C   UNL     1       5.975   5.112  19.370  0.00  0.00    +0.000 A 
ATOM      6  C   UNL     1       7.179   5.798  19.170  0.00  0.00    +0.000 A 
ATOM      7  C   UNL     1       7.767   5.881  17.905  0.00  0.00    +0.000 A 
ATOM      8  C   UNL     1       7.094   5.241  16.867  0.00  0.00    +0.000 A 
ATOM      9  O   UNL     1       7.520   5.160  15.572  0.00  0.00    +0.000 OA
ENDROOT
BRANCH   1  10
ATOM     10  C   UNL     1       6.685   4.212  13.461  0.00  0.00    +0.000 C 
ATOM     11  O   UNL     1       7.429   4.817  12.708  0.00  0.00    +0.000 OA
BRANCH  10  12
ATOM     12  O   UNL     1       5.760   3.284  13.054  0.00  0.00    +0.000 OA
BRANCH  12  14
ATOM     13  C   UNL     1       5.946   1.563  11.393  0.00  0.00    +0.000 C 
ATOM     14  C   UNL     1       5.795   3.054  11.642  0.00  0.00    +0.000 C 
ENDBRANCH  12  14
ENDBRANCH  10  12
ENDBRANCH   1  10
BRANCH   4  15
ATOM     15  O   UNL     1       4.114   3.808  18.412  0.00  0.00    +0.000 OA
BRANCH  15  16
ATOM     16  C   UNL     1       3.927   3.042  19.602  0.00  0.00    +0.000 C 
BRANCH  16  17
ATOM     17  C   UNL     1       2.647   3.500  20.293  0.00  0.00    +0.000 C 
BRANCH  17  18
ATOM     18  C   UNL     1       2.080   4.740  19.601  0.00  0.00    +0.000 C 
BRANCH  18  19
ATOM     19  N   UNL     1       2.667   5.941  20.187  0.00  0.00    +0.000 NA
ATOM     20  H   UNL     1       3.223   6.429  19.484  0.00  0.00    +0.000 HD
BRANCH  19  21
ATOM     21  C   UNL     1       1.641   6.853  20.695  0.00  0.00    +0.000 C 
BRANCH  21  22
ATOM     22  C   UNL     1       1.574   8.118  19.882  0.00  0.00    +0.000 A 
ATOM     23  C   UNL     1       2.120   8.205  18.596  0.00  0.00    +0.000 A 
ATOM     24  C   UNL     1       2.025   9.395  17.880  0.00  0.00    +0.000 A 
ATOM     25  C   UNL     1       1.397  10.472  18.481  0.00  0.00    +0.000 A 
ATOM     26  N   UNL     1       0.882  10.440  19.729  0.00  0.00    +0.000 NA
ATOM     27  C   UNL     1       0.985   9.268  20.398  0.00  0.00    +0.000 A 
ENDBRANCH  21  22
ENDBRANCH  19  21
ENDBRANCH  18  19
ENDBRANCH  17  18
ENDBRANCH  16  17
ENDBRANCH  15  16
ENDBRANCH   4  15
TORSDOF 10
ENDMDL
MODEL 6
REMARK VINA RESULT:      -6.6      3.430      6.191
REMARK  Name = 
REMARK  11 active torsions:
REMARK  status: ('A' for Active; 'I' for Inactive)
REMARK    1  A    between atoms: C_1  and  C_2
REMARK    2  A    between atoms: C_2  and  O_3
REMARK    3  A    between atoms: O_3  and  C_4
REMARK    4  A    between atoms: C_4  and  C_6
REMARK    5  A    between atoms: C_9  and  O_10
REMARK    6  A    between atoms: O_10  and  C_11
REMARK    7  A    between atoms: C_11  and  C_12
REMARK    8  A    between atoms: C_12  and  C_13
REMARK    9  A    between atoms: C_13  and  N_14
REMARK   10  A    between atoms: N_14  and  C_15
REMARK   11  A    between atoms: C_15  and  C_16
REMARK                            x       y       z     vdW  Elec       q    Type
REMARK                         _______ _______ _______ _____ _____    ______ ____
ROOT
ATOM      1  C   UNL     1       4.260   5.469  17.251  0.00  0.00    +0.000 A 
ATOM      2  C   UNL     1       3.767   5.988  18.432  0.00  0.00    +0.000 A 
ATOM      3  C   UNL     1       2.738   5.122  18.881  0.00  0.00    +0.000 A 
ATOM      4  C   UNL     1       1.843   5.114  19.970  0.00  0.00    +0.000 A 
ATOM      5  C   UNL     1       0.957   4.028  20.074  0.00  0.00    +0.000 A 
ATOM      6  C   UNL     1       0.973   2.980  19.145  0.00  0.00    +0.000 A 
ATOM      7  C   UNL     1       1.856   2.984  18.062  0.00  0.00    +0.000 A 
ATOM      8  C   UNL     1       2.704   4.083  17.959  0.00  0.00    +0.000 A 
ATOM      9  O   UNL     1       3.603   4.304  16.954  0.00  0.00    +0.000 OA
ENDROOT
BRANCH   1  10
ATOM     10  C   UNL     1       5.283   6.009  16.389  0.00  0.00    +0.000 C 
ATOM     11  O   UNL     1       5.063   6.693  15.403  0.00  0.00    +0.000 OA
BRANCH  10  12
ATOM     12  O   UNL     1       6.521   5.535  16.740  0.00  0.00    +0.000 OA
BRANCH  12  14
ATOM     13  C   UNL     1       7.700   6.022  18.772  0.00  0.00    +0.000 C 
ATOM     14  C   UNL     1       7.328   6.524  17.387  0.00  0.00    +0.000 C 
ENDBRANCH  12  14
ENDBRANCH  10  12
ENDBRANCH   1  10
BRANCH   4  15
ATOM     15  O   UNL     1       1.894   6.178  20.835  0.00  0.00    +0.000 OA
BRANCH  15  16
ATOM     16  C   UNL     1       1.744   7.477  20.262  0.00  0.00    +0.000 C 
BRANCH  16  17
ATOM     17  C   UNL     1       1.247   8.440  21.334  0.00  0.00    +0.000 C 
BRANCH  17  18
ATOM     18  C   UNL     1      -0.020   9.156  20.865  0.00  0.00    +0.000 C 
BRANCH  18  19
ATOM     19  N   UNL     1       0.342  10.385  20.164  0.00  0.00    +0.000 NA
ATOM     20  H   UNL     1       1.314  10.622  20.365  0.00  0.00    +0.000 HD
BRANCH  19  21
ATOM     21  C   UNL     1       0.176  10.250  18.716  0.00  0.00    +0.000 C 
BRANCH  21  22
ATOM     22  C   UNL     1      -1.241  10.525  18.293  0.00  0.00    +0.000 A 
ATOM     23  C   UNL     1      -1.834   9.868  17.209  0.00  0.00    +0.000 A 
ATOM     24  C   UNL     1      -3.153  10.149  16.863  0.00  0.00    +0.000 A 
ATOM     25  C   UNL     1      -3.837  11.095  17.606  0.00  0.00    +0.000 A 
ATOM     26  N   UNL     1      -3.295  11.773  18.640  0.00  0.00    +0.000 NA
ATOM     27  C   UNL     1      -2.014  11.474  18.956  0.00  0.00    +0.000 A 
ENDBRANCH  21  22
ENDBRANCH  19  21
ENDBRANCH  18  19
ENDBRANCH  17  18
ENDBRANCH  16  17
ENDBRANCH  15  16
ENDBRANCH   4  15
TORSDOF 10
ENDMDL
MODEL 7
REMARK VINA RESULT:      -6.5      1.252      1.585
REMARK  Name = 
REMARK  11 active torsions:
REMARK  status: ('A' for Active; 'I' for Inactive)
REMARK    1  A    between atoms: C_1  and  C_2
REMARK    2  A    between atoms: C_2  and  O_3
REMARK    3  A    between atoms: O_3  and  C_4
REMARK    4  A    between atoms: C_4  and  C_6
REMARK    5  A    between atoms: C_9  and  O_10
REMARK    6  A    between atoms: O_10  and  C_11
REMARK    7  A    between atoms: C_11  and  C_12
REMARK    8  A    between atoms: C_12  and  C_13
REMARK    9  A    between atoms: C_13  and  N_14
REMARK   10  A    between atoms: N_14  and  C_15
REMARK   11  A    between atoms: C_15  and  C_16
REMARK                            x       y       z     vdW  Elec       q    Type
REMARK                         _______ _______ _______ _____ _____    ______ ____
ROOT
ATOM      1  C   UNL     1       5.863   4.234  14.567  0.00  0.00    +0.000 A 
ATOM      2  C   UNL     1       4.891   4.864  15.319  0.00  0.00    +0.000 A 
ATOM      3  C   UNL     1       5.425   5.071  16.617  0.00  0.00    +0.000 A 
ATOM      4  C   UNL     1       4.937   5.613  17.823  0.00  0.00    +0.000 A 
ATOM      5  C   UNL     1       5.818   5.658  18.917  0.00  0.00    +0.000 A 
ATOM      6  C   UNL     1       7.137   5.200  18.813  0.00  0.00    +0.000 A 
ATOM      7  C   UNL     1       7.625   4.658  17.621  0.00  0.00    +0.000 A 
ATOM      8  C   UNL     1       6.729   4.595  16.557  0.00  0.00    +0.000 A 
ATOM      9  O   UNL     1       6.989   4.060  15.327  0.00  0.00    +0.000 OA
ENDROOT
BRANCH   1  10
ATOM     10  C   UNL     1       5.786   3.774  13.201  0.00  0.00    +0.000 C 
ATOM     11  O   UNL     1       4.745   3.623  12.583  0.00  0.00    +0.000 OA
BRANCH  10  12
ATOM     12  O   UNL     1       7.020   3.394  12.741  0.00  0.00    +0.000 OA
BRANCH  12  14
ATOM     13  C   UNL     1       7.103   1.566  11.188  0.00  0.00    +0.000 C 
ATOM     14  C   UNL     1       7.015   3.074  11.346  0.00  0.00    +0.000 C 
ENDBRANCH  12  14
ENDBRANCH  10  12
ENDBRANCH   1  10
BRANCH   4  15
ATOM     15  O   UNL     1       3.633   6.040  17.840  0.00  0.00    +0.000 OA
BRANCH  15  16
ATOM     16  C   UNL     1       3.422   7.452  17.814  0.00  0.00    +0.000 C 
BRANCH  16  17
ATOM     17  C   UNL     1       2.224   7.792  18.695  0.00  0.00    +0.000 C 
BRANCH  17  18
ATOM     18  C   UNL     1       2.326   7.070  20.039  0.00  0.00    +0.000 C 
BRANCH  18  19
ATOM     19  N   UNL     1       1.502   5.866  20.014  0.00  0.00    +0.000 NA
ATOM     20  H   UNL     1       1.364   5.563  19.049  0.00  0.00    +0.000 HD
BRANCH  19  21
ATOM     21  C   UNL     1       2.118   4.773  20.769  0.00  0.00    +0.000 C 
BRANCH  21  22
ATOM     22  C   UNL     1       2.570   3.660  19.863  0.00  0.00    +0.000 A 
ATOM     23  C   UNL     1       1.903   3.356  18.670  0.00  0.00    +0.000 A 
ATOM     24  C   UNL     1       2.366   2.323  17.859  0.00  0.00    +0.000 A 
ATOM     25  C   UNL     1       3.478   1.613  18.276  0.00  0.00    +0.000 A 
ATOM     26  N   UNL     1       4.134   1.854  19.431  0.00  0.00    +0.000 NA
ATOM     27  C   UNL     1       3.664   2.868  20.195  0.00  0.00    +0.000 A 
ENDBRANCH  21  22
ENDBRANCH  19  21
ENDBRANCH  18  19
ENDBRANCH  17  18
ENDBRANCH  16  17
ENDBRANCH  15  16
ENDBRANCH   4  15
TORSDOF 10
ENDMDL
MODEL 8
REMARK VINA RESULT:      -6.5      3.689      5.944
REMARK  Name = 
REMARK  11 active torsions:
REMARK  status: ('A' for Active; 'I' for Inactive)
REMARK    1  A    between atoms: C_1  and  C_2
REMARK    2  A    between atoms: C_2  and  O_3
REMARK    3  A    between atoms: O_3  and  C_4
REMARK    4  A    between atoms: C_4  and  C_6
REMARK    5  A    between atoms: C_9  and  O_10
REMARK    6  A    between atoms: O_10  and  C_11
REMARK    7  A    between atoms: C_11  and  C_12
REMARK    8  A    between atoms: C_12  and  C_13
REMARK    9  A    between atoms: C_13  and  N_14
REMARK   10  A    between atoms: N_14  and  C_15
REMARK   11  A    between atoms: C_15  and  C_16
REMARK                            x       y       z     vdW  Elec       q    Type
REMARK                         _______ _______ _______ _____ _____    ______ ____
ROOT
ATOM      1  C   UNL     1       4.762   3.732  19.302  0.00  0.00    +0.000 A 
ATOM      2  C   UNL     1       4.030   4.701  18.644  0.00  0.00    +0.000 A 
ATOM      3  C   UNL     1       4.948   5.654  18.134  0.00  0.00    +0.000 A 
ATOM      4  C   UNL     1       4.837   6.866  17.422  0.00  0.00    +0.000 A 
ATOM      5  C   UNL     1       6.029   7.524  17.074  0.00  0.00    +0.000 A 
ATOM      6  C   UNL     1       7.282   6.991  17.401  0.00  0.00    +0.000 A 
ATOM      7  C   UNL     1       7.397   5.791  18.109  0.00  0.00    +0.000 A 
ATOM      8  C   UNL     1       6.206   5.169  18.471  0.00  0.00    +0.000 A 
ATOM      9  O   UNL     1       6.097   4.022  19.204  0.00  0.00    +0.000 OA
ENDROOT
BRANCH   1  10
ATOM     10  C   UNL     1       4.282   2.578  20.023  0.00  0.00    +0.000 C 
ATOM     11  O   UNL     1       4.993   1.671  20.425  0.00  0.00    +0.000 OA
BRANCH  10  12
ATOM     12  O   UNL     1       2.912   2.564  20.070  0.00  0.00    +0.000 OA
BRANCH  12  14
ATOM     13  C   UNL     1       0.899   2.370  18.778  0.00  0.00    +0.000 C 
ATOM     14  C   UNL     1       2.328   1.886  18.953  0.00  0.00    +0.000 C 
ENDBRANCH  12  14
ENDBRANCH  10  12
ENDBRANCH   1  10
BRANCH   4  15
ATOM     15  O   UNL     1       3.573   7.318  17.140  0.00  0.00    +0.000 OA
BRANCH  15  16
ATOM     16  C   UNL     1       2.908   8.046  18.173  0.00  0.00    +0.000 C 
BRANCH  16  17
ATOM     17  C   UNL     1       2.005   9.098  17.539  0.00  0.00    +0.000 C 
BRANCH  17  18
ATOM     18  C   UNL     1       1.939  10.347  18.418  0.00  0.00    +0.000 C 
BRANCH  18  19
ATOM     19  N   UNL     1       0.624  10.968  18.290  0.00  0.00    +0.000 NA
ATOM     20  H   UNL     1       0.429  11.163  17.307  0.00  0.00    +0.000 HD
BRANCH  19  21
ATOM     21  C   UNL     1      -0.435  10.108  18.822  0.00  0.00    +0.000 C 
BRANCH  21  22
ATOM     22  C   UNL     1      -0.508  10.185  20.323  0.00  0.00    +0.000 A 
ATOM     23  C   UNL     1      -0.248   9.077  21.137  0.00  0.00    +0.000 A 
ATOM     24  C   UNL     1      -0.319   9.200  22.522  0.00  0.00    +0.000 A 
ATOM     25  C   UNL     1      -0.665  10.431  23.053  0.00  0.00    +0.000 A 
ATOM     26  N   UNL     1      -0.951  11.517  22.304  0.00  0.00    +0.000 NA
ATOM     27  C   UNL     1      -0.868  11.368  20.961  0.00  0.00    +0.000 A 
ENDBRANCH  21  22
ENDBRANCH  19  21
ENDBRANCH  18  19
ENDBRANCH  17  18
ENDBRANCH  16  17
ENDBRANCH  15  16
ENDBRANCH   4  15
TORSDOF 10
ENDMDL
MODEL 9
REMARK VINA RESULT:      -6.5      3.471      6.068
REMARK  Name = 
REMARK  11 active torsions:
REMARK  status: ('A' for Active; 'I' for Inactive)
REMARK    1  A    between atoms: C_1  and  C_2
REMARK    2  A    between atoms: C_2  and  O_3
REMARK    3  A    between atoms: O_3  and  C_4
REMARK    4  A    between atoms: C_4  and  C_6
REMARK    5  A    between atoms: C_9  and  O_10
REMARK    6  A    between atoms: O_10  and  C_11
REMARK    7  A    between atoms: C_11  and  C_12
REMARK    8  A    between atoms: C_12  and  C_13
REMARK    9  A    between atoms: C_13  and  N_14
REMARK   10  A    between atoms: N_14  and  C_15
REMARK   11  A    between atoms: C_15  and  C_16
REMARK                            x       y       z     vdW  Elec       q    Type
REMARK                         _______ _______ _______ _____ _____    ______ ____
ROOT
ATOM      1  C   UNL     1       5.107   4.564  18.610  0.00  0.00    +0.000 A 
ATOM      2  C   UNL     1       4.329   5.304  19.479  0.00  0.00    +0.000 A 
ATOM      3  C   UNL     1       3.089   4.630  19.618  0.00  0.00    +0.000 A 
ATOM      4  C   UNL     1       1.888   4.881  20.312  0.00  0.00    +0.000 A 
ATOM      5  C   UNL     1       0.864   3.923  20.205  0.00  0.00    +0.000 A 
ATOM      6  C   UNL     1       1.034   2.753  19.454  0.00  0.00    +0.000 A 
ATOM      7  C   UNL     1       2.221   2.501  18.761  0.00  0.00    +0.000 A 
ATOM      8  C   UNL     1       3.211   3.475  18.855  0.00  0.00    +0.000 A 
ATOM      9  O   UNL     1       4.420   3.446  18.219  0.00  0.00    +0.000 OA
ENDROOT
BRANCH   1  10
ATOM     10  C   UNL     1       6.432   4.857  18.118  0.00  0.00    +0.000 C 
ATOM     11  O   UNL     1       7.451   4.753  18.779  0.00  0.00    +0.000 OA
BRANCH  10  12
ATOM     12  O   UNL     1       6.378   5.404  16.861  0.00  0.00    +0.000 OA
BRANCH  12  14
ATOM     13  C   UNL     1       5.864   4.142  14.887  0.00  0.00    +0.000 C 
ATOM     14  C   UNL     1       6.951   4.553  15.864  0.00  0.00    +0.000 C 
ENDBRANCH  12  14
ENDBRANCH  10  12
ENDBRANCH   1  10
BRANCH   4  15
ATOM     15  O   UNL     1       1.805   6.050  21.026  0.00  0.00    +0.000 OA
BRANCH  15  16
ATOM     16  C   UNL     1       1.673   7.253  20.269  0.00  0.00    +0.000 C 
BRANCH  16  17
ATOM     17  C   UNL     1       1.388   8.410  21.221  0.00  0.00    +0.000 C 
BRANCH  17  18
ATOM     18  C   UNL     1       0.388   9.383  20.596  0.00  0.00    +0.000 C 
BRANCH  18  19
ATOM     19  N   UNL     1       0.687   9.552  19.177  0.00  0.00    +0.000 NA
ATOM     20  H   UNL     1       0.226   8.818  18.638  0.00  0.00    +0.000 HD
BRANCH  19  21
ATOM     21  C   UNL     1       0.241  10.855  18.681  0.00  0.00    +0.000 C 
BRANCH  21  22
ATOM     22  C   UNL     1      -1.212  10.830  18.290  0.00  0.00    +0.000 A 
ATOM     23  C   UNL     1      -2.156  11.676  18.884  0.00  0.00    +0.000 A 
ATOM     24  C   UNL     1      -3.488  11.622  18.482  0.00  0.00    +0.000 A 
ATOM     25  C   UNL     1      -3.839  10.708  17.504  0.00  0.00    +0.000 A 
ATOM     26  N   UNL     1      -2.967   9.854  16.926  0.00  0.00    +0.000 NA
ATOM     27  C   UNL     1      -1.679   9.934  17.333  0.00  0.00    +0.000 A 
ENDBRANCH  21  22
ENDBRANCH  19  21
ENDBRANCH  18  19
ENDBRANCH  17  18
ENDBRANCH  16  17
ENDBRANCH  15  16
ENDBRANCH   4  15
TORSDOF 10
ENDMDL
