MODEL 1
REMARK VINA RESULT:      -6.3      0.000      0.000
REMARK  Name = 
REMARK  9 active torsions:
REMARK  status: ('A' for Active; 'I' for Inactive)
REMARK    1  A    between atoms: C_1  and  C_2
REMARK    2  A    between atoms: C_2  and  C_3
REMARK    3  A    between atoms: C_3  and  C_4
REMARK    4  A    between atoms: C_4  and  N_5
REMARK    5  A    between atoms: N_5  and  C_6
REMARK    6  A    between atoms: C_7  and  N_8
REMARK    7  A    between atoms: N_9  and  C_10
REMARK    8  A    between atoms: C_10  and  C_11
REMARK    9  A    between atoms: C_11  and  C_12
REMARK                            x       y       z     vdW  Elec       q    Type
REMARK                         _______ _______ _______ _____ _____    ______ ____
ROOT
ATOM      1  C   UNL     1       4.189   5.145  18.345  0.00  0.00    +0.000 A 
ATOM      2  C   UNL     1       4.995   6.085  17.791  0.00  0.00    +0.000 A 
ATOM      3  N   UNL     1       6.364   5.851  17.655  0.00  0.00    +0.000 N 
ATOM      4  C   UNL     1       6.965   4.661  18.047  0.00  0.00    +0.000 A 
ATOM      5  O   UNL     1       8.161   4.406  17.918  0.00  0.00    +0.000 OA
ATOM      6  N   UNL     1       6.154   3.732  18.618  0.00  0.00    +0.000 N 
ATOM      7  C   UNL     1       4.819   3.867  18.814  0.00  0.00    +0.000 A 
ATOM      8  O   UNL     1       4.134   2.987  19.335  0.00  0.00    +0.000 OA
ATOM      9  H   UNL     1       6.580   2.868  18.913  0.00  0.00    +0.000 HD
ENDROOT
BRANCH   2  10
ATOM     10  N   UNL     1       4.424   7.288  17.385  0.00  0.00    +0.000 N 
ATOM     11  H   UNL     1       3.702   7.097  16.687  0.00  0.00    +0.000 HD
ATOM     12  H   UNL     1       4.036   7.817  18.157  0.00  0.00    +0.000 HD
ENDBRANCH   2  10
BRANCH   1  13
ATOM     13  N   UNL     1       2.793   5.242  18.541  0.00  0.00    +0.000 N 
ATOM     14  H   UNL     1       2.395   5.535  17.639  0.00  0.00    +0.000 HD
BRANCH  13  15
ATOM     15  C   UNL     1       2.255   6.079  19.620  0.00  0.00    +0.000 C 
BRANCH  15  16
ATOM     16  C   UNL     1       1.882   5.213  20.824  0.00  0.00    +0.000 C 
BRANCH  16  18
ATOM     17  C   UNL     1       1.268   2.807  21.270  0.00  0.00    +0.000 C 
ATOM     18  C   UNL     1       1.022   4.025  20.395  0.00  0.00    +0.000 C 
ENDBRANCH  16  18
ENDBRANCH  15  16
ENDBRANCH  13  15
ENDBRANCH   1  13
BRANCH   3  19
ATOM     19  C   UNL     1       7.240   6.867  17.058  0.00  0.00    +0.000 C 
BRANCH  19  20
ATOM     20  C   UNL     1       8.032   7.681  18.091  0.00  0.00    +0.000 C 
ATOM     21  C   UNL     1       8.050   9.178  17.819  0.00  0.00    +0.000 C 
ENDBRANCH  19  20
ENDBRANCH   3  19
TORSDOF 7
ENDMDL
MODEL 2
REMARK VINA RESULT:      -6.3      1.357      5.825
REMARK  Name = 
REMARK  9 active torsions:
REMARK  status: ('A' for Active; 'I' for Inactive)
REMARK    1  A    between atoms: C_1  and  C_2
REMARK    2  A    between atoms: C_2  and  C_3
REMARK    3  A    between atoms: C_3  and  C_4
REMARK    4  A    between atoms: C_4  and  N_5
REMARK    5  A    between atoms: N_5  and  C_6
REMARK    6  A    between atoms: C_7  and  N_8
REMARK    7  A    between atoms: N_9  and  C_10
REMARK    8  A    between atoms: C_10  and  C_11
REMARK    9  A    between atoms: C_11  and  C_12
REMARK                            x       y       z     vdW  Elec       q    Type
REMARK                         _______ _______ _______ _____ _____    ______ ____
ROOT
ATOM      1  C   UNL     1       5.990   5.998  16.971  0.00  0.00    +0.000 A 
ATOM      2  C   UNL     1       4.685   6.103  17.328  0.00  0.00    +0.000 A 
ATOM      3  N   UNL     1       3.909   4.959  17.518  0.00  0.00    +0.000 N 
ATOM      4  C   UNL     1       4.421   3.674  17.380  0.00  0.00    +0.000 A 
ATOM      5  O   UNL     1       3.778   2.643  17.566  0.00  0.00    +0.000 OA
ATOM      6  N   UNL     1       5.723   3.577  17.004  0.00  0.00    +0.000 N 
ATOM      7  C   UNL     1       6.556   4.623  16.776  0.00  0.00    +0.000 A 
ATOM      8  O   UNL     1       7.731   4.472  16.440  0.00  0.00    +0.000 OA
ATOM      9  H   UNL     1       6.102   2.651  16.894  0.00  0.00    +0.000 HD
ENDROOT
BRANCH   2  10
ATOM     10  N   UNL     1       4.142   7.377  17.477  0.00  0.00    +0.000 N 
ATOM     11  H   UNL     1       4.229   7.883  16.593  0.00  0.00    +0.000 HD
ATOM     12  H   UNL     1       3.176   7.358  17.779  0.00  0.00    +0.000 HD
ENDBRANCH   2  10
BRANCH   1  13
ATOM     13  N   UNL     1       6.891   7.064  16.750  0.00  0.00    +0.000 N 
ATOM     14  H   UNL     1       7.483   6.782  15.958  0.00  0.00    +0.000 HD
BRANCH  13  15
ATOM     15  C   UNL     1       7.728   7.562  17.848  0.00  0.00    +0.000 C 
BRANCH  15  16
ATOM     16  C   UNL     1       7.921   9.074  17.721  0.00  0.00    +0.000 C 
BRANCH  16  18
ATOM     17  C   UNL     1       9.505  10.923  18.382  0.00  0.00    +0.000 C 
ATOM     18  C   UNL     1       8.896   9.588  18.779  0.00  0.00    +0.000 C 
ENDBRANCH  16  18
ENDBRANCH  15  16
ENDBRANCH  13  15
ENDBRANCH   1  13
BRANCH   3  19
ATOM     19  C   UNL     1       2.496   5.069  17.901  0.00  0.00    +0.000 C 
BRANCH  19  20
ATOM     20  C   UNL     1       2.276   5.201  19.413  0.00  0.00    +0.000 C 
ATOM     21  C   UNL     1       1.415   4.098  20.014  0.00  0.00    +0.000 C 
ENDBRANCH  19  20
ENDBRANCH   3  19
TORSDOF 7
ENDMDL
MODEL 3
REMARK VINA RESULT:      -6.2      2.001      6.119
REMARK  Name = 
REMARK  9 active torsions:
REMARK  status: ('A' for Active; 'I' for Inactive)
REMARK    1  A    between atoms: C_1  and  C_2
REMARK    2  A    between atoms: C_2  and  C_3
REMARK    3  A    between atoms: C_3  and  C_4
REMARK    4  A    between atoms: C_4  and  N_5
REMARK    5  A    between atoms: N_5  and  C_6
REMARK    6  A    between atoms: C_7  and  N_8
REMARK    7  A    between atoms: N_9  and  C_10
REMARK    8  A    between atoms: C_10  and  C_11
REMARK    9  A    between atoms: C_11  and  C_12
REMARK                            x       y       z     vdW  Elec       q    Type
REMARK                         _______ _______ _______ _____ _____    ______ ____
ROOT
ATOM      1  C   UNL     1       4.982   3.983  18.205  0.00  0.00    +0.000 A 
ATOM      2  C   UNL     1       4.265   3.126  18.974  0.00  0.00    +0.000 A 
ATOM      3  N   UNL     1       2.887   2.998  18.795  0.00  0.00    +0.000 N 
ATOM      4  C   UNL     1       2.188   3.707  17.824  0.00  0.00    +0.000 A 
ATOM      5  O   UNL     1       0.981   3.601  17.616  0.00  0.00    +0.000 OA
ATOM      6  N   UNL     1       2.910   4.577  17.070  0.00  0.00    +0.000 N 
ATOM      7  C   UNL     1       4.245   4.789  17.177  0.00  0.00    +0.000 A 
ATOM      8  O   UNL     1       4.847   5.590  16.461  0.00  0.00    +0.000 OA
ATOM      9  H   UNL     1       2.412   5.100  16.369  0.00  0.00    +0.000 HD
ENDROOT
BRANCH   2  10
ATOM     10  N   UNL     1       4.936   2.399  19.954  0.00  0.00    +0.000 N 
ATOM     11  H   UNL     1       5.854   2.127  19.599  0.00  0.00    +0.000 HD
ATOM     12  H   UNL     1       5.032   2.911  20.823  0.00  0.00    +0.000 HD
ENDBRANCH   2  10
BRANCH   1  13
ATOM     13  N   UNL     1       6.375   4.210  18.272  0.00  0.00    +0.000 N 
ATOM     14  H   UNL     1       6.783   3.375  18.712  0.00  0.00    +0.000 HD
BRANCH  13  15
ATOM     15  C   UNL     1       6.896   5.421  18.917  0.00  0.00    +0.000 C 
BRANCH  15  16
ATOM     16  C   UNL     1       7.669   6.268  17.905  0.00  0.00    +0.000 C 
BRANCH  16  18
ATOM     17  C   UNL     1       7.943   8.771  17.749  0.00  0.00    +0.000 C 
ATOM     18  C   UNL     1       8.234   7.524  18.568  0.00  0.00    +0.000 C 
ENDBRANCH  16  18
ENDBRANCH  15  16
ENDBRANCH  13  15
ENDBRANCH   1  13
BRANCH   3  19
ATOM     19  C   UNL     1       2.107   2.075  19.627  0.00  0.00    +0.000 C 
BRANCH  19  20
ATOM     20  C   UNL     1       1.286   2.773  20.720  0.00  0.00    +0.000 C 
ATOM     21  C   UNL     1       2.073   3.080  21.986  0.00  0.00    +0.000 C 
ENDBRANCH  19  20
ENDBRANCH   3  19
TORSDOF 7
ENDMDL
MODEL 4
REMARK VINA RESULT:      -6.2      2.750      5.631
REMARK  Name = 
REMARK  9 active torsions:
REMARK  status: ('A' for Active; 'I' for Inactive)
REMARK    1  A    between atoms: C_1  and  C_2
REMARK    2  A    between atoms: C_2  and  C_3
REMARK    3  A    between atoms: C_3  and  C_4
REMARK    4  A    between atoms: C_4  and  N_5
REMARK    5  A    between atoms: N_5  and  C_6
REMARK    6  A    between atoms: C_7  and  N_8
REMARK    7  A    between atoms: N_9  and  C_10
REMARK    8  A    between atoms: C_10  and  C_11
REMARK    9  A    between atoms: C_11  and  C_12
REMARK                            x       y       z     vdW  Elec       q    Type
REMARK                         _______ _______ _______ _____ _____    ______ ____
ROOT
ATOM      1  C   UNL     1       6.464   5.439  16.601  0.00  0.00    +0.000 A 
ATOM      2  C   UNL     1       5.200   5.833  16.898  0.00  0.00    +0.000 A 
ATOM      3  N   UNL     1       4.563   5.360  18.046  0.00  0.00    +0.000 N 
ATOM      4  C   UNL     1       5.180   4.496  18.944  0.00  0.00    +0.000 A 
ATOM      5  O   UNL     1       4.663   4.080  19.979  0.00  0.00    +0.000 OA
ATOM      6  N   UNL     1       6.438   4.091  18.629  0.00  0.00    +0.000 N 
ATOM      7  C   UNL     1       7.137   4.475  17.532  0.00  0.00    +0.000 A 
ATOM      8  O   UNL     1       8.279   4.077  17.302  0.00  0.00    +0.000 OA
ATOM      9  H   UNL     1       6.891   3.459  19.269  0.00  0.00    +0.000 HD
ENDROOT
BRANCH   2  10
ATOM     10  N   UNL     1       4.556   6.701  16.020  0.00  0.00    +0.000 N 
ATOM     11  H   UNL     1       3.572   6.434  15.948  0.00  0.00    +0.000 HD
ATOM     12  H   UNL     1       4.639   7.671  16.298  0.00  0.00    +0.000 HD
ENDBRANCH   2  10
BRANCH   1  13
ATOM     13  N   UNL     1       7.229   5.838  15.482  0.00  0.00    +0.000 N 
ATOM     14  H   UNL     1       6.816   6.719  15.149  0.00  0.00    +0.000 HD
BRANCH  13  15
ATOM     15  C   UNL     1       7.425   4.920  14.355  0.00  0.00    +0.000 C 
BRANCH  15  16
ATOM     16  C   UNL     1       6.092   4.292  13.947  0.00  0.00    +0.000 C 
BRANCH  16  18
ATOM     17  C   UNL     1       4.879   3.340  11.950  0.00  0.00    +0.000 C 
ATOM     18  C   UNL     1       6.227   3.542  12.623  0.00  0.00    +0.000 C 
ENDBRANCH  16  18
ENDBRANCH  15  16
ENDBRANCH  13  15
ENDBRANCH   1  13
BRANCH   3  19
ATOM     19  C   UNL     1       3.195   5.782  18.370  0.00  0.00    +0.000 C 
BRANCH  19  20
ATOM     20  C   UNL     1       2.114   4.849  17.809  0.00  0.00    +0.000 C 
ATOM     21  C   UNL     1       1.415   4.004  18.865  0.00  0.00    +0.000 C 
ENDBRANCH  19  20
ENDBRANCH   3  19
TORSDOF 7
ENDMDL
MODEL 5
REMARK VINA RESULT:      -6.1      2.428      3.465
REMARK  Name = 
REMARK  9 active torsions:
REMARK  status: ('A' for Active; 'I' for Inactive)
REMARK    1  A    between atoms: C_1  and  C_2
REMARK    2  A    between atoms: C_2  and  C_3
REMARK    3  A    between atoms: C_3  and  C_4
REMARK    4  A    between atoms: C_4  and  N_5
REMARK    5  A    between atoms: N_5  and  C_6
REMARK    6  A    between atoms: C_7  and  N_8
REMARK    7  A    between atoms: N_9  and  C_10
REMARK    8  A    between atoms: C_10  and  C_11
REMARK    9  A    between atoms: C_11  and  C_12
REMARK                            x       y       z     vdW  Elec       q    Type
REMARK                         _______ _______ _______ _____ _____    ______ ____
ROOT
ATOM      1  C   UNL     1       3.887   5.405  19.177  0.00  0.00    +0.000 A 
ATOM      2  C   UNL     1       4.897   4.790  18.511  0.00  0.00    +0.000 A 
ATOM      3  N   UNL     1       5.353   5.296  17.294  0.00  0.00    +0.000 N 
ATOM      4  C   UNL     1       4.828   6.447  16.716  0.00  0.00    +0.000 A 
ATOM      5  O   UNL     1       5.221   6.939  15.660  0.00  0.00    +0.000 OA
ATOM      6  N   UNL     1       3.804   7.046  17.379  0.00  0.00    +0.000 N 
ATOM      7  C   UNL     1       3.276   6.625  18.555  0.00  0.00    +0.000 A 
ATOM      8  O   UNL     1       2.349   7.213  19.112  0.00  0.00    +0.000 OA
ATOM      9  H   UNL     1       3.412   7.876  16.965  0.00  0.00    +0.000 HD
ENDROOT
BRANCH   2  10
ATOM     10  N   UNL     1       5.446   3.637  19.066  0.00  0.00    +0.000 N 
ATOM     11  H   UNL     1       6.277   3.887  19.606  0.00  0.00    +0.000 HD
ATOM     12  H   UNL     1       4.789   3.130  19.646  0.00  0.00    +0.000 HD
ENDBRANCH   2  10
BRANCH   1  13
ATOM     13  N   UNL     1       3.330   5.010  20.414  0.00  0.00    +0.000 N 
ATOM     14  H   UNL     1       4.105   5.007  21.091  0.00  0.00    +0.000 HD
BRANCH  13  15
ATOM     15  C   UNL     1       2.572   3.758  20.516  0.00  0.00    +0.000 C 
BRANCH  15  16
ATOM     16  C   UNL     1       1.177   3.934  19.914  0.00  0.00    +0.000 C 
BRANCH  16  18
ATOM     17  C   UNL     1       2.137   2.210  18.342  0.00  0.00    +0.000 C 
ATOM     18  C   UNL     1       1.104   3.309  18.522  0.00  0.00    +0.000 C 
ENDBRANCH  16  18
ENDBRANCH  15  16
ENDBRANCH  13  15
ENDBRANCH   1  13
BRANCH   3  19
ATOM     19  C   UNL     1       6.443   4.632  16.569  0.00  0.00    +0.000 C 
BRANCH  19  20
ATOM     20  C   UNL     1       5.960   3.639  15.504  0.00  0.00    +0.000 C 
ATOM     21  C   UNL     1       6.333   4.026  14.080  0.00  0.00    +0.000 C 
ENDBRANCH  19  20
ENDBRANCH   3  19
TORSDOF 7
ENDMDL
MODEL 6
REMARK VINA RESULT:      -6.1      2.760      5.309
REMARK  Name = 
REMARK  9 active torsions:
REMARK  status: ('A' for Active; 'I' for Inactive)
REMARK    1  A    between atoms: C_1  and  C_2
REMARK    2  A    between atoms: C_2  and  C_3
REMARK    3  A    between atoms: C_3  and  C_4
REMARK    4  A    between atoms: C_4  and  N_5
REMARK    5  A    between atoms: N_5  and  C_6
REMARK    6  A    between atoms: C_7  and  N_8
REMARK    7  A    between atoms: N_9  and  C_10
REMARK    8  A    between atoms: C_10  and  C_11
REMARK    9  A    between atoms: C_11  and  C_12
REMARK                            x       y       z     vdW  Elec       q    Type
REMARK                         _______ _______ _______ _____ _____    ______ ____
ROOT
ATOM      1  C   UNL     1       6.634   5.473  16.524  0.00  0.00    +0.000 A 
ATOM      2  C   UNL     1       5.365   5.947  16.610  0.00  0.00    +0.000 A 
ATOM      3  N   UNL     1       4.552   5.601  17.690  0.00  0.00    +0.000 N 
ATOM      4  C   UNL     1       4.991   4.788  18.729  0.00  0.00    +0.000 A 
ATOM      5  O   UNL     1       4.315   4.483  19.710  0.00  0.00    +0.000 OA
ATOM      6  N   UNL     1       6.256   4.302  18.626  0.00  0.00    +0.000 N 
ATOM      7  C   UNL     1       7.118   4.561  17.613  0.00  0.00    +0.000 A 
ATOM      8  O   UNL     1       8.257   4.095  17.576  0.00  0.00    +0.000 OA
ATOM      9  H   UNL     1       6.581   3.707  19.371  0.00  0.00    +0.000 HD
ENDROOT
BRANCH   2  10
ATOM     10  N   UNL     1       4.896   6.766  15.586  0.00  0.00    +0.000 N 
ATOM     11  H   UNL     1       5.551   7.538  15.449  0.00  0.00    +0.000 HD
ATOM     12  H   UNL     1       4.757   6.264  14.718  0.00  0.00    +0.000 HD
ENDBRANCH   2  10
BRANCH   1  13
ATOM     13  N   UNL     1       7.566   5.743  15.497  0.00  0.00    +0.000 N 
ATOM     14  H   UNL     1       7.645   6.767  15.442  0.00  0.00    +0.000 HD
BRANCH  13  15
ATOM     15  C   UNL     1       7.369   5.183  14.155  0.00  0.00    +0.000 C 
BRANCH  15  16
ATOM     16  C   UNL     1       6.549   3.895  14.235  0.00  0.00    +0.000 C 
BRANCH  16  18
ATOM     17  C   UNL     1       5.720   3.048  12.008  0.00  0.00    +0.000 C 
ATOM     18  C   UNL     1       5.408   3.913  13.218  0.00  0.00    +0.000 C 
ENDBRANCH  16  18
ENDBRANCH  15  16
ENDBRANCH  13  15
ENDBRANCH   1  13
BRANCH   3  19
ATOM     19  C   UNL     1       3.178   6.108  17.785  0.00  0.00    +0.000 C 
BRANCH  19  20
ATOM     20  C   UNL     1       3.074   7.480  18.466  0.00  0.00    +0.000 C 
ATOM     21  C   UNL     1       2.175   8.468  17.736  0.00  0.00    +0.000 C 
ENDBRANCH  19  20
ENDBRANCH   3  19
TORSDOF 7
ENDMDL
MODEL 7
REMARK VINA RESULT:      -6.1      2.568      3.365
REMARK  Name = 
REMARK  9 active torsions:
REMARK  status: ('A' for Active; 'I' for Inactive)
REMARK    1  A    between atoms: C_1  and  C_2
REMARK    2  A    between atoms: C_2  and  C_3
REMARK    3  A    between atoms: C_3  and  C_4
REMARK    4  A    between atoms: C_4  and  N_5
REMARK    5  A    between atoms: N_5  and  C_6
REMARK    6  A    between atoms: C_7  and  N_8
REMARK    7  A    between atoms: N_9  and  C_10
REMARK    8  A    between atoms: C_10  and  C_11
REMARK    9  A    between atoms: C_11  and  C_12
REMARK                            x       y       z     vdW  Elec       q    Type
REMARK                         _______ _______ _______ _____ _____    ______ ____
ROOT
ATOM      1  C   UNL     1       5.161   4.466  18.395  0.00  0.00    +0.000 A 
ATOM      2  C   UNL     1       4.854   4.349  17.078  0.00  0.00    +0.000 A 
ATOM      3  N   UNL     1       5.695   4.890  16.105  0.00  0.00    +0.000 N 
ATOM      4  C   UNL     1       6.880   5.546  16.419  0.00  0.00    +0.000 A 
ATOM      5  O   UNL     1       7.661   6.011  15.590  0.00  0.00    +0.000 OA
ATOM      6  N   UNL     1       7.171   5.676  17.740  0.00  0.00    +0.000 N 
ATOM      7  C   UNL     1       6.414   5.205  18.761  0.00  0.00    +0.000 A 
ATOM      8  O   UNL     1       6.731   5.350  19.942  0.00  0.00    +0.000 OA
ATOM      9  H   UNL     1       8.023   6.156  17.977  0.00  0.00    +0.000 HD
ENDROOT
BRANCH   2  10
ATOM     10  N   UNL     1       3.675   3.695  16.732  0.00  0.00    +0.000 N 
ATOM     11  H   UNL     1       3.005   4.379  16.375  0.00  0.00    +0.000 HD
ATOM     12  H   UNL     1       3.822   2.959  16.052  0.00  0.00    +0.000 HD
ENDBRANCH   2  10
BRANCH   1  13
ATOM     13  N   UNL     1       4.410   3.966  19.482  0.00  0.00    +0.000 N 
ATOM     14  H   UNL     1       4.081   3.034  19.201  0.00  0.00    +0.000 HD
BRANCH  13  15
ATOM     15  C   UNL     1       3.294   4.746  20.030  0.00  0.00    +0.000 C 
BRANCH  15  16
ATOM     16  C   UNL     1       2.244   3.813  20.635  0.00  0.00    +0.000 C 
BRANCH  16  18
ATOM     17  C   UNL     1       0.959   2.509  18.900  0.00  0.00    +0.000 C 
ATOM     18  C   UNL     1       2.151   2.511  19.842  0.00  0.00    +0.000 C 
ENDBRANCH  16  18
ENDBRANCH  15  16
ENDBRANCH  13  15
ENDBRANCH   1  13
BRANCH   3  19
ATOM     19  C   UNL     1       5.366   4.768  14.680  0.00  0.00    +0.000 C 
BRANCH  19  20
ATOM     20  C   UNL     1       6.172   3.684  13.952  0.00  0.00    +0.000 C 
ATOM     21  C   UNL     1       5.809   3.523  12.483  0.00  0.00    +0.000 C 
ENDBRANCH  19  20
ENDBRANCH   3  19
TORSDOF 7
ENDMDL
MODEL 8
REMARK VINA RESULT:      -6.1      2.300      5.910
REMARK  Name = 
REMARK  9 active torsions:
REMARK  status: ('A' for Active; 'I' for Inactive)
REMARK    1  A    between atoms: C_1  and  C_2
REMARK    2  A    between atoms: C_2  and  C_3
REMARK    3  A    between atoms: C_3  and  C_4
REMARK    4  A    between atoms: C_4  and  N_5
REMARK    5  A    between atoms: N_5  and  C_6
REMARK    6  A    between atoms: C_7  and  N_8
REMARK    7  A    between atoms: N_9  and  C_10
REMARK    8  A    between atoms: C_10  and  C_11
REMARK    9  A    between atoms: C_11  and  C_12
REMARK                            x       y       z     vdW  Elec       q    Type
REMARK                         _______ _______ _______ _____ _____    ______ ____
ROOT
ATOM      1  C   UNL     1       4.927   4.921  18.576  0.00  0.00    +0.000 A 
ATOM      2  C   UNL     1       4.377   3.739  18.952  0.00  0.00    +0.000 A 
ATOM      3  N   UNL     1       3.039   3.461  18.669  0.00  0.00    +0.000 N 
ATOM      4  C   UNL     1       2.217   4.346  17.981  0.00  0.00    +0.000 A 
ATOM      5  O   UNL     1       1.043   4.126  17.689  0.00  0.00    +0.000 OA
ATOM      6  N   UNL     1       2.771   5.535  17.625  0.00  0.00    +0.000 N 
ATOM      7  C   UNL     1       4.050   5.911  17.868  0.00  0.00    +0.000 A 
ATOM      8  O   UNL     1       4.497   7.002  17.516  0.00  0.00    +0.000 OA
ATOM      9  H   UNL     1       2.182   6.186  17.132  0.00  0.00    +0.000 HD
ENDROOT
BRANCH   2  10
ATOM     10  N   UNL     1       5.175   2.829  19.640  0.00  0.00    +0.000 N 
ATOM     11  H   UNL     1       4.629   1.988  19.838  0.00  0.00    +0.000 HD
ATOM     12  H   UNL     1       6.020   2.591  19.136  0.00  0.00    +0.000 HD
ENDBRANCH   2  10
BRANCH   1  13
ATOM     13  N   UNL     1       6.262   5.334  18.789  0.00  0.00    +0.000 N 
ATOM     14  H   UNL     1       6.256   6.362  18.743  0.00  0.00    +0.000 HD
BRANCH  13  15
ATOM     15  C   UNL     1       7.343   4.802  17.953  0.00  0.00    +0.000 C 
BRANCH  15  16
ATOM     16  C   UNL     1       7.255   5.383  16.541  0.00  0.00    +0.000 C 
BRANCH  16  18
ATOM     17  C   UNL     1       5.635   4.724  14.722  0.00  0.00    +0.000 C 
ATOM     18  C   UNL     1       6.850   4.308  15.534  0.00  0.00    +0.000 C 
ENDBRANCH  16  18
ENDBRANCH  15  16
ENDBRANCH  13  15
ENDBRANCH   1  13
BRANCH   3  19
ATOM     19  C   UNL     1       2.439   2.185  19.077  0.00  0.00    +0.000 C 
BRANCH  19  20
ATOM     20  C   UNL     1       1.451   2.314  20.244  0.00  0.00    +0.000 C 
ATOM     21  C   UNL     1       2.072   2.848  21.527  0.00  0.00    +0.000 C 
ENDBRANCH  19  20
ENDBRANCH   3  19
TORSDOF 7
ENDMDL
MODEL 9
REMARK VINA RESULT:      -6.1      3.028      6.136
REMARK  Name = 
REMARK  9 active torsions:
REMARK  status: ('A' for Active; 'I' for Inactive)
REMARK    1  A    between atoms: C_1  and  C_2
REMARK    2  A    between atoms: C_2  and  C_3
REMARK    3  A    between atoms: C_3  and  C_4
REMARK    4  A    between atoms: C_4  and  N_5
REMARK    5  A    between atoms: N_5  and  C_6
REMARK    6  A    between atoms: C_7  and  N_8
REMARK    7  A    between atoms: N_9  and  C_10
REMARK    8  A    between atoms: C_10  and  C_11
REMARK    9  A    between atoms: C_11  and  C_12
REMARK                            x       y       z     vdW  Elec       q    Type
REMARK                         _______ _______ _______ _____ _____    ______ ____
ROOT
ATOM      1  C   UNL     1       5.456   4.898  16.974  0.00  0.00    +0.000 A 
ATOM      2  C   UNL     1       4.349   4.295  17.476  0.00  0.00    +0.000 A 
ATOM      3  N   UNL     1       3.292   5.057  17.972  0.00  0.00    +0.000 N 
ATOM      4  C   UNL     1       3.299   6.448  17.959  0.00  0.00    +0.000 A 
ATOM      5  O   UNL     1       2.376   7.154  18.361  0.00  0.00    +0.000 OA
ATOM      6  N   UNL     1       4.419   7.044  17.473  0.00  0.00    +0.000 N 
ATOM      7  C   UNL     1       5.506   6.397  16.986  0.00  0.00    +0.000 A 
ATOM      8  O   UNL     1       6.492   6.993  16.553  0.00  0.00    +0.000 OA
ATOM      9  H   UNL     1       4.437   8.051  17.466  0.00  0.00    +0.000 HD
ENDROOT
BRANCH   2  10
ATOM     10  N   UNL     1       4.310   2.903  17.500  0.00  0.00    +0.000 N 
ATOM     11  H   UNL     1       4.449   2.581  18.460  0.00  0.00    +0.000 HD
ATOM     12  H   UNL     1       3.447   2.530  17.125  0.00  0.00    +0.000 HD
ENDBRANCH   2  10
BRANCH   1  13
ATOM     13  N   UNL     1       6.595   4.256  16.437  0.00  0.00    +0.000 N 
ATOM     14  H   UNL     1       7.392   4.553  17.013  0.00  0.00    +0.000 HD
BRANCH  13  15
ATOM     15  C   UNL     1       6.923   4.402  15.014  0.00  0.00    +0.000 C 
BRANCH  15  16
ATOM     16  C   UNL     1       5.727   3.998  14.151  0.00  0.00    +0.000 C 
BRANCH  16  18
ATOM     17  C   UNL     1       5.005   3.226  11.860  0.00  0.00    +0.000 C 
ATOM     18  C   UNL     1       6.183   3.572  12.756  0.00  0.00    +0.000 C 
ENDBRANCH  16  18
ENDBRANCH  15  16
ENDBRANCH  13  15
ENDBRANCH   1  13
BRANCH   3  19
ATOM     19  C   UNL     1       2.094   4.409  18.519  0.00  0.00    +0.000 C 
BRANCH  19  20
ATOM     20  C   UNL     1       2.135   4.223  20.042  0.00  0.00    +0.000 C 
ATOM     21  C   UNL     1       1.086   3.258  20.577  0.00  0.00    +0.000 C 
ENDBRANCH  19  20
ENDBRANCH   3  19
TORSDOF 7
ENDMDL
