MODEL 1
REMARK VINA RESULT:      -7.1      0.000      0.000
REMARK  Name = 
REMARK  21 active torsions:
REMARK  status: ('A' for Active; 'I' for Inactive)
REMARK    1  A    between atoms: C_1  and  O_2
REMARK    2  A    between atoms: O_2  and  C_3
REMARK    3  A    between atoms: C_6  and  C_7
REMARK    4  A    between atoms: C_7  and  C_8
REMARK    5  A    between atoms: C_8  and  C_9
REMARK    6  A    between atoms: C_9  and  O_10
REMARK    7  A    between atoms: C_9  and  C_11
REMARK    8  A    between atoms: C_11  and  C_12
REMARK    9  A    between atoms: C_11  and  C_15
REMARK   10  A    between atoms: C_12  and  C_13
REMARK   11  A    between atoms: C_12  and  C_14
REMARK   12  A    between atoms: C_15  and  O_16
REMARK   13  A    between atoms: C_15  and  C_17
REMARK   14  A    between atoms: C_17  and  C_18
REMARK   15  A    between atoms: C_18  and  C_19
REMARK   16  A    between atoms: C_22  and  O_23
REMARK   17  A    between atoms: O_23  and  C_24
REMARK   18  A    between atoms: C_25  and  O_26
REMARK   19  A    between atoms: O_26  and  C_27
REMARK   20  A    between atoms: C_30  and  O_31
REMARK   21  A    between atoms: O_31  and  C_32
REMARK                            x       y       z     vdW  Elec       q    Type
REMARK                         _______ _______ _______ _____ _____    ______ ____
ROOT
ATOM      1  C   UNL     1       2.582   3.932  19.517  0.00  0.00    +0.000 C 
ENDROOT
BRANCH   1   2
ATOM      2  C   UNL     1       1.175   3.394  20.124  0.00  0.00    +0.000 C 
ATOM      3  C   UNL     1       0.367   2.439  19.209  0.00  0.00    +0.000 C 
ATOM      4  C   UNL     1       1.257   2.648  21.466  0.00  0.00    +0.000 C 
ENDBRANCH   1   2
BRANCH   1   5
ATOM      5  C   UNL     1       3.705   2.838  19.333  0.00  0.00    +0.000 C 
BRANCH   5   6
ATOM      6  O   UNL     1       4.963   3.245  19.839  0.00  0.00    +0.000 OA
ATOM      7  H   UNL     1       5.191   2.667  20.590  0.00  0.00    +0.000 HD
ENDBRANCH   5   6
BRANCH   5   8
ATOM      8  C   UNL     1       4.004   2.482  17.887  0.00  0.00    +0.000 C 
BRANCH   8   9
ATOM      9  C   UNL     1       3.641   3.451  16.762  0.00  0.00    +0.000 C 
BRANCH   9  13
ATOM     10  C   UNL     1       7.204   5.056  14.811  0.00  0.00    +0.000 A 
ATOM     11  C   UNL     1       6.283   4.251  14.112  0.00  0.00    +0.000 A 
ATOM     12  C   UNL     1       5.138   3.755  14.718  0.00  0.00    +0.000 A 
ATOM     13  C   UNL     1       4.910   3.954  16.082  0.00  0.00    +0.000 A 
ATOM     14  C   UNL     1       5.881   4.672  16.788  0.00  0.00    +0.000 A 
ATOM     15  C   UNL     1       7.023   5.233  16.190  0.00  0.00    +0.000 A 
BRANCH  10  17
ATOM     16  C   UNL     1       8.153   5.455  12.707  0.00  0.00    +0.000 C 
ATOM     17  O   UNL     1       8.200   5.704  14.120  0.00  0.00    +0.000 OA
ENDBRANCH  10  17
BRANCH  15  18
ATOM     18  O   UNL     1       7.732   5.972  17.092  0.00  0.00    +0.000 OA
ATOM     19  C   UNL     1       7.255   7.249  17.485  0.00  0.00    +0.000 C 
ENDBRANCH  15  18
ENDBRANCH   9  13
ENDBRANCH   8   9
ENDBRANCH   5   8
ENDBRANCH   1   5
BRANCH   1  20
ATOM     20  C   UNL     1       3.158   5.158  20.347  0.00  0.00    +0.000 C 
BRANCH  20  21
ATOM     21  O   UNL     1       4.185   5.826  19.606  0.00  0.00    +0.000 OA
ATOM     22  H   UNL     1       4.973   5.250  19.609  0.00  0.00    +0.000 HD
ENDBRANCH  20  21
BRANCH  20  23
ATOM     23  C   UNL     1       2.147   6.241  20.746  0.00  0.00    +0.000 C 
BRANCH  23  24
ATOM     24  C   UNL     1       1.915   7.333  19.714  0.00  0.00    +0.000 C 
BRANCH  24  25
ATOM     25  C   UNL     1       1.315   8.544  20.380  0.00  0.00    +0.000 A 
ATOM     26  C   UNL     1       1.025   8.527  21.740  0.00  0.00    +0.000 A 
ATOM     27  C   UNL     1       0.480   9.656  22.345  0.00  0.00    +0.000 A 
ATOM     28  C   UNL     1       0.221  10.824  21.611  0.00  0.00    +0.000 A 
ATOM     29  C   UNL     1       0.547  10.868  20.243  0.00  0.00    +0.000 A 
ATOM     30  C   UNL     1       1.106   9.726  19.649  0.00  0.00    +0.000 A 
BRANCH  28  31
ATOM     31  O   UNL     1      -0.346  11.801  22.390  0.00  0.00    +0.000 OA
ATOM     32  C   UNL     1      -1.563  11.518  23.061  0.00  0.00    +0.000 C 
ENDBRANCH  28  31
BRANCH  29  33
ATOM     33  O   UNL     1       0.299  12.019  19.547  0.00  0.00    +0.000 OA
ATOM     34  C   UNL     1      -0.983  12.200  18.962  0.00  0.00    +0.000 C 
ENDBRANCH  29  33
ENDBRANCH  24  25
ENDBRANCH  23  24
ENDBRANCH  20  23
ENDBRANCH   1  20
TORSDOF 15
ENDMDL
MODEL 2
REMARK VINA RESULT:      -6.8      3.516      6.060
REMARK  Name = 
REMARK  21 active torsions:
REMARK  status: ('A' for Active; 'I' for Inactive)
REMARK    1  A    between atoms: C_1  and  O_2
REMARK    2  A    between atoms: O_2  and  C_3
REMARK    3  A    between atoms: C_6  and  C_7
REMARK    4  A    between atoms: C_7  and  C_8
REMARK    5  A    between atoms: C_8  and  C_9
REMARK    6  A    between atoms: C_9  and  O_10
REMARK    7  A    between atoms: C_9  and  C_11
REMARK    8  A    between atoms: C_11  and  C_12
REMARK    9  A    between atoms: C_11  and  C_15
REMARK   10  A    between atoms: C_12  and  C_13
REMARK   11  A    between atoms: C_12  and  C_14
REMARK   12  A    between atoms: C_15  and  O_16
REMARK   13  A    between atoms: C_15  and  C_17
REMARK   14  A    between atoms: C_17  and  C_18
REMARK   15  A    between atoms: C_18  and  C_19
REMARK   16  A    between atoms: C_22  and  O_23
REMARK   17  A    between atoms: O_23  and  C_24
REMARK   18  A    between atoms: C_25  and  O_26
REMARK   19  A    between atoms: O_26  and  C_27
REMARK   20  A    between atoms: C_30  and  O_31
REMARK   21  A    between atoms: O_31  and  C_32
REMARK                            x       y       z     vdW  Elec       q    Type
REMARK                         _______ _______ _______ _____ _____    ______ ____
ROOT
ATOM      1  C   UNL     1       6.213   5.957  17.754  0.00  0.00    +0.000 C 
ENDROOT
BRANCH   1   2
ATOM      2  C   UNL     1       6.377   5.771  16.149  0.00  0.00    +0.000 C 
ATOM      3  C   UNL     1       7.473   4.775  15.694  0.00  0.00    +0.000 C 
ATOM      4  C   UNL     1       5.119   5.320  15.388  0.00  0.00    +0.000 C 
ENDBRANCH   1   2
BRANCH   1   5
ATOM      5  C   UNL     1       7.551   5.885  18.587  0.00  0.00    +0.000 C 
BRANCH   5   6
ATOM      6  O   UNL     1       7.340   5.570  19.951  0.00  0.00    +0.000 OA
ATOM      7  H   UNL     1       7.216   4.607  20.026  0.00  0.00    +0.000 HD
ENDBRANCH   5   6
BRANCH   5   8
ATOM      8  C   UNL     1       8.329   7.188  18.641  0.00  0.00    +0.000 C 
BRANCH   8   9
ATOM      9  C   UNL     1       7.855   8.404  17.843  0.00  0.00    +0.000 C 
BRANCH   9  13
ATOM     10  C   UNL     1       9.892  12.012  19.226  0.00  0.00    +0.000 A 
ATOM     11  C   UNL     1      10.068  10.775  19.875  0.00  0.00    +0.000 A 
ATOM     12  C   UNL     1       9.442   9.620  19.429  0.00  0.00    +0.000 A 
ATOM     13  C   UNL     1       8.527   9.666  18.375  0.00  0.00    +0.000 A 
ATOM     14  C   UNL     1       8.285  10.919  17.801  0.00  0.00    +0.000 A 
ATOM     15  C   UNL     1       8.945  12.096  18.195  0.00  0.00    +0.000 A 
BRANCH  10  17
ATOM     16  C   UNL     1      11.866  13.173  18.735  0.00  0.00    +0.000 C 
ATOM     17  O   UNL     1      10.696  13.075  19.561  0.00  0.00    +0.000 OA
ENDBRANCH  10  17
BRANCH  15  18
ATOM     18  O   UNL     1       8.597  13.141  17.390  0.00  0.00    +0.000 OA
ATOM     19  C   UNL     1       7.262  13.618  17.393  0.00  0.00    +0.000 C 
ENDBRANCH  15  18
ENDBRANCH   9  13
ENDBRANCH   8   9
ENDBRANCH   5   8
ENDBRANCH   1   5
BRANCH   1  20
ATOM     20  C   UNL     1       5.147   4.950  18.365  0.00  0.00    +0.000 C 
BRANCH  20  21
ATOM     21  O   UNL     1       5.780   3.730  18.764  0.00  0.00    +0.000 OA
ATOM     22  H   UNL     1       6.537   3.963  19.334  0.00  0.00    +0.000 HD
ENDBRANCH  20  21
BRANCH  20  23
ATOM     23  C   UNL     1       4.368   5.448  19.590  0.00  0.00    +0.000 C 
BRANCH  23  24
ATOM     24  C   UNL     1       2.855   5.439  19.452  0.00  0.00    +0.000 C 
BRANCH  24  25
ATOM     25  C   UNL     1       2.355   6.844  19.230  0.00  0.00    +0.000 A 
ATOM     26  C   UNL     1       2.518   7.459  17.993  0.00  0.00    +0.000 A 
ATOM     27  C   UNL     1       2.044   8.754  17.798  0.00  0.00    +0.000 A 
ATOM     28  C   UNL     1       1.392   9.455  18.824  0.00  0.00    +0.000 A 
ATOM     29  C   UNL     1       1.185   8.828  20.066  0.00  0.00    +0.000 A 
ATOM     30  C   UNL     1       1.659   7.519  20.245  0.00  0.00    +0.000 A 
BRANCH  28  31
ATOM     31  O   UNL     1       1.037  10.720  18.432  0.00  0.00    +0.000 OA
ATOM     32  C   UNL     1       1.761  11.824  18.951  0.00  0.00    +0.000 C 
ENDBRANCH  28  31
BRANCH  29  33
ATOM     33  O   UNL     1       0.537   9.523  21.051  0.00  0.00    +0.000 OA
ATOM     34  C   UNL     1       0.930   9.321  22.401  0.00  0.00    +0.000 C 
ENDBRANCH  29  33
ENDBRANCH  24  25
ENDBRANCH  23  24
ENDBRANCH  20  23
ENDBRANCH   1  20
TORSDOF 15
ENDMDL
MODEL 3
REMARK VINA RESULT:      -6.6      3.592      7.821
REMARK  Name = 
REMARK  21 active torsions:
REMARK  status: ('A' for Active; 'I' for Inactive)
REMARK    1  A    between atoms: C_1  and  O_2
REMARK    2  A    between atoms: O_2  and  C_3
REMARK    3  A    between atoms: C_6  and  C_7
REMARK    4  A    between atoms: C_7  and  C_8
REMARK    5  A    between atoms: C_8  and  C_9
REMARK    6  A    between atoms: C_9  and  O_10
REMARK    7  A    between atoms: C_9  and  C_11
REMARK    8  A    between atoms: C_11  and  C_12
REMARK    9  A    between atoms: C_11  and  C_15
REMARK   10  A    between atoms: C_12  and  C_13
REMARK   11  A    between atoms: C_12  and  C_14
REMARK   12  A    between atoms: C_15  and  O_16
REMARK   13  A    between atoms: C_15  and  C_17
REMARK   14  A    between atoms: C_17  and  C_18
REMARK   15  A    between atoms: C_18  and  C_19
REMARK   16  A    between atoms: C_22  and  O_23
REMARK   17  A    between atoms: O_23  and  C_24
REMARK   18  A    between atoms: C_25  and  O_26
REMARK   19  A    between atoms: O_26  and  C_27
REMARK   20  A    between atoms: C_30  and  O_31
REMARK   21  A    between atoms: O_31  and  C_32
REMARK                            x       y       z     vdW  Elec       q    Type
REMARK                         _______ _______ _______ _____ _____    ______ ____
ROOT
ATOM      1  C   UNL     1       6.733   5.181  17.842  0.00  0.00    +0.000 C 
ENDROOT
BRANCH   1   2
ATOM      2  C   UNL     1       6.516   5.569  16.280  0.00  0.00    +0.000 C 
ATOM      3  C   UNL     1       6.616   4.395  15.273  0.00  0.00    +0.000 C 
ATOM      4  C   UNL     1       5.184   6.252  15.931  0.00  0.00    +0.000 C 
ENDBRANCH   1   2
BRANCH   1   5
ATOM      5  C   UNL     1       5.479   4.556  18.568  0.00  0.00    +0.000 C 
BRANCH   5   6
ATOM      6  O   UNL     1       4.626   3.845  17.689  0.00  0.00    +0.000 OA
ATOM      7  H   UNL     1       3.915   3.440  18.217  0.00  0.00    +0.000 HD
ENDBRANCH   5   6
BRANCH   5   8
ATOM      8  C   UNL     1       4.554   5.574  19.212  0.00  0.00    +0.000 C 
BRANCH   8   9
ATOM      9  C   UNL     1       3.059   5.571  18.889  0.00  0.00    +0.000 C 
BRANCH   9  13
ATOM     10  C   UNL     1       1.312   9.567  19.130  0.00  0.00    +0.000 A 
ATOM     11  C   UNL     1       1.962   9.118  17.964  0.00  0.00    +0.000 A 
ATOM     12  C   UNL     1       2.500   7.843  17.871  0.00  0.00    +0.000 A 
ATOM     13  C   UNL     1       2.507   6.990  18.977  0.00  0.00    +0.000 A 
ATOM     14  C   UNL     1       1.947   7.483  20.160  0.00  0.00    +0.000 A 
ATOM     15  C   UNL     1       1.345   8.749  20.268  0.00  0.00    +0.000 A 
BRANCH  10  17
ATOM     16  C   UNL     1      -0.658  10.623  18.429  0.00  0.00    +0.000 C 
ATOM     17  O   UNL     1       0.605  10.745  19.102  0.00  0.00    +0.000 OA
ENDBRANCH  10  17
BRANCH  15  18
ATOM     18  O   UNL     1       0.785   8.918  21.501  0.00  0.00    +0.000 OA
ATOM     19  C   UNL     1      -0.528   8.442  21.748  0.00  0.00    +0.000 C 
ENDBRANCH  15  18
ENDBRANCH   9  13
ENDBRANCH   8   9
ENDBRANCH   5   8
ENDBRANCH   1   5
BRANCH   1  20
ATOM     20  C   UNL     1       7.287   6.406  18.688  0.00  0.00    +0.000 C 
BRANCH  20  21
ATOM     21  O   UNL     1       8.077   5.940  19.788  0.00  0.00    +0.000 OA
ATOM     22  H   UNL     1       8.144   6.668  20.434  0.00  0.00    +0.000 HD
ENDBRANCH  20  21
BRANCH  20  23
ATOM     23  C   UNL     1       8.164   7.413  17.930  0.00  0.00    +0.000 C 
BRANCH  23  24
ATOM     24  C   UNL     1       7.496   8.734  17.588  0.00  0.00    +0.000 C 
BRANCH  24  25
ATOM     25  C   UNL     1       8.296   9.874  18.166  0.00  0.00    +0.000 A 
ATOM     26  C   UNL     1       9.270   9.631  19.128  0.00  0.00    +0.000 A 
ATOM     27  C   UNL     1      10.009  10.692  19.646  0.00  0.00    +0.000 A 
ATOM     28  C   UNL     1       9.798  12.009  19.212  0.00  0.00    +0.000 A 
ATOM     29  C   UNL     1       8.844  12.262  18.210  0.00  0.00    +0.000 A 
ATOM     30  C   UNL     1       8.114  11.183  17.689  0.00  0.00    +0.000 A 
BRANCH  28  31
ATOM     31  O   UNL     1      10.605  12.900  19.873  0.00  0.00    +0.000 OA
ATOM     32  C   UNL     1      11.756  13.400  19.211  0.00  0.00    +0.000 C 
ENDBRANCH  28  31
BRANCH  29  33
ATOM     33  O   UNL     1       8.660  13.552  17.790  0.00  0.00    +0.000 OA
ATOM     34  C   UNL     1       7.335  14.045  17.659  0.00  0.00    +0.000 C 
ENDBRANCH  29  33
ENDBRANCH  24  25
ENDBRANCH  23  24
ENDBRANCH  20  23
ENDBRANCH   1  20
TORSDOF 15
ENDMDL
MODEL 4
REMARK VINA RESULT:      -6.5      2.816     10.890
REMARK  Name = 
REMARK  21 active torsions:
REMARK  status: ('A' for Active; 'I' for Inactive)
REMARK    1  A    between atoms: C_1  and  O_2
REMARK    2  A    between atoms: O_2  and  C_3
REMARK    3  A    between atoms: C_6  and  C_7
REMARK    4  A    between atoms: C_7  and  C_8
REMARK    5  A    between atoms: C_8  and  C_9
REMARK    6  A    between atoms: C_9  and  O_10
REMARK    7  A    between atoms: C_9  and  C_11
REMARK    8  A    between atoms: C_11  and  C_12
REMARK    9  A    between atoms: C_11  and  C_15
REMARK   10  A    between atoms: C_12  and  C_13
REMARK   11  A    between atoms: C_12  and  C_14
REMARK   12  A    between atoms: C_15  and  O_16
REMARK   13  A    between atoms: C_15  and  C_17
REMARK   14  A    between atoms: C_17  and  C_18
REMARK   15  A    between atoms: C_18  and  C_19
REMARK   16  A    between atoms: C_22  and  O_23
REMARK   17  A    between atoms: O_23  and  C_24
REMARK   18  A    between atoms: C_25  and  O_26
REMARK   19  A    between atoms: O_26  and  C_27
REMARK   20  A    between atoms: C_30  and  O_31
REMARK   21  A    between atoms: O_31  and  C_32
REMARK                            x       y       z     vdW  Elec       q    Type
REMARK                         _______ _______ _______ _____ _____    ______ ____
ROOT
ATOM      1  C   UNL     1       0.716   9.928  19.421  0.00  0.00    +0.000 C 
ENDROOT
BRANCH   1   2
ATOM      2  C   UNL     1       0.726   9.270  20.905  0.00  0.00    +0.000 C 
ATOM      3  C   UNL     1       0.698  10.272  22.087  0.00  0.00    +0.000 C 
ATOM      4  C   UNL     1      -0.415   8.288  21.218  0.00  0.00    +0.000 C 
ENDBRANCH   1   2
BRANCH   1   5
ATOM      5  C   UNL     1      -0.681  10.472  18.927  0.00  0.00    +0.000 C 
BRANCH   5   6
ATOM      6  O   UNL     1      -0.961  10.141  17.579  0.00  0.00    +0.000 OA
ATOM      7  H   UNL     1      -0.887   9.175  17.481  0.00  0.00    +0.000 HD
ENDBRANCH   5   6
BRANCH   5   8
ATOM      8  C   UNL     1      -0.811  11.985  18.954  0.00  0.00    +0.000 C 
BRANCH   8   9
ATOM      9  C   UNL     1      -1.210  12.703  20.245  0.00  0.00    +0.000 C 
BRANCH   9  13
ATOM     10  C   UNL     1      -5.519  12.318  20.849  0.00  0.00    +0.000 A 
ATOM     11  C   UNL     1      -4.951  12.274  19.561  0.00  0.00    +0.000 A 
ATOM     12  C   UNL     1      -3.581  12.373  19.362  0.00  0.00    +0.000 A 
ATOM     13  C   UNL     1      -2.721  12.627  20.433  0.00  0.00    +0.000 A 
ATOM     14  C   UNL     1      -3.308  12.767  21.696  0.00  0.00    +0.000 A 
ATOM     15  C   UNL     1      -4.685  12.616  21.936  0.00  0.00    +0.000 A 
BRANCH  10  17
ATOM     16  C   UNL     1      -7.699  13.148  21.060  0.00  0.00    +0.000 C 
ATOM     17  O   UNL     1      -6.844  11.996  21.018  0.00  0.00    +0.000 OA
ENDBRANCH  10  17
BRANCH  15  18
ATOM     18  O   UNL     1      -4.957  12.693  23.271  0.00  0.00    +0.000 OA
ATOM     19  C   UNL     1      -3.963  12.327  24.214  0.00  0.00    +0.000 C 
ENDBRANCH  15  18
ENDBRANCH   9  13
ENDBRANCH   8   9
ENDBRANCH   5   8
ENDBRANCH   1   5
BRANCH   1  20
ATOM     20  C   UNL     1       1.324   8.946  18.330  0.00  0.00    +0.000 C 
BRANCH  20  21
ATOM     21  O   UNL     1       1.923   9.690  17.263  0.00  0.00    +0.000 OA
ATOM     22  H   UNL     1       2.887   9.555  17.314  0.00  0.00    +0.000 HD
ENDBRANCH  20  21
BRANCH  20  23
ATOM     23  C   UNL     1       2.399   7.967  18.823  0.00  0.00    +0.000 C 
BRANCH  23  24
ATOM     24  C   UNL     1       2.095   6.495  18.599  0.00  0.00    +0.000 C 
BRANCH  24  25
ATOM     25  C   UNL     1       3.234   5.848  17.853  0.00  0.00    +0.000 A 
ATOM     26  C   UNL     1       3.167   4.505  17.495  0.00  0.00    +0.000 A 
ATOM     27  C   UNL     1       4.221   3.922  16.798  0.00  0.00    +0.000 A 
ATOM     28  C   UNL     1       5.356   4.663  16.436  0.00  0.00    +0.000 A 
ATOM     29  C   UNL     1       5.418   6.032  16.757  0.00  0.00    +0.000 A 
ATOM     30  C   UNL     1       4.343   6.609  17.450  0.00  0.00    +0.000 A 
BRANCH  28  31
ATOM     31  O   UNL     1       6.285   3.891  15.788  0.00  0.00    +0.000 OA
ATOM     32  C   UNL     1       6.403   4.004  14.379  0.00  0.00    +0.000 C 
ENDBRANCH  28  31
BRANCH  29  33
ATOM     33  O   UNL     1       6.528   6.742  16.385  0.00  0.00    +0.000 OA
ATOM     34  C   UNL     1       7.414   7.200  17.396  0.00  0.00    +0.000 C 
ENDBRANCH  29  33
ENDBRANCH  24  25
ENDBRANCH  23  24
ENDBRANCH  20  23
ENDBRANCH   1  20
TORSDOF 15
ENDMDL
MODEL 5
REMARK VINA RESULT:      -6.5      3.358      6.756
REMARK  Name = 
REMARK  21 active torsions:
REMARK  status: ('A' for Active; 'I' for Inactive)
REMARK    1  A    between atoms: C_1  and  O_2
REMARK    2  A    between atoms: O_2  and  C_3
REMARK    3  A    between atoms: C_6  and  C_7
REMARK    4  A    between atoms: C_7  and  C_8
REMARK    5  A    between atoms: C_8  and  C_9
REMARK    6  A    between atoms: C_9  and  O_10
REMARK    7  A    between atoms: C_9  and  C_11
REMARK    8  A    between atoms: C_11  and  C_12
REMARK    9  A    between atoms: C_11  and  C_15
REMARK   10  A    between atoms: C_12  and  C_13
REMARK   11  A    between atoms: C_12  and  C_14
REMARK   12  A    between atoms: C_15  and  O_16
REMARK   13  A    between atoms: C_15  and  C_17
REMARK   14  A    between atoms: C_17  and  C_18
REMARK   15  A    between atoms: C_18  and  C_19
REMARK   16  A    between atoms: C_22  and  O_23
REMARK   17  A    between atoms: O_23  and  C_24
REMARK   18  A    between atoms: C_25  and  O_26
REMARK   19  A    between atoms: O_26  and  C_27
REMARK   20  A    between atoms: C_30  and  O_31
REMARK   21  A    between atoms: O_31  and  C_32
REMARK                            x       y       z     vdW  Elec       q    Type
REMARK                         _______ _______ _______ _____ _____    ______ ____
ROOT
ATOM      1  C   UNL     1       0.609  10.280  19.513  0.00  0.00    +0.000 C 
ENDROOT
BRANCH   1   2
ATOM      2  C   UNL     1       0.436   9.392  20.862  0.00  0.00    +0.000 C 
ATOM      3  C   UNL     1       1.690   9.290  21.767  0.00  0.00    +0.000 C 
ATOM      4  C   UNL     1      -0.685   9.827  21.819  0.00  0.00    +0.000 C 
ENDBRANCH   1   2
BRANCH   1   5
ATOM      5  C   UNL     1       1.846   9.905  18.606  0.00  0.00    +0.000 C 
BRANCH   5   6
ATOM      6  O   UNL     1       2.005  10.772  17.498  0.00  0.00    +0.000 OA
ATOM      7  H   UNL     1       2.313  11.635  17.829  0.00  0.00    +0.000 HD
ENDBRANCH   5   6
BRANCH   5   8
ATOM      8  C   UNL     1       1.764   8.528  17.969  0.00  0.00    +0.000 C 
BRANCH   8   9
ATOM      9  C   UNL     1       2.980   7.601  17.977  0.00  0.00    +0.000 C 
BRANCH   9  13
ATOM     10  C   UNL     1       1.808   3.841  19.866  0.00  0.00    +0.000 A 
ATOM     11  C   UNL     1       1.771   5.059  20.571  0.00  0.00    +0.000 A 
ATOM     12  C   UNL     1       2.120   6.261  19.972  0.00  0.00    +0.000 A 
ATOM     13  C   UNL     1       2.625   6.289  18.670  0.00  0.00    +0.000 A 
ATOM     14  C   UNL     1       2.750   5.059  18.013  0.00  0.00    +0.000 A 
ATOM     15  C   UNL     1       2.352   3.833  18.574  0.00  0.00    +0.000 A 
BRANCH  10  17
ATOM     16  C   UNL     1       1.612   2.533  21.800  0.00  0.00    +0.000 C 
ATOM     17  O   UNL     1       1.246   2.717  20.423  0.00  0.00    +0.000 OA
ENDBRANCH  10  17
BRANCH  15  18
ATOM     18  O   UNL     1       2.483   2.820  17.669  0.00  0.00    +0.000 OA
ATOM     19  C   UNL     1       3.392   1.761  17.925  0.00  0.00    +0.000 C 
ENDBRANCH  15  18
ENDBRANCH   9  13
ENDBRANCH   8   9
ENDBRANCH   5   8
ENDBRANCH   1   5
BRANCH   1  20
ATOM     20  C   UNL     1       0.625  11.838  19.822  0.00  0.00    +0.000 C 
BRANCH  20  21
ATOM     21  O   UNL     1       1.917  12.391  19.548  0.00  0.00    +0.000 OA
ATOM     22  H   UNL     1       2.582  11.711  19.765  0.00  0.00    +0.000 HD
ENDBRANCH  20  21
BRANCH  20  23
ATOM     23  C   UNL     1      -0.381  12.694  19.041  0.00  0.00    +0.000 C 
BRANCH  23  24
ATOM     24  C   UNL     1      -1.373  11.922  18.187  0.00  0.00    +0.000 C 
BRANCH  24  25
ATOM     25  C   UNL     1      -2.752  12.031  18.784  0.00  0.00    +0.000 A 
ATOM     26  C   UNL     1      -3.858  11.552  18.090  0.00  0.00    +0.000 A 
ATOM     27  C   UNL     1      -5.126  11.651  18.657  0.00  0.00    +0.000 A 
ATOM     28  C   UNL     1      -5.316  12.218  19.926  0.00  0.00    +0.000 A 
ATOM     29  C   UNL     1      -4.200  12.669  20.655  0.00  0.00    +0.000 A 
ATOM     30  C   UNL     1      -2.928  12.554  20.076  0.00  0.00    +0.000 A 
BRANCH  28  31
ATOM     31  O   UNL     1      -6.641  12.247  20.279  0.00  0.00    +0.000 OA
ATOM     32  C   UNL     1      -7.510  13.134  19.594  0.00  0.00    +0.000 C 
ENDBRANCH  28  31
BRANCH  29  33
ATOM     33  O   UNL     1      -4.404  13.209  21.897  0.00  0.00    +0.000 OA
ATOM     34  C   UNL     1      -4.622  14.609  22.005  0.00  0.00    +0.000 C 
ENDBRANCH  29  33
ENDBRANCH  24  25
ENDBRANCH  23  24
ENDBRANCH  20  23
ENDBRANCH   1  20
TORSDOF 15
ENDMDL
MODEL 6
REMARK VINA RESULT:      -6.5      2.377     10.649
REMARK  Name = 
REMARK  21 active torsions:
REMARK  status: ('A' for Active; 'I' for Inactive)
REMARK    1  A    between atoms: C_1  and  O_2
REMARK    2  A    between atoms: O_2  and  C_3
REMARK    3  A    between atoms: C_6  and  C_7
REMARK    4  A    between atoms: C_7  and  C_8
REMARK    5  A    between atoms: C_8  and  C_9
REMARK    6  A    between atoms: C_9  and  O_10
REMARK    7  A    between atoms: C_9  and  C_11
REMARK    8  A    between atoms: C_11  and  C_12
REMARK    9  A    between atoms: C_11  and  C_15
REMARK   10  A    between atoms: C_12  and  C_13
REMARK   11  A    between atoms: C_12  and  C_14
REMARK   12  A    between atoms: C_15  and  O_16
REMARK   13  A    between atoms: C_15  and  C_17
REMARK   14  A    between atoms: C_17  and  C_18
REMARK   15  A    between atoms: C_18  and  C_19
REMARK   16  A    between atoms: C_22  and  O_23
REMARK   17  A    between atoms: O_23  and  C_24
REMARK   18  A    between atoms: C_25  and  O_26
REMARK   19  A    between atoms: O_26  and  C_27
REMARK   20  A    between atoms: C_30  and  O_31
REMARK   21  A    between atoms: O_31  and  C_32
REMARK                            x       y       z     vdW  Elec       q    Type
REMARK                         _______ _______ _______ _____ _____    ______ ____
ROOT
ATOM      1  C   UNL     1       0.473  10.153  19.178  0.00  0.00    +0.000 C 
ENDROOT
BRANCH   1   2
ATOM      2  C   UNL     1       0.594   9.198  20.486  0.00  0.00    +0.000 C 
ATOM      3  C   UNL     1       1.428   9.767  21.661  0.00  0.00    +0.000 C 
ATOM      4  C   UNL     1      -0.731   8.771  21.138  0.00  0.00    +0.000 C 
ENDBRANCH   1   2
BRANCH   1   5
ATOM      5  C   UNL     1      -0.994  10.578  18.780  0.00  0.00    +0.000 C 
BRANCH   5   6
ATOM      6  O   UNL     1      -1.471   9.913  17.625  0.00  0.00    +0.000 OA
ATOM      7  H   UNL     1      -2.200  10.439  17.249  0.00  0.00    +0.000 HD
ENDBRANCH   5   6
BRANCH   5   8
ATOM      8  C   UNL     1      -1.151  12.048  18.432  0.00  0.00    +0.000 C 
BRANCH   8   9
ATOM      9  C   UNL     1      -0.969  13.119  19.508  0.00  0.00    +0.000 C 
BRANCH   9  13
ATOM     10  C   UNL     1      -3.352  12.274  23.070  0.00  0.00    +0.000 A 
ATOM     11  C   UNL     1      -1.967  12.018  23.034  0.00  0.00    +0.000 A 
ATOM     12  C   UNL     1      -1.199  12.304  21.915  0.00  0.00    +0.000 A 
ATOM     13  C   UNL     1      -1.796  12.763  20.739  0.00  0.00    +0.000 A 
ATOM     14  C   UNL     1      -3.187  12.919  20.754  0.00  0.00    +0.000 A 
ATOM     15  C   UNL     1      -3.983  12.690  21.889  0.00  0.00    +0.000 A 
BRANCH  10  17
ATOM     16  C   UNL     1      -3.978  13.400  25.026  0.00  0.00    +0.000 C 
ATOM     17  O   UNL     1      -4.028  12.185  24.263  0.00  0.00    +0.000 OA
ENDBRANCH  10  17
BRANCH  15  18
ATOM     18  O   UNL     1      -5.283  13.031  21.648  0.00  0.00    +0.000 OA
ATOM     19  C   UNL     1      -6.121  12.144  20.926  0.00  0.00    +0.000 C 
ENDBRANCH  15  18
ENDBRANCH   9  13
ENDBRANCH   8   9
ENDBRANCH   5   8
ENDBRANCH   1   5
BRANCH   1  20
ATOM     20  C   UNL     1       1.211   9.531  17.916  0.00  0.00    +0.000 C 
BRANCH  20  21
ATOM     21  O   UNL     1       2.284  10.380  17.493  0.00  0.00    +0.000 OA
ATOM     22  H   UNL     1       1.919  11.275  17.363  0.00  0.00    +0.000 HD
ENDBRANCH  20  21
BRANCH  20  23
ATOM     23  C   UNL     1       1.820   8.135  18.107  0.00  0.00    +0.000 C 
BRANCH  23  24
ATOM     24  C   UNL     1       3.215   7.947  17.534  0.00  0.00    +0.000 C 
BRANCH  24  25
ATOM     25  C   UNL     1       3.821   6.677  18.074  0.00  0.00    +0.000 A 
ATOM     26  C   UNL     1       3.190   5.978  19.098  0.00  0.00    +0.000 A 
ATOM     27  C   UNL     1       3.755   4.801  19.582  0.00  0.00    +0.000 A 
ATOM     28  C   UNL     1       4.950   4.294  19.053  0.00  0.00    +0.000 A 
ATOM     29  C   UNL     1       5.577   4.970  17.989  0.00  0.00    +0.000 A 
ATOM     30  C   UNL     1       4.991   6.149  17.504  0.00  0.00    +0.000 A 
BRANCH  28  31
ATOM     31  O   UNL     1       5.347   3.148  19.694  0.00  0.00    +0.000 OA
ATOM     32  C   UNL     1       4.368   2.175  20.020  0.00  0.00    +0.000 C 
ENDBRANCH  28  31
BRANCH  29  33
ATOM     33  O   UNL     1       6.736   4.453  17.477  0.00  0.00    +0.000 OA
ATOM     34  C   UNL     1       6.883   4.371  16.067  0.00  0.00    +0.000 C 
ENDBRANCH  29  33
ENDBRANCH  24  25
ENDBRANCH  23  24
ENDBRANCH  20  23
ENDBRANCH   1  20
TORSDOF 15
ENDMDL
MODEL 7
REMARK VINA RESULT:      -6.5      3.617      5.950
REMARK  Name = 
REMARK  21 active torsions:
REMARK  status: ('A' for Active; 'I' for Inactive)
REMARK    1  A    between atoms: C_1  and  O_2
REMARK    2  A    between atoms: O_2  and  C_3
REMARK    3  A    between atoms: C_6  and  C_7
REMARK    4  A    between atoms: C_7  and  C_8
REMARK    5  A    between atoms: C_8  and  C_9
REMARK    6  A    between atoms: C_9  and  O_10
REMARK    7  A    between atoms: C_9  and  C_11
REMARK    8  A    between atoms: C_11  and  C_12
REMARK    9  A    between atoms: C_11  and  C_15
REMARK   10  A    between atoms: C_12  and  C_13
REMARK   11  A    between atoms: C_12  and  C_14
REMARK   12  A    between atoms: C_15  and  O_16
REMARK   13  A    between atoms: C_15  and  C_17
REMARK   14  A    between atoms: C_17  and  C_18
REMARK   15  A    between atoms: C_18  and  C_19
REMARK   16  A    between atoms: C_22  and  O_23
REMARK   17  A    between atoms: O_23  and  C_24
REMARK   18  A    between atoms: C_25  and  O_26
REMARK   19  A    between atoms: O_26  and  C_27
REMARK   20  A    between atoms: C_30  and  O_31
REMARK   21  A    between atoms: O_31  and  C_32
REMARK                            x       y       z     vdW  Elec       q    Type
REMARK                         _______ _______ _______ _____ _____    ______ ____
ROOT
ATOM      1  C   UNL     1       6.014   5.890  17.707  0.00  0.00    +0.000 C 
ENDROOT
BRANCH   1   2
ATOM      2  C   UNL     1       5.470   5.466  16.237  0.00  0.00    +0.000 C 
ATOM      3  C   UNL     1       5.133   6.637  15.280  0.00  0.00    +0.000 C 
ATOM      4  C   UNL     1       6.395   4.559  15.409  0.00  0.00    +0.000 C 
ENDBRANCH   1   2
BRANCH   1   5
ATOM      5  C   UNL     1       7.582   6.014  17.843  0.00  0.00    +0.000 C 
BRANCH   5   6
ATOM      6  O   UNL     1       8.136   5.082  18.753  0.00  0.00    +0.000 OA
ATOM      7  H   UNL     1       7.970   4.186  18.409  0.00  0.00    +0.000 HD
ENDBRANCH   5   6
BRANCH   5   8
ATOM      8  C   UNL     1       8.063   7.354  18.373  0.00  0.00    +0.000 C 
BRANCH   8   9
ATOM      9  C   UNL     1       7.897   8.621  17.532  0.00  0.00    +0.000 C 
BRANCH   9  13
ATOM     10  C   UNL     1       9.773  12.034  19.511  0.00  0.00    +0.000 A 
ATOM     11  C   UNL     1       9.833  10.740  20.064  0.00  0.00    +0.000 A 
ATOM     12  C   UNL     1       9.259   9.647  19.431  0.00  0.00    +0.000 A 
ATOM     13  C   UNL     1       8.506   9.811  18.266  0.00  0.00    +0.000 A 
ATOM     14  C   UNL     1       8.370  11.116  17.779  0.00  0.00    +0.000 A 
ATOM     15  C   UNL     1       8.986  12.235  18.367  0.00  0.00    +0.000 A 
BRANCH  10  17
ATOM     16  C   UNL     1       9.856  13.766  21.085  0.00  0.00    +0.000 C 
ATOM     17  O   UNL     1      10.538  13.039  20.051  0.00  0.00    +0.000 OA
ENDBRANCH  10  17
BRANCH  15  18
ATOM     18  O   UNL     1       8.775  13.356  17.619  0.00  0.00    +0.000 OA
ATOM     19  C   UNL     1       7.692  14.217  17.930  0.00  0.00    +0.000 C 
ENDBRANCH  15  18
ENDBRANCH   9  13
ENDBRANCH   8   9
ENDBRANCH   5   8
ENDBRANCH   1   5
BRANCH   1  20
ATOM     20  C   UNL     1       5.452   4.937  18.848  0.00  0.00    +0.000 C 
BRANCH  20  21
ATOM     21  O   UNL     1       6.216   5.087  20.049  0.00  0.00    +0.000 OA
ATOM     22  H   UNL     1       6.958   4.454  20.009  0.00  0.00    +0.000 HD
ENDBRANCH  20  21
BRANCH  20  23
ATOM     23  C   UNL     1       3.985   5.148  19.246  0.00  0.00    +0.000 C 
BRANCH  23  24
ATOM     24  C   UNL     1       3.147   5.943  18.257  0.00  0.00    +0.000 C 
BRANCH  24  25
ATOM     25  C   UNL     1       2.418   7.047  18.979  0.00  0.00    +0.000 A 
ATOM     26  C   UNL     1       2.069   6.901  20.318  0.00  0.00    +0.000 A 
ATOM     27  C   UNL     1       1.405   7.932  20.976  0.00  0.00    +0.000 A 
ATOM     28  C   UNL     1       1.083   9.129  20.319  0.00  0.00    +0.000 A 
ATOM     29  C   UNL     1       1.467   9.306  18.977  0.00  0.00    +0.000 A 
ATOM     30  C   UNL     1       2.145   8.262  18.329  0.00  0.00    +0.000 A 
BRANCH  28  31
ATOM     31  O   UNL     1       0.403   9.994  21.137  0.00  0.00    +0.000 OA
ATOM     32  C   UNL     1       0.070   9.572  22.450  0.00  0.00    +0.000 C 
ENDBRANCH  28  31
BRANCH  29  33
ATOM     33  O   UNL     1       1.156  10.485  18.356  0.00  0.00    +0.000 OA
ATOM     34  C   UNL     1       2.153  11.492  18.265  0.00  0.00    +0.000 C 
ENDBRANCH  29  33
ENDBRANCH  24  25
ENDBRANCH  23  24
ENDBRANCH  20  23
ENDBRANCH   1  20
TORSDOF 15
ENDMDL
MODEL 8
REMARK VINA RESULT:      -6.5      1.605      2.938
REMARK  Name = 
REMARK  21 active torsions:
REMARK  status: ('A' for Active; 'I' for Inactive)
REMARK    1  A    between atoms: C_1  and  O_2
REMARK    2  A    between atoms: O_2  and  C_3
REMARK    3  A    between atoms: C_6  and  C_7
REMARK    4  A    between atoms: C_7  and  C_8
REMARK    5  A    between atoms: C_8  and  C_9
REMARK    6  A    between atoms: C_9  and  O_10
REMARK    7  A    between atoms: C_9  and  C_11
REMARK    8  A    between atoms: C_11  and  C_12
REMARK    9  A    between atoms: C_11  and  C_15
REMARK   10  A    between atoms: C_12  and  C_13
REMARK   11  A    between atoms: C_12  and  C_14
REMARK   12  A    between atoms: C_15  and  O_16
REMARK   13  A    between atoms: C_15  and  C_17
REMARK   14  A    between atoms: C_17  and  C_18
REMARK   15  A    between atoms: C_18  and  C_19
REMARK   16  A    between atoms: C_22  and  O_23
REMARK   17  A    between atoms: O_23  and  C_24
REMARK   18  A    between atoms: C_25  and  O_26
REMARK   19  A    between atoms: O_26  and  C_27
REMARK   20  A    between atoms: C_30  and  O_31
REMARK   21  A    between atoms: O_31  and  C_32
REMARK                            x       y       z     vdW  Elec       q    Type
REMARK                         _______ _______ _______ _____ _____    ______ ____
ROOT
ATOM      1  C   UNL     1       1.678   5.312  18.996  0.00  0.00    +0.000 C 
ENDROOT
BRANCH   1   2
ATOM      2  C   UNL     1       1.350   4.623  20.430  0.00  0.00    +0.000 C 
ATOM      3  C   UNL     1       0.636   3.249  20.369  0.00  0.00    +0.000 C 
ATOM      4  C   UNL     1       2.554   4.381  21.355  0.00  0.00    +0.000 C 
ENDBRANCH   1   2
BRANCH   1   5
ATOM      5  C   UNL     1       2.176   4.329  17.867  0.00  0.00    +0.000 C 
BRANCH   5   6
ATOM      6  O   UNL     1       1.116   3.743  17.134  0.00  0.00    +0.000 OA
ATOM      7  H   UNL     1       1.381   3.697  16.198  0.00  0.00    +0.000 HD
ENDBRANCH   5   6
BRANCH   5   8
ATOM      8  C   UNL     1       2.958   3.131  18.376  0.00  0.00    +0.000 C 
BRANCH   8   9
ATOM      9  C   UNL     1       4.267   2.719  17.700  0.00  0.00    +0.000 C 
BRANCH   9  13
ATOM     10  C   UNL     1       6.880   6.137  16.948  0.00  0.00    +0.000 A 
ATOM     11  C   UNL     1       6.578   5.718  18.258  0.00  0.00    +0.000 A 
ATOM     12  C   UNL     1       5.767   4.620  18.506  0.00  0.00    +0.000 A 
ATOM     13  C   UNL     1       5.133   3.951  17.456  0.00  0.00    +0.000 A 
ATOM     14  C   UNL     1       5.362   4.438  16.164  0.00  0.00    +0.000 A 
ATOM     15  C   UNL     1       6.222   5.513  15.879  0.00  0.00    +0.000 A 
BRANCH  10  17
ATOM     16  C   UNL     1       7.850   8.116  17.745  0.00  0.00    +0.000 C 
ATOM     17  O   UNL     1       7.857   7.083  16.747  0.00  0.00    +0.000 OA
ENDBRANCH  10  17
BRANCH  15  18
ATOM     18  O   UNL     1       6.342   5.696  14.532  0.00  0.00    +0.000 OA
ATOM     19  C   UNL     1       6.996   4.714  13.744  0.00  0.00    +0.000 C 
ENDBRANCH  15  18
ENDBRANCH   9  13
ENDBRANCH   8   9
ENDBRANCH   5   8
ENDBRANCH   1   5
BRANCH   1  20
ATOM     20  C   UNL     1       2.695   6.525  19.137  0.00  0.00    +0.000 C 
BRANCH  20  21
ATOM     21  O   UNL     1       3.218   6.893  17.856  0.00  0.00    +0.000 OA
ATOM     22  H   UNL     1       3.508   7.823  17.911  0.00  0.00    +0.000 HD
ENDBRANCH  20  21
BRANCH  20  23
ATOM     23  C   UNL     1       2.132   7.813  19.754  0.00  0.00    +0.000 C 
BRANCH  23  24
ATOM     24  C   UNL     1       1.658   8.861  18.761  0.00  0.00    +0.000 C 
BRANCH  24  25
ATOM     25  C   UNL     1       0.651   9.769  19.420  0.00  0.00    +0.000 A 
ATOM     26  C   UNL     1      -0.164  10.591  18.649  0.00  0.00    +0.000 A 
ATOM     27  C   UNL     1      -1.096  11.418  19.270  0.00  0.00    +0.000 A 
ATOM     28  C   UNL     1      -1.240  11.437  20.666  0.00  0.00    +0.000 A 
ATOM     29  C   UNL     1      -0.449  10.580  21.454  0.00  0.00    +0.000 A 
ATOM     30  C   UNL     1       0.478   9.745  20.814  0.00  0.00    +0.000 A 
BRANCH  28  31
ATOM     31  O   UNL     1      -2.187  12.343  21.069  0.00  0.00    +0.000 OA
ATOM     32  C   UNL     1      -2.948  13.020  20.082  0.00  0.00    +0.000 C 
ENDBRANCH  28  31
BRANCH  29  33
ATOM     33  O   UNL     1      -0.612  10.604  22.812  0.00  0.00    +0.000 OA
ATOM     34  C   UNL     1      -0.067   9.543  23.584  0.00  0.00    +0.000 C 
ENDBRANCH  29  33
ENDBRANCH  24  25
ENDBRANCH  23  24
ENDBRANCH  20  23
ENDBRANCH   1  20
TORSDOF 15
ENDMDL
MODEL 9
REMARK VINA RESULT:      -6.3      3.053     10.934
REMARK  Name = 
REMARK  21 active torsions:
REMARK  status: ('A' for Active; 'I' for Inactive)
REMARK    1  A    between atoms: C_1  and  O_2
REMARK    2  A    between atoms: O_2  and  C_3
REMARK    3  A    between atoms: C_6  and  C_7
REMARK    4  A    between atoms: C_7  and  C_8
REMARK    5  A    between atoms: C_8  and  C_9
REMARK    6  A    between atoms: C_9  and  O_10
REMARK    7  A    between atoms: C_9  and  C_11
REMARK    8  A    between atoms: C_11  and  C_12
REMARK    9  A    between atoms: C_11  and  C_15
REMARK   10  A    between atoms: C_12  and  C_13
REMARK   11  A    between atoms: C_12  and  C_14
REMARK   12  A    between atoms: C_15  and  O_16
REMARK   13  A    between atoms: C_15  and  C_17
REMARK   14  A    between atoms: C_17  and  C_18
REMARK   15  A    between atoms: C_18  and  C_19
REMARK   16  A    between atoms: C_22  and  O_23
REMARK   17  A    between atoms: O_23  and  C_24
REMARK   18  A    between atoms: C_25  and  O_26
REMARK   19  A    between atoms: O_26  and  C_27
REMARK   20  A    between atoms: C_30  and  O_31
REMARK   21  A    between atoms: O_31  and  C_32
REMARK                            x       y       z     vdW  Elec       q    Type
REMARK                         _______ _______ _______ _____ _____    ______ ____
ROOT
ATOM      1  C   UNL     1       0.254  10.617  18.723  0.00  0.00    +0.000 C 
ENDROOT
BRANCH   1   2
ATOM      2  C   UNL     1       0.495  10.288  20.295  0.00  0.00    +0.000 C 
ATOM      3  C   UNL     1       0.536  11.514  21.242  0.00  0.00    +0.000 C 
ATOM      4  C   UNL     1      -0.522   9.340  20.952  0.00  0.00    +0.000 C 
ENDBRANCH   1   2
BRANCH   1   5
ATOM      5  C   UNL     1      -1.211  10.368  18.193  0.00  0.00    +0.000 C 
BRANCH   5   6
ATOM      6  O   UNL     1      -1.248   9.595  17.008  0.00  0.00    +0.000 OA
ATOM      7  H   UNL     1      -1.727  10.103  16.328  0.00  0.00    +0.000 HD
ENDBRANCH   5   6
BRANCH   5   8
ATOM      8  C   UNL     1      -1.966  11.631  17.815  0.00  0.00    +0.000 C 
BRANCH   8   9
ATOM      9  C   UNL     1      -3.489  11.687  17.942  0.00  0.00    +0.000 C 
BRANCH   9  13
ATOM     10  C   UNL     1      -4.668  12.992  21.941  0.00  0.00    +0.000 A 
ATOM     11  C   UNL     1      -3.323  13.025  21.524  0.00  0.00    +0.000 A 
ATOM     12  C   UNL     1      -2.943  12.633  20.248  0.00  0.00    +0.000 A 
ATOM     13  C   UNL     1      -3.875  12.089  19.362  0.00  0.00    +0.000 A 
ATOM     14  C   UNL     1      -5.191  11.969  19.822  0.00  0.00    +0.000 A 
ATOM     15  C   UNL     1      -5.616  12.408  21.088  0.00  0.00    +0.000 A 
BRANCH  10  17
ATOM     16  C   UNL     1      -4.103  14.611  23.536  0.00  0.00    +0.000 C 
ATOM     17  O   UNL     1      -5.027  13.592  23.123  0.00  0.00    +0.000 OA
ENDBRANCH  10  17
BRANCH  15  18
ATOM     18  O   UNL     1      -6.967  12.270  21.223  0.00  0.00    +0.000 OA
ATOM     19  C   UNL     1      -7.657  11.307  20.444  0.00  0.00    +0.000 C 
ENDBRANCH  15  18
ENDBRANCH   9  13
ENDBRANCH   8   9
ENDBRANCH   5   8
ENDBRANCH   1   5
BRANCH   1  20
ATOM     20  C   UNL     1       1.297   9.864  17.791  0.00  0.00    +0.000 C 
BRANCH  20  21
ATOM     21  O   UNL     1       2.365  10.742  17.420  0.00  0.00    +0.000 OA
ATOM     22  H   UNL     1       1.972  11.607  17.198  0.00  0.00    +0.000 HD
ENDBRANCH  20  21
BRANCH  20  23
ATOM     23  C   UNL     1       1.959   8.614  18.387  0.00  0.00    +0.000 C 
BRANCH  23  24
ATOM     24  C   UNL     1       3.113   8.038  17.582  0.00  0.00    +0.000 C 
BRANCH  24  25
ATOM     25  C   UNL     1       3.385   6.623  18.023  0.00  0.00    +0.000 A 
ATOM     26  C   UNL     1       2.333   5.739  18.236  0.00  0.00    +0.000 A 
ATOM     27  C   UNL     1       2.599   4.431  18.634  0.00  0.00    +0.000 A 
ATOM     28  C   UNL     1       3.914   3.978  18.819  0.00  0.00    +0.000 A 
ATOM     29  C   UNL     1       4.988   4.851  18.568  0.00  0.00    +0.000 A 
ATOM     30  C   UNL     1       4.706   6.162  18.157  0.00  0.00    +0.000 A 
BRANCH  28  31
ATOM     31  O   UNL     1       3.949   2.674  19.244  0.00  0.00    +0.000 OA
ATOM     32  C   UNL     1       3.566   2.380  20.577  0.00  0.00    +0.000 C 
ENDBRANCH  28  31
BRANCH  29  33
ATOM     33  O   UNL     1       6.264   4.387  18.742  0.00  0.00    +0.000 OA
ATOM     34  C   UNL     1       7.244   4.702  17.763  0.00  0.00    +0.000 C 
ENDBRANCH  29  33
ENDBRANCH  24  25
ENDBRANCH  23  24
ENDBRANCH  20  23
ENDBRANCH   1  20
TORSDOF 15
ENDMDL
