MODEL 1
REMARK VINA RESULT:      -7.2      0.000      0.000
REMARK  Name = 
REMARK  5 active torsions:
REMARK  status: ('A' for Active; 'I' for Inactive)
REMARK    1  A    between atoms: C_1  and  C_2
REMARK    2  A    between atoms: C_4  and  C_5
REMARK    3  A    between atoms: C_7  and  S_8
REMARK    4  A    between atoms: S_8  and  C_9
REMARK    5  A    between atoms: C_9  and  C_10
REMARK                            x       y       z     vdW  Elec       q    Type
REMARK                         _______ _______ _______ _____ _____    ______ ____
ROOT
ATOM      1  C   UNL     1       8.005   7.828  17.453  0.00  0.00    +0.000 C 
ATOM      2  C   UNL     1       7.097   6.632  17.629  0.00  0.00    +0.000 A 
ATOM      3  C   UNL     1       6.409   6.106  16.412  0.00  0.00    +0.000 A 
ATOM      4  C   UNL     1       5.583   5.052  16.573  0.00  0.00    +0.000 A 
ATOM      5  C   UNL     1       4.882   4.486  15.378  0.00  0.00    +0.000 C 
ATOM      6  N   UNL     1       5.423   4.515  17.867  0.00  0.00    +0.000 N 
ATOM      7  C   UNL     1       4.681   3.489  18.443  0.00  0.00    +0.000 A 
ATOM      8  N   UNL     1       4.937   3.414  19.729  0.00  0.00    +0.000 NA
ATOM      9  N   UNL     1       5.833   4.392  20.046  0.00  0.00    +0.000 NA
ATOM     10  C   UNL     1       6.127   5.062  18.954  0.00  0.00    +0.000 A 
ATOM     11  N   UNL     1       6.966   6.134  18.820  0.00  0.00    +0.000 NA
ENDROOT
BRANCH   7  12
ATOM     12  S   UNL     1       3.549   2.413  17.656  0.00  0.00    +0.000 S 
BRANCH  12  13
ATOM     13  C   UNL     1       2.068   3.496  17.625  0.00  0.00    +0.000 C 
BRANCH  13  14
ATOM     14  C   UNL     1       2.123   4.727  18.517  0.00  0.00    +0.000 A 
ATOM     15  C   UNL     1       2.473   5.968  17.944  0.00  0.00    +0.000 A 
ATOM     16  C   UNL     1       2.407   7.156  18.688  0.00  0.00    +0.000 A 
ATOM     17  C   UNL     1       2.006   7.126  20.019  0.00  0.00    +0.000 A 
ATOM     18  C   UNL     1       1.675   5.908  20.609  0.00  0.00    +0.000 A 
ATOM     19  C   UNL     1       1.740   4.720  19.868  0.00  0.00    +0.000 A 
ATOM     20 CL   UNL     1       1.266   3.259  20.672  0.00  0.00    +0.000 Cl
ENDBRANCH  13  14
ENDBRANCH  12  13
ENDBRANCH   7  12
TORSDOF 3
ENDMDL
MODEL 2
REMARK VINA RESULT:      -7.1      2.204      3.664
REMARK  Name = 
REMARK  5 active torsions:
REMARK  status: ('A' for Active; 'I' for Inactive)
REMARK    1  A    between atoms: C_1  and  C_2
REMARK    2  A    between atoms: C_4  and  C_5
REMARK    3  A    between atoms: C_7  and  S_8
REMARK    4  A    between atoms: S_8  and  C_9
REMARK    5  A    between atoms: C_9  and  C_10
REMARK                            x       y       z     vdW  Elec       q    Type
REMARK                         _______ _______ _______ _____ _____    ______ ____
ROOT
ATOM      1  C   UNL     1       6.200   3.727  12.634  0.00  0.00    +0.000 C 
ATOM      2  C   UNL     1       6.196   4.131  14.090  0.00  0.00    +0.000 A 
ATOM      3  C   UNL     1       5.411   3.284  15.037  0.00  0.00    +0.000 A 
ATOM      4  C   UNL     1       5.391   3.656  16.334  0.00  0.00    +0.000 A 
ATOM      5  C   UNL     1       4.625   2.830  17.319  0.00  0.00    +0.000 C 
ATOM      6  N   UNL     1       6.108   4.811  16.711  0.00  0.00    +0.000 N 
ATOM      7  C   UNL     1       6.319   5.520  17.890  0.00  0.00    +0.000 A 
ATOM      8  N   UNL     1       7.113   6.542  17.665  0.00  0.00    +0.000 NA
ATOM      9  N   UNL     1       7.432   6.554  16.339  0.00  0.00    +0.000 NA
ATOM     10  C   UNL     1       6.837   5.538  15.755  0.00  0.00    +0.000 A 
ATOM     11  N   UNL     1       6.870   5.186  14.434  0.00  0.00    +0.000 NA
ENDROOT
BRANCH   7  12
ATOM     12  S   UNL     1       5.665   5.180  19.476  0.00  0.00    +0.000 S 
BRANCH  12  13
ATOM     13  C   UNL     1       3.896   5.554  19.165  0.00  0.00    +0.000 C 
BRANCH  13  14
ATOM     14  C   UNL     1       2.894   4.564  19.739  0.00  0.00    +0.000 A 
ATOM     15  C   UNL     1       3.044   4.142  21.077  0.00  0.00    +0.000 A 
ATOM     16  C   UNL     1       2.075   3.339  21.698  0.00  0.00    +0.000 A 
ATOM     17  C   UNL     1       0.949   2.930  20.993  0.00  0.00    +0.000 A 
ATOM     18  C   UNL     1       0.793   3.319  19.664  0.00  0.00    +0.000 A 
ATOM     19  C   UNL     1       1.759   4.121  19.042  0.00  0.00    +0.000 A 
ATOM     20 CL   UNL     1       1.458   4.594  17.401  0.00  0.00    +0.000 Cl
ENDBRANCH  13  14
ENDBRANCH  12  13
ENDBRANCH   7  12
TORSDOF 3
ENDMDL
MODEL 3
REMARK VINA RESULT:      -7.0      1.822      2.945
REMARK  Name = 
REMARK  5 active torsions:
REMARK  status: ('A' for Active; 'I' for Inactive)
REMARK    1  A    between atoms: C_1  and  C_2
REMARK    2  A    between atoms: C_4  and  C_5
REMARK    3  A    between atoms: C_7  and  S_8
REMARK    4  A    between atoms: S_8  and  C_9
REMARK    5  A    between atoms: C_9  and  C_10
REMARK                            x       y       z     vdW  Elec       q    Type
REMARK                         _______ _______ _______ _____ _____    ______ ____
ROOT
ATOM      1  C   UNL     1       8.280   8.240  17.980  0.00  0.00    +0.000 C 
ATOM      2  C   UNL     1       7.388   7.079  17.605  0.00  0.00    +0.000 A 
ATOM      3  C   UNL     1       6.871   6.223  18.714  0.00  0.00    +0.000 A 
ATOM      4  C   UNL     1       6.091   5.175  18.377  0.00  0.00    +0.000 A 
ATOM      5  C   UNL     1       5.542   4.297  19.457  0.00  0.00    +0.000 C 
ATOM      6  N   UNL     1       5.813   4.957  17.012  0.00  0.00    +0.000 N 
ATOM      7  C   UNL     1       5.102   4.018  16.270  0.00  0.00    +0.000 A 
ATOM      8  N   UNL     1       5.162   4.314  14.992  0.00  0.00    +0.000 NA
ATOM      9  N   UNL     1       5.924   5.435  14.846  0.00  0.00    +0.000 NA
ATOM     10  C   UNL     1       6.326   5.826  16.035  0.00  0.00    +0.000 A 
ATOM     11  N   UNL     1       7.124   6.893  16.348  0.00  0.00    +0.000 NA
ENDROOT
BRANCH   7  12
ATOM     12  S   UNL     1       4.234   2.620  16.862  0.00  0.00    +0.000 S 
BRANCH  12  13
ATOM     13  C   UNL     1       2.562   3.353  17.047  0.00  0.00    +0.000 C 
BRANCH  13  14
ATOM     14  C   UNL     1       2.096   3.597  18.474  0.00  0.00    +0.000 A 
ATOM     15  C   UNL     1       1.782   2.487  19.287  0.00  0.00    +0.000 A 
ATOM     16  C   UNL     1       1.479   2.645  20.648  0.00  0.00    +0.000 A 
ATOM     17  C   UNL     1       1.467   3.913  21.218  0.00  0.00    +0.000 A 
ATOM     18  C   UNL     1       1.753   5.024  20.428  0.00  0.00    +0.000 A 
ATOM     19  C   UNL     1       2.057   4.868  19.069  0.00  0.00    +0.000 A 
ATOM     20 CL   UNL     1       2.445   6.302  18.175  0.00  0.00    +0.000 Cl
ENDBRANCH  13  14
ENDBRANCH  12  13
ENDBRANCH   7  12
TORSDOF 3
ENDMDL
MODEL 4
REMARK VINA RESULT:      -6.9      0.928      1.003
REMARK  Name = 
REMARK  5 active torsions:
REMARK  status: ('A' for Active; 'I' for Inactive)
REMARK    1  A    between atoms: C_1  and  C_2
REMARK    2  A    between atoms: C_4  and  C_5
REMARK    3  A    between atoms: C_7  and  S_8
REMARK    4  A    between atoms: S_8  and  C_9
REMARK    5  A    between atoms: C_9  and  C_10
REMARK                            x       y       z     vdW  Elec       q    Type
REMARK                         _______ _______ _______ _____ _____    ______ ____
ROOT
ATOM      1  C   UNL     1       8.625   8.575  18.211  0.00  0.00    +0.000 C 
ATOM      2  C   UNL     1       7.671   7.409  18.087  0.00  0.00    +0.000 A 
ATOM      3  C   UNL     1       6.897   7.286  16.816  0.00  0.00    +0.000 A 
ATOM      4  C   UNL     1       6.031   6.256  16.713  0.00  0.00    +0.000 A 
ATOM      5  C   UNL     1       5.243   6.088  15.453  0.00  0.00    +0.000 C 
ATOM      6  N   UNL     1       5.912   5.368  17.803  0.00  0.00    +0.000 N 
ATOM      7  C   UNL     1       5.152   4.241  18.100  0.00  0.00    +0.000 A 
ATOM      8  N   UNL     1       5.470   3.784  19.289  0.00  0.00    +0.000 NA
ATOM      9  N   UNL     1       6.427   4.598  19.821  0.00  0.00    +0.000 NA
ATOM     10  C   UNL     1       6.696   5.549  18.955  0.00  0.00    +0.000 A 
ATOM     11  N   UNL     1       7.578   6.587  19.087  0.00  0.00    +0.000 NA
ENDROOT
BRANCH   7  12
ATOM     12  S   UNL     1       3.931   3.480  17.107  0.00  0.00    +0.000 S 
BRANCH  12  13
ATOM     13  C   UNL     1       2.442   3.852  18.112  0.00  0.00    +0.000 C 
BRANCH  13  14
ATOM     14  C   UNL     1       2.371   5.250  18.707  0.00  0.00    +0.000 A 
ATOM     15  C   UNL     1       2.447   6.363  17.843  0.00  0.00    +0.000 A 
ATOM     16  C   UNL     1       2.251   7.667  18.320  0.00  0.00    +0.000 A 
ATOM     17  C   UNL     1       1.990   7.887  19.668  0.00  0.00    +0.000 A 
ATOM     18  C   UNL     1       1.931   6.804  20.541  0.00  0.00    +0.000 A 
ATOM     19  C   UNL     1       2.127   5.499  20.067  0.00  0.00    +0.000 A 
ATOM     20 CL   UNL     1       1.989   4.210  21.218  0.00  0.00    +0.000 Cl
ENDBRANCH  13  14
ENDBRANCH  12  13
ENDBRANCH   7  12
TORSDOF 3
ENDMDL
MODEL 5
REMARK VINA RESULT:      -6.9      1.303      2.252
REMARK  Name = 
REMARK  5 active torsions:
REMARK  status: ('A' for Active; 'I' for Inactive)
REMARK    1  A    between atoms: C_1  and  C_2
REMARK    2  A    between atoms: C_4  and  C_5
REMARK    3  A    between atoms: C_7  and  S_8
REMARK    4  A    between atoms: S_8  and  C_9
REMARK    5  A    between atoms: C_9  and  C_10
REMARK                            x       y       z     vdW  Elec       q    Type
REMARK                         _______ _______ _______ _____ _____    ______ ____
ROOT
ATOM      1  C   UNL     1       8.513   7.960  18.384  0.00  0.00    +0.000 C 
ATOM      2  C   UNL     1       7.506   6.919  17.951  0.00  0.00    +0.000 A 
ATOM      3  C   UNL     1       6.928   6.040  19.011  0.00  0.00    +0.000 A 
ATOM      4  C   UNL     1       6.043   5.097  18.622  0.00  0.00    +0.000 A 
ATOM      5  C   UNL     1       5.431   4.202  19.652  0.00  0.00    +0.000 C 
ATOM      6  N   UNL     1       5.722   5.004  17.252  0.00  0.00    +0.000 N 
ATOM      7  C   UNL     1       4.910   4.193  16.465  0.00  0.00    +0.000 A 
ATOM      8  N   UNL     1       4.976   4.572  15.209  0.00  0.00    +0.000 NA
ATOM      9  N   UNL     1       5.841   5.623  15.122  0.00  0.00    +0.000 NA
ATOM     10  C   UNL     1       6.300   5.888  16.325  0.00  0.00    +0.000 A 
ATOM     11  N   UNL     1       7.203   6.848  16.691  0.00  0.00    +0.000 NA
ENDROOT
BRANCH   7  12
ATOM     12  S   UNL     1       3.921   2.846  16.979  0.00  0.00    +0.000 S 
BRANCH  12  13
ATOM     13  C   UNL     1       2.317   3.710  17.199  0.00  0.00    +0.000 C 
BRANCH  13  14
ATOM     14  C   UNL     1       2.211   4.623  18.410  0.00  0.00    +0.000 A 
ATOM     15  C   UNL     1       2.485   5.998  18.253  0.00  0.00    +0.000 A 
ATOM     16  C   UNL     1       2.271   6.906  19.301  0.00  0.00    +0.000 A 
ATOM     17  C   UNL     1       1.797   6.457  20.529  0.00  0.00    +0.000 A 
ATOM     18  C   UNL     1       1.541   5.100  20.712  0.00  0.00    +0.000 A 
ATOM     19  C   UNL     1       1.753   4.192  19.665  0.00  0.00    +0.000 A 
ATOM     20 CL   UNL     1       1.362   2.530  19.969  0.00  0.00    +0.000 Cl
ENDBRANCH  13  14
ENDBRANCH  12  13
ENDBRANCH   7  12
TORSDOF 3
ENDMDL
MODEL 6
REMARK VINA RESULT:      -6.8      1.952      3.291
REMARK  Name = 
REMARK  5 active torsions:
REMARK  status: ('A' for Active; 'I' for Inactive)
REMARK    1  A    between atoms: C_1  and  C_2
REMARK    2  A    between atoms: C_4  and  C_5
REMARK    3  A    between atoms: C_7  and  S_8
REMARK    4  A    between atoms: S_8  and  C_9
REMARK    5  A    between atoms: C_9  and  C_10
REMARK                            x       y       z     vdW  Elec       q    Type
REMARK                         _______ _______ _______ _____ _____    ______ ____
ROOT
ATOM      1  C   UNL     1       6.775   4.224  12.696  0.00  0.00    +0.000 C 
ATOM      2  C   UNL     1       6.590   4.487  14.173  0.00  0.00    +0.000 A 
ATOM      3  C   UNL     1       5.715   3.546  14.934  0.00  0.00    +0.000 A 
ATOM      4  C   UNL     1       5.535   3.792  16.249  0.00  0.00    +0.000 A 
ATOM      5  C   UNL     1       4.674   2.868  17.052  0.00  0.00    +0.000 C 
ATOM      6  N   UNL     1       6.179   4.910  16.817  0.00  0.00    +0.000 N 
ATOM      7  C   UNL     1       6.235   5.504  18.074  0.00  0.00    +0.000 A 
ATOM      8  N   UNL     1       7.029   6.550  18.043  0.00  0.00    +0.000 NA
ATOM      9  N   UNL     1       7.503   6.692  16.773  0.00  0.00    +0.000 NA
ATOM     10  C   UNL     1       7.002   5.732  16.028  0.00  0.00    +0.000 A 
ATOM     11  N   UNL     1       7.199   5.509  14.693  0.00  0.00    +0.000 NA
ENDROOT
BRANCH   7  12
ATOM     12  S   UNL     1       5.405   5.009  19.531  0.00  0.00    +0.000 S 
BRANCH  12  13
ATOM     13  C   UNL     1       3.794   5.846  19.266  0.00  0.00    +0.000 C 
BRANCH  13  14
ATOM     14  C   UNL     1       2.590   4.935  19.082  0.00  0.00    +0.000 A 
ATOM     15  C   UNL     1       2.062   4.756  17.786  0.00  0.00    +0.000 A 
ATOM     16  C   UNL     1       1.043   3.825  17.538  0.00  0.00    +0.000 A 
ATOM     17  C   UNL     1       0.521   3.067  18.580  0.00  0.00    +0.000 A 
ATOM     18  C   UNL     1       1.014   3.242  19.871  0.00  0.00    +0.000 A 
ATOM     19  C   UNL     1       2.033   4.172  20.120  0.00  0.00    +0.000 A 
ATOM     20 CL   UNL     1       2.616   4.289  21.749  0.00  0.00    +0.000 Cl
ENDBRANCH  13  14
ENDBRANCH  12  13
ENDBRANCH   7  12
TORSDOF 3
ENDMDL
MODEL 7
REMARK VINA RESULT:      -6.7      2.585      5.050
REMARK  Name = 
REMARK  5 active torsions:
REMARK  status: ('A' for Active; 'I' for Inactive)
REMARK    1  A    between atoms: C_1  and  C_2
REMARK    2  A    between atoms: C_4  and  C_5
REMARK    3  A    between atoms: C_7  and  S_8
REMARK    4  A    between atoms: S_8  and  C_9
REMARK    5  A    between atoms: C_9  and  C_10
REMARK                            x       y       z     vdW  Elec       q    Type
REMARK                         _______ _______ _______ _____ _____    ______ ____
ROOT
ATOM      1  C   UNL     1       1.117   8.787  21.742  0.00  0.00    +0.000 C 
ATOM      2  C   UNL     1       1.525   7.643  20.842  0.00  0.00    +0.000 A 
ATOM      3  C   UNL     1       2.154   7.990  19.532  0.00  0.00    +0.000 A 
ATOM      4  C   UNL     1       2.500   6.969  18.720  0.00  0.00    +0.000 A 
ATOM      5  C   UNL     1       3.142   7.270  17.403  0.00  0.00    +0.000 C 
ATOM      6  N   UNL     1       2.251   5.651  19.156  0.00  0.00    +0.000 N 
ATOM      7  C   UNL     1       2.428   4.372  18.636  0.00  0.00    +0.000 A 
ATOM      8  N   UNL     1       2.025   3.473  19.505  0.00  0.00    +0.000 NA
ATOM      9  N   UNL     1       1.554   4.122  20.608  0.00  0.00    +0.000 NA
ATOM     10  C   UNL     1       1.673   5.416  20.415  0.00  0.00    +0.000 A 
ATOM     11  N   UNL     1       1.307   6.432  21.255  0.00  0.00    +0.000 NA
ENDROOT
BRANCH   7  12
ATOM     12  S   UNL     1       3.075   3.931  17.073  0.00  0.00    +0.000 S 
BRANCH  12  13
ATOM     13  C   UNL     1       4.783   3.476  17.565  0.00  0.00    +0.000 C 
BRANCH  13  14
ATOM     14  C   UNL     1       5.739   4.634  17.805  0.00  0.00    +0.000 A 
ATOM     15  C   UNL     1       6.236   4.848  19.109  0.00  0.00    +0.000 A 
ATOM     16  C   UNL     1       7.223   5.813  19.360  0.00  0.00    +0.000 A 
ATOM     17  C   UNL     1       7.719   6.593  18.322  0.00  0.00    +0.000 A 
ATOM     18  C   UNL     1       7.227   6.412  17.031  0.00  0.00    +0.000 A 
ATOM     19  C   UNL     1       6.241   5.448  16.778  0.00  0.00    +0.000 A 
ATOM     20 CL   UNL     1       5.722   5.262  15.134  0.00  0.00    +0.000 Cl
ENDBRANCH  13  14
ENDBRANCH  12  13
ENDBRANCH   7  12
TORSDOF 3
ENDMDL
MODEL 8
REMARK VINA RESULT:      -6.7      4.408      6.700
REMARK  Name = 
REMARK  5 active torsions:
REMARK  status: ('A' for Active; 'I' for Inactive)
REMARK    1  A    between atoms: C_1  and  C_2
REMARK    2  A    between atoms: C_4  and  C_5
REMARK    3  A    between atoms: C_7  and  S_8
REMARK    4  A    between atoms: S_8  and  C_9
REMARK    5  A    between atoms: C_9  and  C_10
REMARK                            x       y       z     vdW  Elec       q    Type
REMARK                         _______ _______ _______ _____ _____    ______ ____
ROOT
ATOM      1  C   UNL     1      -1.212  13.106  19.559  0.00  0.00    +0.000 C 
ATOM      2  C   UNL     1      -0.441  11.805  19.543  0.00  0.00    +0.000 A 
ATOM      3  C   UNL     1      -0.621  10.886  20.706  0.00  0.00    +0.000 A 
ATOM      4  C   UNL     1       0.082   9.734  20.701  0.00  0.00    +0.000 A 
ATOM      5  C   UNL     1      -0.075   8.778  21.841  0.00  0.00    +0.000 C 
ATOM      6  N   UNL     1       0.932   9.471  19.607  0.00  0.00    +0.000 N 
ATOM      7  C   UNL     1       1.810   8.456  19.239  0.00  0.00    +0.000 A 
ATOM      8  N   UNL     1       2.345   8.724  18.069  0.00  0.00    +0.000 NA
ATOM      9  N   UNL     1       1.859   9.923  17.639  0.00  0.00    +0.000 NA
ATOM     10  C   UNL     1       1.025  10.386  18.543  0.00  0.00    +0.000 A 
ATOM     11  N   UNL     1       0.328  11.563  18.526  0.00  0.00    +0.000 NA
ENDROOT
BRANCH   7  12
ATOM     12  S   UNL     1       2.210   7.009  20.135  0.00  0.00    +0.000 S 
BRANCH  12  13
ATOM     13  C   UNL     1       2.860   5.971  18.769  0.00  0.00    +0.000 C 
BRANCH  13  14
ATOM     14  C   UNL     1       2.422   4.515  18.771  0.00  0.00    +0.000 A 
ATOM     15  C   UNL     1       1.397   4.113  19.653  0.00  0.00    +0.000 A 
ATOM     16  C   UNL     1       0.861   2.817  19.601  0.00  0.00    +0.000 A 
ATOM     17  C   UNL     1       1.349   1.895  18.682  0.00  0.00    +0.000 A 
ATOM     18  C   UNL     1       2.375   2.265  17.816  0.00  0.00    +0.000 A 
ATOM     19  C   UNL     1       2.911   3.560  17.865  0.00  0.00    +0.000 A 
ATOM     20 CL   UNL     1       4.153   3.946  16.719  0.00  0.00    +0.000 Cl
ENDBRANCH  13  14
ENDBRANCH  12  13
ENDBRANCH   7  12
TORSDOF 3
ENDMDL
MODEL 9
REMARK VINA RESULT:      -6.7      2.235      3.534
REMARK  Name = 
REMARK  5 active torsions:
REMARK  status: ('A' for Active; 'I' for Inactive)
REMARK    1  A    between atoms: C_1  and  C_2
REMARK    2  A    between atoms: C_4  and  C_5
REMARK    3  A    between atoms: C_7  and  S_8
REMARK    4  A    between atoms: S_8  and  C_9
REMARK    5  A    between atoms: C_9  and  C_10
REMARK                            x       y       z     vdW  Elec       q    Type
REMARK                         _______ _______ _______ _____ _____    ______ ____
ROOT
ATOM      1  C   UNL     1       7.011   4.193  12.315  0.00  0.00    +0.000 C 
ATOM      2  C   UNL     1       6.814   4.466  13.789  0.00  0.00    +0.000 A 
ATOM      3  C   UNL     1       5.903   3.552  14.541  0.00  0.00    +0.000 A 
ATOM      4  C   UNL     1       5.712   3.808  15.853  0.00  0.00    +0.000 A 
ATOM      5  C   UNL     1       4.816   2.911  16.648  0.00  0.00    +0.000 C 
ATOM      6  N   UNL     1       6.380   4.910  16.425  0.00  0.00    +0.000 N 
ATOM      7  C   UNL     1       6.436   5.507  17.681  0.00  0.00    +0.000 A 
ATOM      8  N   UNL     1       7.259   6.530  17.658  0.00  0.00    +0.000 NA
ATOM      9  N   UNL     1       7.753   6.655  16.393  0.00  0.00    +0.000 NA
ATOM     10  C   UNL     1       7.236   5.706  15.645  0.00  0.00    +0.000 A 
ATOM     11  N   UNL     1       7.443   5.472  14.313  0.00  0.00    +0.000 NA
ENDROOT
BRANCH   7  12
ATOM     12  S   UNL     1       5.573   5.039  19.129  0.00  0.00    +0.000 S 
BRANCH  12  13
ATOM     13  C   UNL     1       3.895   5.639  18.693  0.00  0.00    +0.000 C 
BRANCH  13  14
ATOM     14  C   UNL     1       2.737   4.756  19.130  0.00  0.00    +0.000 A 
ATOM     15  C   UNL     1       2.677   3.427  18.658  0.00  0.00    +0.000 A 
ATOM     16  C   UNL     1       1.710   2.530  19.135  0.00  0.00    +0.000 A 
ATOM     17  C   UNL     1       0.775   2.945  20.077  0.00  0.00    +0.000 A 
ATOM     18  C   UNL     1       0.804   4.258  20.541  0.00  0.00    +0.000 A 
ATOM     19  C   UNL     1       1.770   5.156  20.066  0.00  0.00    +0.000 A 
ATOM     20 CL   UNL     1       1.758   6.756  20.734  0.00  0.00    +0.000 Cl
ENDBRANCH  13  14
ENDBRANCH  12  13
ENDBRANCH   7  12
TORSDOF 3
ENDMDL
