MODEL 1
REMARK VINA RESULT:      -7.0      0.000      0.000
REMARK  Name = 
REMARK  5 active torsions:
REMARK  status: ('A' for Active; 'I' for Inactive)
REMARK    1  A    between atoms: C_1  and  O_2
REMARK    2  A    between atoms: O_2  and  C_3
REMARK    3  A    between atoms: C_6  and  C_7
REMARK    4  A    between atoms: C_8  and  C_9
REMARK    5  A    between atoms: C_9  and  C_11
REMARK                            x       y       z     vdW  Elec       q    Type
REMARK                         _______ _______ _______ _____ _____    ______ ____
ROOT
ATOM      1  C   UNL     1       4.819   5.419  16.673  0.00  0.00    +0.000 C 
ATOM      2  C   UNL     1       5.696   4.571  16.115  0.00  0.00    +0.000 C 
ENDROOT
BRANCH   1   6
ATOM      3  C   UNL     1       1.738   4.028  19.316  0.00  0.00    +0.000 A 
ATOM      4  C   UNL     1       2.241   3.218  18.295  0.00  0.00    +0.000 A 
ATOM      5  C   UNL     1       3.247   3.689  17.446  0.00  0.00    +0.000 A 
ATOM      6  C   UNL     1       3.749   4.986  17.581  0.00  0.00    +0.000 A 
ATOM      7  C   UNL     1       3.232   5.805  18.594  0.00  0.00    +0.000 A 
ATOM      8  C   UNL     1       2.226   5.334  19.445  0.00  0.00    +0.000 A 
ATOM      9 BR   UNL     1       1.575   6.511  20.788  0.00  0.00    +0.000 Br
BRANCH   3  11
ATOM     10  C   UNL     1       1.215   2.791  21.255  0.00  0.00    +0.000 C 
ATOM     11  O   UNL     1       0.762   3.615  20.184  0.00  0.00    +0.000 OA
ENDBRANCH   3  11
ENDBRANCH   1   6
BRANCH   2  12
ATOM     12  C   UNL     1       6.803   5.065  15.246  0.00  0.00    +0.000 C 
ATOM     13  O   UNL     1       7.640   5.852  15.682  0.00  0.00    +0.000 OA
BRANCH  12  14
ATOM     14  C   UNL     1       6.860   4.558  13.887  0.00  0.00    +0.000 A 
ATOM     15  C   UNL     1       7.546   4.987  12.762  0.00  0.00    +0.000 A 
ATOM     16  C   UNL     1       7.216   4.126  11.688  0.00  0.00    +0.000 A 
ATOM     17  C   UNL     1       6.343   3.185  12.175  0.00  0.00    +0.000 A 
ATOM     18  N   UNL     1       6.143   3.442  13.502  0.00  0.00    +0.000 N 
ATOM     19  H   UNL     1       5.548   2.914  14.132  0.00  0.00    +0.000 HD
ENDBRANCH  12  14
ENDBRANCH   2  12
TORSDOF 4
ENDMDL
MODEL 2
REMARK VINA RESULT:      -6.9      3.406      4.781
REMARK  Name = 
REMARK  5 active torsions:
REMARK  status: ('A' for Active; 'I' for Inactive)
REMARK    1  A    between atoms: C_1  and  O_2
REMARK    2  A    between atoms: O_2  and  C_3
REMARK    3  A    between atoms: C_6  and  C_7
REMARK    4  A    between atoms: C_8  and  C_9
REMARK    5  A    between atoms: C_9  and  C_11
REMARK                            x       y       z     vdW  Elec       q    Type
REMARK                         _______ _______ _______ _____ _____    ______ ____
ROOT
ATOM      1  C   UNL     1       3.333   6.314  18.228  0.00  0.00    +0.000 C 
ATOM      2  C   UNL     1       2.806   5.142  17.847  0.00  0.00    +0.000 C 
ENDROOT
BRANCH   1   6
ATOM      3  C   UNL     1       0.907   9.695  19.275  0.00  0.00    +0.000 A 
ATOM      4  C   UNL     1       1.400   9.526  17.979  0.00  0.00    +0.000 A 
ATOM      5  C   UNL     1       2.186   8.417  17.657  0.00  0.00    +0.000 A 
ATOM      6  C   UNL     1       2.520   7.469  18.629  0.00  0.00    +0.000 A 
ATOM      7  C   UNL     1       2.041   7.647  19.934  0.00  0.00    +0.000 A 
ATOM      8  C   UNL     1       1.252   8.758  20.257  0.00  0.00    +0.000 A 
ATOM      9 BR   UNL     1       0.649   8.928  22.051  0.00  0.00    +0.000 Br
BRANCH   3  11
ATOM     10  C   UNL     1      -1.129  10.845  18.968  0.00  0.00    +0.000 C 
ATOM     11  O   UNL     1       0.122  10.756  19.644  0.00  0.00    +0.000 OA
ENDBRANCH   3  11
ENDBRANCH   1   6
BRANCH   2  12
ATOM     12  C   UNL     1       3.673   3.977  17.505  0.00  0.00    +0.000 C 
ATOM     13  O   UNL     1       3.283   2.828  17.693  0.00  0.00    +0.000 OA
BRANCH  12  14
ATOM     14  C   UNL     1       4.972   4.262  16.922  0.00  0.00    +0.000 A 
ATOM     15  C   UNL     1       5.359   4.620  15.641  0.00  0.00    +0.000 A 
ATOM     16  C   UNL     1       6.768   4.755  15.625  0.00  0.00    +0.000 A 
ATOM     17  C   UNL     1       7.216   4.485  16.894  0.00  0.00    +0.000 A 
ATOM     18  N   UNL     1       6.129   4.202  17.674  0.00  0.00    +0.000 N 
ATOM     19  H   UNL     1       6.145   3.966  18.661  0.00  0.00    +0.000 HD
ENDBRANCH  12  14
ENDBRANCH   2  12
TORSDOF 4
ENDMDL
MODEL 3
REMARK VINA RESULT:      -6.8      1.559      2.024
REMARK  Name = 
REMARK  5 active torsions:
REMARK  status: ('A' for Active; 'I' for Inactive)
REMARK    1  A    between atoms: C_1  and  O_2
REMARK    2  A    between atoms: O_2  and  C_3
REMARK    3  A    between atoms: C_6  and  C_7
REMARK    4  A    between atoms: C_8  and  C_9
REMARK    5  A    between atoms: C_9  and  C_11
REMARK                            x       y       z     vdW  Elec       q    Type
REMARK                         _______ _______ _______ _____ _____    ______ ____
ROOT
ATOM      1  C   UNL     1       4.801   5.038  16.165  0.00  0.00    +0.000 C 
ATOM      2  C   UNL     1       5.654   4.119  15.690  0.00  0.00    +0.000 C 
ENDROOT
BRANCH   1   6
ATOM      3  C   UNL     1       2.561   4.636  19.802  0.00  0.00    +0.000 A 
ATOM      4  C   UNL     1       3.609   5.554  19.691  0.00  0.00    +0.000 A 
ATOM      5  C   UNL     1       4.325   5.671  18.496  0.00  0.00    +0.000 A 
ATOM      6  C   UNL     1       4.028   4.856  17.400  0.00  0.00    +0.000 A 
ATOM      7  C   UNL     1       2.989   3.924  17.518  0.00  0.00    +0.000 A 
ATOM      8  C   UNL     1       2.270   3.806  18.713  0.00  0.00    +0.000 A 
ATOM      9 BR   UNL     1       0.881   2.512  18.792  0.00  0.00    +0.000 Br
BRANCH   3  11
ATOM     10  C   UNL     1       2.245   3.440  21.810  0.00  0.00    +0.000 C 
ATOM     11  O   UNL     1       1.817   4.487  20.944  0.00  0.00    +0.000 OA
ENDBRANCH   3  11
ENDBRANCH   1   6
BRANCH   2  12
ATOM     12  C   UNL     1       6.462   4.375  14.462  0.00  0.00    +0.000 C 
ATOM     13  O   UNL     1       7.448   5.107  14.502  0.00  0.00    +0.000 OA
BRANCH  12  14
ATOM     14  C   UNL     1       6.050   3.707  13.241  0.00  0.00    +0.000 A 
ATOM     15  C   UNL     1       4.846   3.682  12.555  0.00  0.00    +0.000 A 
ATOM     16  C   UNL     1       4.998   2.844  11.425  0.00  0.00    +0.000 A 
ATOM     17  C   UNL     1       6.289   2.378  11.435  0.00  0.00    +0.000 A 
ATOM     18  N   UNL     1       6.922   2.912  12.524  0.00  0.00    +0.000 N 
ATOM     19  H   UNL     1       7.886   2.751  12.794  0.00  0.00    +0.000 HD
ENDBRANCH  12  14
ENDBRANCH   2  12
TORSDOF 4
ENDMDL
MODEL 4
REMARK VINA RESULT:      -6.8      1.190      1.496
REMARK  Name = 
REMARK  5 active torsions:
REMARK  status: ('A' for Active; 'I' for Inactive)
REMARK    1  A    between atoms: C_1  and  O_2
REMARK    2  A    between atoms: O_2  and  C_3
REMARK    3  A    between atoms: C_6  and  C_7
REMARK    4  A    between atoms: C_8  and  C_9
REMARK    5  A    between atoms: C_9  and  C_11
REMARK                            x       y       z     vdW  Elec       q    Type
REMARK                         _______ _______ _______ _____ _____    ______ ____
ROOT
ATOM      1  C   UNL     1       5.010   3.777  16.001  0.00  0.00    +0.000 C 
ATOM      2  C   UNL     1       5.607   4.832  15.429  0.00  0.00    +0.000 C 
ENDROOT
BRANCH   1   6
ATOM      3  C   UNL     1       2.402   3.992  19.402  0.00  0.00    +0.000 A 
ATOM      4  C   UNL     1       2.766   2.766  18.840  0.00  0.00    +0.000 A 
ATOM      5  C   UNL     1       3.618   2.717  17.734  0.00  0.00    +0.000 A 
ATOM      6  C   UNL     1       4.102   3.891  17.149  0.00  0.00    +0.000 A 
ATOM      7  C   UNL     1       3.723   5.122  17.701  0.00  0.00    +0.000 A 
ATOM      8  C   UNL     1       2.870   5.172  18.810  0.00  0.00    +0.000 A 
ATOM      9 BR   UNL     1       2.399   6.882  19.494  0.00  0.00    +0.000 Br
BRANCH   3  11
ATOM     10  C   UNL     1       2.036   3.425  21.662  0.00  0.00    +0.000 C 
ATOM     11  O   UNL     1       1.580   4.100  20.493  0.00  0.00    +0.000 OA
ENDBRANCH   3  11
ENDBRANCH   1   6
BRANCH   2  12
ATOM     12  C   UNL     1       6.475   4.672  14.227  0.00  0.00    +0.000 C 
ATOM     13  O   UNL     1       7.592   5.184  14.186  0.00  0.00    +0.000 OA
BRANCH  12  14
ATOM     14  C   UNL     1       5.957   3.872  13.132  0.00  0.00    +0.000 A 
ATOM     15  C   UNL     1       4.743   3.884  12.463  0.00  0.00    +0.000 A 
ATOM     16  C   UNL     1       4.767   2.862  11.484  0.00  0.00    +0.000 A 
ATOM     17  C   UNL     1       5.993   2.250  11.566  0.00  0.00    +0.000 A 
ATOM     18  N   UNL     1       6.710   2.870  12.551  0.00  0.00    +0.000 N 
ATOM     19  H   UNL     1       7.654   2.638  12.841  0.00  0.00    +0.000 HD
ENDBRANCH  12  14
ENDBRANCH   2  12
TORSDOF 4
ENDMDL
MODEL 5
REMARK VINA RESULT:      -6.8      3.662      5.418
REMARK  Name = 
REMARK  5 active torsions:
REMARK  status: ('A' for Active; 'I' for Inactive)
REMARK    1  A    between atoms: C_1  and  O_2
REMARK    2  A    between atoms: O_2  and  C_3
REMARK    3  A    between atoms: C_6  and  C_7
REMARK    4  A    between atoms: C_8  and  C_9
REMARK    5  A    between atoms: C_9  and  C_11
REMARK                            x       y       z     vdW  Elec       q    Type
REMARK                         _______ _______ _______ _____ _____    ______ ____
ROOT
ATOM      1  C   UNL     1       3.216   6.198  18.552  0.00  0.00    +0.000 C 
ATOM      2  C   UNL     1       4.222   6.154  17.667  0.00  0.00    +0.000 C 
ENDROOT
BRANCH   1   6
ATOM      3  C   UNL     1       0.922   9.758  19.245  0.00  0.00    +0.000 A 
ATOM      4  C   UNL     1       1.481   9.484  17.995  0.00  0.00    +0.000 A 
ATOM      5  C   UNL     1       2.223   8.318  17.789  0.00  0.00    +0.000 A 
ATOM      6  C   UNL     1       2.445   7.416  18.833  0.00  0.00    +0.000 A 
ATOM      7  C   UNL     1       1.899   7.699  20.092  0.00  0.00    +0.000 A 
ATOM      8  C   UNL     1       1.155   8.866  20.299  0.00  0.00    +0.000 A 
ATOM      9 BR   UNL     1       0.455   9.177  22.039  0.00  0.00    +0.000 Br
BRANCH   3  11
ATOM     10  C   UNL     1      -1.134  10.874  18.939  0.00  0.00    +0.000 C 
ATOM     11  O   UNL     1       0.176  10.878  19.501  0.00  0.00    +0.000 OA
ENDBRANCH   3  11
ENDBRANCH   1   6
BRANCH   2  12
ATOM     12  C   UNL     1       4.936   4.878  17.372  0.00  0.00    +0.000 C 
ATOM     13  O   UNL     1       5.898   4.861  16.607  0.00  0.00    +0.000 OA
BRANCH  12  14
ATOM     14  C   UNL     1       4.465   3.680  18.041  0.00  0.00    +0.000 A 
ATOM     15  C   UNL     1       3.479   2.760  17.719  0.00  0.00    +0.000 A 
ATOM     16  C   UNL     1       3.428   1.788  18.747  0.00  0.00    +0.000 A 
ATOM     17  C   UNL     1       4.383   2.125  19.672  0.00  0.00    +0.000 A 
ATOM     18  N   UNL     1       5.014   3.257  19.236  0.00  0.00    +0.000 N 
ATOM     19  H   UNL     1       5.769   3.743  19.709  0.00  0.00    +0.000 HD
ENDBRANCH  12  14
ENDBRANCH   2  12
TORSDOF 4
ENDMDL
MODEL 6
REMARK VINA RESULT:      -6.7      0.931      1.190
REMARK  Name = 
REMARK  5 active torsions:
REMARK  status: ('A' for Active; 'I' for Inactive)
REMARK    1  A    between atoms: C_1  and  O_2
REMARK    2  A    between atoms: O_2  and  C_3
REMARK    3  A    between atoms: C_6  and  C_7
REMARK    4  A    between atoms: C_8  and  C_9
REMARK    5  A    between atoms: C_9  and  C_11
REMARK                            x       y       z     vdW  Elec       q    Type
REMARK                         _______ _______ _______ _____ _____    ______ ____
ROOT
ATOM      1  C   UNL     1       5.263   3.973  16.906  0.00  0.00    +0.000 C 
ATOM      2  C   UNL     1       5.346   5.005  16.054  0.00  0.00    +0.000 C 
ENDROOT
BRANCH   1   6
ATOM      3  C   UNL     1       2.003   3.268  19.605  0.00  0.00    +0.000 A 
ATOM      4  C   UNL     1       2.544   2.237  18.832  0.00  0.00    +0.000 A 
ATOM      5  C   UNL     1       3.608   2.487  17.960  0.00  0.00    +0.000 A 
ATOM      6  C   UNL     1       4.133   3.775  17.822  0.00  0.00    +0.000 A 
ATOM      7  C   UNL     1       3.579   4.812  18.584  0.00  0.00    +0.000 A 
ATOM      8  C   UNL     1       2.514   4.563  19.458  0.00  0.00    +0.000 A 
ATOM      9 BR   UNL     1       1.816   6.027  20.449  0.00  0.00    +0.000 Br
BRANCH   3  11
ATOM     10  C   UNL     1       1.340   2.528  21.744  0.00  0.00    +0.000 C 
ATOM     11  O   UNL     1       0.968   3.079  20.484  0.00  0.00    +0.000 OA
ENDBRANCH   3  11
ENDBRANCH   1   6
BRANCH   2  12
ATOM     12  C   UNL     1       6.486   5.131  15.100  0.00  0.00    +0.000 C 
ATOM     13  O   UNL     1       7.481   5.788  15.395  0.00  0.00    +0.000 OA
BRANCH  12  14
ATOM     14  C   UNL     1       6.378   4.428  13.835  0.00  0.00    +0.000 A 
ATOM     15  C   UNL     1       5.405   3.587  13.317  0.00  0.00    +0.000 A 
ATOM     16  C   UNL     1       5.824   3.162  12.034  0.00  0.00    +0.000 A 
ATOM     17  C   UNL     1       7.038   3.752  11.787  0.00  0.00    +0.000 A 
ATOM     18  N   UNL     1       7.360   4.524  12.869  0.00  0.00    +0.000 N 
ATOM     19  H   UNL     1       8.200   5.084  12.976  0.00  0.00    +0.000 HD
ENDBRANCH  12  14
ENDBRANCH   2  12
TORSDOF 4
ENDMDL
MODEL 7
REMARK VINA RESULT:      -6.7      3.788      5.496
REMARK  Name = 
REMARK  5 active torsions:
REMARK  status: ('A' for Active; 'I' for Inactive)
REMARK    1  A    between atoms: C_1  and  O_2
REMARK    2  A    between atoms: O_2  and  C_3
REMARK    3  A    between atoms: C_6  and  C_7
REMARK    4  A    between atoms: C_8  and  C_9
REMARK    5  A    between atoms: C_9  and  C_11
REMARK                            x       y       z     vdW  Elec       q    Type
REMARK                         _______ _______ _______ _____ _____    ______ ____
ROOT
ATOM      1  C   UNL     1       3.167   6.460  18.583  0.00  0.00    +0.000 C 
ATOM      2  C   UNL     1       3.386   5.462  19.452  0.00  0.00    +0.000 C 
ENDROOT
BRANCH   1   6
ATOM      3  C   UNL     1       0.662   9.857  19.355  0.00  0.00    +0.000 A 
ATOM      4  C   UNL     1       1.180   9.609  18.081  0.00  0.00    +0.000 A 
ATOM      5  C   UNL     1       1.992   8.495  17.850  0.00  0.00    +0.000 A 
ATOM      6  C   UNL     1       2.326   7.624  18.890  0.00  0.00    +0.000 A 
ATOM      7  C   UNL     1       1.822   7.882  20.171  0.00  0.00    +0.000 A 
ATOM      8  C   UNL     1       1.007   8.997  20.404  0.00  0.00    +0.000 A 
ATOM      9 BR   UNL     1       0.370   9.279  22.172  0.00  0.00    +0.000 Br
BRANCH   3  11
ATOM     10  C   UNL     1       0.348  12.190  19.206  0.00  0.00    +0.000 C 
ATOM     11  O   UNL     1      -0.148  10.926  19.636  0.00  0.00    +0.000 OA
ENDBRANCH   3  11
ENDBRANCH   1   6
BRANCH   2  12
ATOM     12  C   UNL     1       4.296   4.329  19.115  0.00  0.00    +0.000 C 
ATOM     13  O   UNL     1       3.886   3.171  19.126  0.00  0.00    +0.000 OA
BRANCH  12  14
ATOM     14  C   UNL     1       5.663   4.657  18.754  0.00  0.00    +0.000 A 
ATOM     15  C   UNL     1       6.606   5.488  19.336  0.00  0.00    +0.000 A 
ATOM     16  C   UNL     1       7.780   5.449  18.546  0.00  0.00    +0.000 A 
ATOM     17  C   UNL     1       7.538   4.592  17.501  0.00  0.00    +0.000 A 
ATOM     18  N   UNL     1       6.266   4.108  17.639  0.00  0.00    +0.000 N 
ATOM     19  H   UNL     1       5.805   3.451  17.018  0.00  0.00    +0.000 HD
ENDBRANCH  12  14
ENDBRANCH   2  12
TORSDOF 4
ENDMDL
MODEL 8
REMARK VINA RESULT:      -6.7      1.815      2.302
REMARK  Name = 
REMARK  5 active torsions:
REMARK  status: ('A' for Active; 'I' for Inactive)
REMARK    1  A    between atoms: C_1  and  O_2
REMARK    2  A    between atoms: O_2  and  C_3
REMARK    3  A    between atoms: C_6  and  C_7
REMARK    4  A    between atoms: C_8  and  C_9
REMARK    5  A    between atoms: C_9  and  C_11
REMARK                            x       y       z     vdW  Elec       q    Type
REMARK                         _______ _______ _______ _____ _____    ______ ____
ROOT
ATOM      1  C   UNL     1       5.144   5.192  15.800  0.00  0.00    +0.000 C 
ATOM      2  C   UNL     1       5.983   4.263  15.319  0.00  0.00    +0.000 C 
ENDROOT
BRANCH   1   6
ATOM      3  C   UNL     1       3.212   5.008  19.627  0.00  0.00    +0.000 A 
ATOM      4  C   UNL     1       3.134   6.151  18.826  0.00  0.00    +0.000 A 
ATOM      5  C   UNL     1       3.768   6.189  17.581  0.00  0.00    +0.000 A 
ATOM      6  C   UNL     1       4.517   5.101  17.124  0.00  0.00    +0.000 A 
ATOM      7  C   UNL     1       4.610   3.962  17.935  0.00  0.00    +0.000 A 
ATOM      8  C   UNL     1       3.974   3.921  19.181  0.00  0.00    +0.000 A 
ATOM      9 BR   UNL     1       4.156   2.341  20.222  0.00  0.00    +0.000 Br
BRANCH   3  11
ATOM     10  C   UNL     1       1.260   4.425  20.817  0.00  0.00    +0.000 C 
ATOM     11  O   UNL     1       2.600   4.910  20.849  0.00  0.00    +0.000 OA
ENDBRANCH   3  11
ENDBRANCH   1   6
BRANCH   2  12
ATOM     12  C   UNL     1       6.643   4.429  13.992  0.00  0.00    +0.000 C 
ATOM     13  O   UNL     1       7.594   5.195  13.855  0.00  0.00    +0.000 OA
BRANCH  12  14
ATOM     14  C   UNL     1       6.133   3.634  12.890  0.00  0.00    +0.000 A 
ATOM     15  C   UNL     1       4.896   3.592  12.266  0.00  0.00    +0.000 A 
ATOM     16  C   UNL     1       4.944   2.606  11.251  0.00  0.00    +0.000 A 
ATOM     17  C   UNL     1       6.207   2.069  11.268  0.00  0.00    +0.000 A 
ATOM     18  N   UNL     1       6.922   2.700  12.247  0.00  0.00    +0.000 N 
ATOM     19  H   UNL     1       7.889   2.518  12.494  0.00  0.00    +0.000 HD
ENDBRANCH  12  14
ENDBRANCH   2  12
TORSDOF 4
ENDMDL
MODEL 9
REMARK VINA RESULT:      -6.7      3.188      4.199
REMARK  Name = 
REMARK  5 active torsions:
REMARK  status: ('A' for Active; 'I' for Inactive)
REMARK    1  A    between atoms: C_1  and  O_2
REMARK    2  A    between atoms: O_2  and  C_3
REMARK    3  A    between atoms: C_6  and  C_7
REMARK    4  A    between atoms: C_8  and  C_9
REMARK    5  A    between atoms: C_9  and  C_11
REMARK                            x       y       z     vdW  Elec       q    Type
REMARK                         _______ _______ _______ _____ _____    ______ ____
ROOT
ATOM      1  C   UNL     1       3.706   6.151  18.277  0.00  0.00    +0.000 C 
ATOM      2  C   UNL     1       5.026   6.275  18.075  0.00  0.00    +0.000 C 
ENDROOT
BRANCH   1   6
ATOM      3  C   UNL     1       1.106   9.479  19.036  0.00  0.00    +0.000 A 
ATOM      4  C   UNL     1       1.750   9.324  17.806  0.00  0.00    +0.000 A 
ATOM      5  C   UNL     1       2.591   8.232  17.577  0.00  0.00    +0.000 A 
ATOM      6  C   UNL     1       2.829   7.288  18.581  0.00  0.00    +0.000 A 
ATOM      7  C   UNL     1       2.197   7.453  19.821  0.00  0.00    +0.000 A 
ATOM      8  C   UNL     1       1.353   8.546  20.050  0.00  0.00    +0.000 A 
ATOM      9 BR   UNL     1       0.541   8.699  21.762  0.00  0.00    +0.000 Br
BRANCH   3  11
ATOM     10  C   UNL     1      -0.820  10.682  18.397  0.00  0.00    +0.000 C 
ATOM     11  O   UNL     1       0.262  10.523  19.311  0.00  0.00    +0.000 OA
ENDBRANCH   3  11
ENDBRANCH   1   6
BRANCH   2  12
ATOM     12  C   UNL     1       5.866   5.098  17.709  0.00  0.00    +0.000 C 
ATOM     13  O   UNL     1       6.347   4.376  18.579  0.00  0.00    +0.000 OA
BRANCH  12  14
ATOM     14  C   UNL     1       6.065   4.834  16.296  0.00  0.00    +0.000 A 
ATOM     15  C   UNL     1       5.317   4.129  15.366  0.00  0.00    +0.000 A 
ATOM     16  C   UNL     1       5.995   4.177  14.124  0.00  0.00    +0.000 A 
ATOM     17  C   UNL     1       7.138   4.913  14.314  0.00  0.00    +0.000 A 
ATOM     18  N   UNL     1       7.168   5.318  15.619  0.00  0.00    +0.000 N 
ATOM     19  H   UNL     1       7.891   5.880  16.055  0.00  0.00    +0.000 HD
ENDBRANCH  12  14
ENDBRANCH   2  12
TORSDOF 4
ENDMDL
