MODEL 1
REMARK VINA RESULT:      -6.6      0.000      0.000
REMARK  Name = 
REMARK  7 active torsions:
REMARK  status: ('A' for Active; 'I' for Inactive)
REMARK    1  A    between atoms: C_2  and  C_3
REMARK    2  A    between atoms: C_3  and  O_4
REMARK    3  A    between atoms: O_4  and  C_5
REMARK    4  A    between atoms: C_9  and  C_10
REMARK    5  A    between atoms: C_10  and  N_11
REMARK    6  A    between atoms: N_11  and  N_12
REMARK    7  A    between atoms: C_16  and  S_17
REMARK                            x       y       z     vdW  Elec       q    Type
REMARK                         _______ _______ _______ _____ _____    ______ ____
ROOT
ATOM      1  C   UNL     1       6.622   6.010  16.695  0.00  0.00    +0.000 A 
ATOM      2  C   UNL     1       6.729   4.928  15.820  0.00  0.00    +0.000 A 
ATOM      3  C   UNL     1       5.667   4.039  15.661  0.00  0.00    +0.000 A 
ATOM      4  C   UNL     1       4.477   4.248  16.359  0.00  0.00    +0.000 A 
ATOM      5  C   UNL     1       4.335   5.355  17.209  0.00  0.00    +0.000 A 
ATOM      6  C   UNL     1       5.425   6.224  17.385  0.00  0.00    +0.000 A 
ENDROOT
BRANCH   1   7
ATOM      7  O   UNL     1       7.715   6.832  16.747  0.00  0.00    +0.000 OA
BRANCH   7   8
ATOM      8  C   UNL     1       7.957   7.460  18.006  0.00  0.00    +0.000 C 
BRANCH   8  10
ATOM      9  C   UNL     1       8.741   9.815  18.435  0.00  0.00    +0.000 C 
ATOM     10  C   UNL     1       7.965   8.942  17.779  0.00  0.00    +0.000 C 
ENDBRANCH   8  10
ENDBRANCH   7   8
ENDBRANCH   1   7
BRANCH   5  11
ATOM     11  C   UNL     1       3.019   5.618  17.900  0.00  0.00    +0.000 C 
BRANCH  11  12
ATOM     12  N   UNL     1       2.132   4.462  17.823  0.00  0.00    +0.000 N 
ATOM     13  H   UNL     1       2.517   3.798  17.155  0.00  0.00    +0.000 HD
BRANCH  12  14
ATOM     14  N   UNL     1       1.919   3.816  19.106  0.00  0.00    +0.000 N 
ATOM     15  C   UNL     1       1.121   4.220  20.143  0.00  0.00    +0.000 A 
ATOM     16  N   UNL     1       1.161   3.339  21.118  0.00  0.00    +0.000 NA
ATOM     17  N   UNL     1       1.978   2.308  20.715  0.00  0.00    +0.000 NA
ATOM     18  C   UNL     1       2.413   2.599  19.511  0.00  0.00    +0.000 A 
BRANCH  18  19
ATOM     19  S   UNL     1       3.449   1.608  18.550  0.00  0.00    +0.000 S 
ATOM     20  H   UNL     1       3.561   0.610  19.443  0.00  0.00    +0.000 HD
ENDBRANCH  18  19
ENDBRANCH  12  14
ENDBRANCH  11  12
ENDBRANCH   5  11
TORSDOF 7
ENDMDL
MODEL 2
REMARK VINA RESULT:      -6.5      2.445      3.786
REMARK  Name = 
REMARK  7 active torsions:
REMARK  status: ('A' for Active; 'I' for Inactive)
REMARK    1  A    between atoms: C_2  and  C_3
REMARK    2  A    between atoms: C_3  and  O_4
REMARK    3  A    between atoms: O_4  and  C_5
REMARK    4  A    between atoms: C_9  and  C_10
REMARK    5  A    between atoms: C_10  and  N_11
REMARK    6  A    between atoms: N_11  and  N_12
REMARK    7  A    between atoms: C_16  and  S_17
REMARK                            x       y       z     vdW  Elec       q    Type
REMARK                         _______ _______ _______ _____ _____    ______ ____
ROOT
ATOM      1  C   UNL     1       6.501   5.182  16.072  0.00  0.00    +0.000 A 
ATOM      2  C   UNL     1       5.695   6.268  15.732  0.00  0.00    +0.000 A 
ATOM      3  C   UNL     1       4.688   6.700  16.595  0.00  0.00    +0.000 A 
ATOM      4  C   UNL     1       4.504   6.061  17.820  0.00  0.00    +0.000 A 
ATOM      5  C   UNL     1       5.334   4.995  18.200  0.00  0.00    +0.000 A 
ATOM      6  C   UNL     1       6.322   4.549  17.306  0.00  0.00    +0.000 A 
ENDROOT
BRANCH   1   7
ATOM      7  O   UNL     1       7.475   4.866  15.163  0.00  0.00    +0.000 OA
BRANCH   7   8
ATOM      8  C   UNL     1       7.081   4.918  13.792  0.00  0.00    +0.000 C 
BRANCH   8  10
ATOM      9  C   UNL     1       5.820   3.313  12.316  0.00  0.00    +0.000 C 
ATOM     10  C   UNL     1       6.195   3.738  13.530  0.00  0.00    +0.000 C 
ENDBRANCH   8  10
ENDBRANCH   7   8
ENDBRANCH   1   7
BRANCH   5  11
ATOM     11  C   UNL     1       5.180   4.360  19.560  0.00  0.00    +0.000 C 
BRANCH  11  12
ATOM     12  N   UNL     1       4.859   2.940  19.456  0.00  0.00    +0.000 N 
ATOM     13  H   UNL     1       5.010   2.503  20.363  0.00  0.00    +0.000 HD
BRANCH  12  14
ATOM     14  N   UNL     1       3.504   2.691  18.999  0.00  0.00    +0.000 N 
ATOM     15  C   UNL     1       3.072   2.382  17.736  0.00  0.00    +0.000 A 
ATOM     16  N   UNL     1       1.772   2.184  17.735  0.00  0.00    +0.000 NA
ATOM     17  N   UNL     1       1.327   2.331  19.029  0.00  0.00    +0.000 NA
ATOM     18  C   UNL     1       2.369   2.621  19.772  0.00  0.00    +0.000 A 
BRANCH  18  19
ATOM     19  S   UNL     1       2.347   2.872  21.480  0.00  0.00    +0.000 S 
ATOM     20  H   UNL     1       3.342   3.775  21.504  0.00  0.00    +0.000 HD
ENDBRANCH  18  19
ENDBRANCH  12  14
ENDBRANCH  11  12
ENDBRANCH   5  11
TORSDOF 7
ENDMDL
MODEL 3
REMARK VINA RESULT:      -6.5      3.696      6.145
REMARK  Name = 
REMARK  7 active torsions:
REMARK  status: ('A' for Active; 'I' for Inactive)
REMARK    1  A    between atoms: C_2  and  C_3
REMARK    2  A    between atoms: C_3  and  O_4
REMARK    3  A    between atoms: O_4  and  C_5
REMARK    4  A    between atoms: C_9  and  C_10
REMARK    5  A    between atoms: C_10  and  N_11
REMARK    6  A    between atoms: N_11  and  N_12
REMARK    7  A    between atoms: C_16  and  S_17
REMARK                            x       y       z     vdW  Elec       q    Type
REMARK                         _______ _______ _______ _____ _____    ______ ____
ROOT
ATOM      1  C   UNL     1       1.721   4.904  19.921  0.00  0.00    +0.000 A 
ATOM      2  C   UNL     1       0.971   3.768  20.226  0.00  0.00    +0.000 A 
ATOM      3  C   UNL     1       1.052   2.629  19.425  0.00  0.00    +0.000 A 
ATOM      4  C   UNL     1       1.912   2.614  18.327  0.00  0.00    +0.000 A 
ATOM      5  C   UNL     1       2.708   3.731  18.031  0.00  0.00    +0.000 A 
ATOM      6  C   UNL     1       2.590   4.883  18.826  0.00  0.00    +0.000 A 
ENDROOT
BRANCH   1   7
ATOM      7  O   UNL     1       1.584   5.949  20.794  0.00  0.00    +0.000 OA
BRANCH   7   8
ATOM      8  C   UNL     1       2.004   7.222  20.304  0.00  0.00    +0.000 C 
BRANCH   8  10
ATOM      9  C   UNL     1       1.319   8.940  22.014  0.00  0.00    +0.000 C 
ATOM     10  C   UNL     1       1.088   8.257  20.886  0.00  0.00    +0.000 C 
ENDBRANCH   8  10
ENDBRANCH   7   8
ENDBRANCH   1   7
BRANCH   5  11
ATOM     11  C   UNL     1       3.693   3.679  16.888  0.00  0.00    +0.000 C 
BRANCH  11  12
ATOM     12  N   UNL     1       5.072   3.680  17.368  0.00  0.00    +0.000 N 
ATOM     13  H   UNL     1       5.377   2.717  17.490  0.00  0.00    +0.000 HD
BRANCH  12  14
ATOM     14  N   UNL     1       5.984   4.387  16.487  0.00  0.00    +0.000 N 
ATOM     15  C   UNL     1       6.004   4.409  15.118  0.00  0.00    +0.000 A 
ATOM     16  N   UNL     1       6.958   5.207  14.689  0.00  0.00    +0.000 NA
ATOM     17  N   UNL     1       7.569   5.755  15.792  0.00  0.00    +0.000 NA
ATOM     18  C   UNL     1       6.973   5.269  16.855  0.00  0.00    +0.000 A 
BRANCH  18  19
ATOM     19  S   UNL     1       7.349   5.670  18.491  0.00  0.00    +0.000 S 
ATOM     20  H   UNL     1       7.866   4.473  18.816  0.00  0.00    +0.000 HD
ENDBRANCH  18  19
ENDBRANCH  12  14
ENDBRANCH  11  12
ENDBRANCH   5  11
TORSDOF 7
ENDMDL
MODEL 4
REMARK VINA RESULT:      -6.4      3.604      5.829
REMARK  Name = 
REMARK  7 active torsions:
REMARK  status: ('A' for Active; 'I' for Inactive)
REMARK    1  A    between atoms: C_2  and  C_3
REMARK    2  A    between atoms: C_3  and  O_4
REMARK    3  A    between atoms: O_4  and  C_5
REMARK    4  A    between atoms: C_9  and  C_10
REMARK    5  A    between atoms: C_10  and  N_11
REMARK    6  A    between atoms: N_11  and  N_12
REMARK    7  A    between atoms: C_16  and  S_17
REMARK                            x       y       z     vdW  Elec       q    Type
REMARK                         _______ _______ _______ _____ _____    ______ ____
ROOT
ATOM      1  C   UNL     1       2.425   6.484  19.185  0.00  0.00    +0.000 A 
ATOM      2  C   UNL     1       2.011   5.807  20.332  0.00  0.00    +0.000 A 
ATOM      3  C   UNL     1       2.135   4.420  20.419  0.00  0.00    +0.000 A 
ATOM      4  C   UNL     1       2.704   3.708  19.364  0.00  0.00    +0.000 A 
ATOM      5  C   UNL     1       3.167   4.377  18.221  0.00  0.00    +0.000 A 
ATOM      6  C   UNL     1       3.004   5.769  18.133  0.00  0.00    +0.000 A 
ENDROOT
BRANCH   1   7
ATOM      7  O   UNL     1       2.282   7.845  19.224  0.00  0.00    +0.000 OA
BRANCH   7   8
ATOM      8  C   UNL     1       2.281   8.503  17.957  0.00  0.00    +0.000 C 
BRANCH   8  10
ATOM      9  C   UNL     1       0.462   9.933  18.951  0.00  0.00    +0.000 C 
ATOM     10  C   UNL     1       1.484   9.764  18.102  0.00  0.00    +0.000 C 
ENDBRANCH   8  10
ENDBRANCH   7   8
ENDBRANCH   1   7
BRANCH   5  11
ATOM     11  C   UNL     1       3.853   3.608  17.117  0.00  0.00    +0.000 C 
BRANCH  11  12
ATOM     12  N   UNL     1       5.284   3.473  17.366  0.00  0.00    +0.000 N 
ATOM     13  H   UNL     1       5.539   2.491  17.286  0.00  0.00    +0.000 HD
BRANCH  12  14
ATOM     14  N   UNL     1       6.100   4.276  16.473  0.00  0.00    +0.000 N 
ATOM     15  C   UNL     1       6.127   4.270  15.104  0.00  0.00    +0.000 A 
ATOM     16  N   UNL     1       6.968   5.179  14.661  0.00  0.00    +0.000 NA
ATOM     17  N   UNL     1       7.492   5.830  15.755  0.00  0.00    +0.000 NA
ATOM     18  C   UNL     1       6.958   5.291  16.826  0.00  0.00    +0.000 A 
BRANCH  18  19
ATOM     19  S   UNL     1       7.264   5.776  18.454  0.00  0.00    +0.000 S 
ATOM     20  H   UNL     1       6.215   6.609  18.555  0.00  0.00    +0.000 HD
ENDBRANCH  18  19
ENDBRANCH  12  14
ENDBRANCH  11  12
ENDBRANCH   5  11
TORSDOF 7
ENDMDL
MODEL 5
REMARK VINA RESULT:      -6.4      2.067      3.314
REMARK  Name = 
REMARK  7 active torsions:
REMARK  status: ('A' for Active; 'I' for Inactive)
REMARK    1  A    between atoms: C_2  and  C_3
REMARK    2  A    between atoms: C_3  and  O_4
REMARK    3  A    between atoms: O_4  and  C_5
REMARK    4  A    between atoms: C_9  and  C_10
REMARK    5  A    between atoms: C_10  and  N_11
REMARK    6  A    between atoms: N_11  and  N_12
REMARK    7  A    between atoms: C_16  and  S_17
REMARK                            x       y       z     vdW  Elec       q    Type
REMARK                         _______ _______ _______ _____ _____    ______ ____
ROOT
ATOM      1  C   UNL     1       5.237   5.020  16.949  0.00  0.00    +0.000 A 
ATOM      2  C   UNL     1       5.276   6.405  17.111  0.00  0.00    +0.000 A 
ATOM      3  C   UNL     1       4.132   7.107  17.489  0.00  0.00    +0.000 A 
ATOM      4  C   UNL     1       2.945   6.416  17.735  0.00  0.00    +0.000 A 
ATOM      5  C   UNL     1       2.898   5.019  17.621  0.00  0.00    +0.000 A 
ATOM      6  C   UNL     1       4.049   4.329  17.207  0.00  0.00    +0.000 A 
ENDROOT
BRANCH   1   7
ATOM      7  O   UNL     1       6.426   4.435  16.606  0.00  0.00    +0.000 OA
BRANCH   7   8
ATOM      8  C   UNL     1       6.876   4.684  15.274  0.00  0.00    +0.000 C 
BRANCH   8  10
ATOM      9  C   UNL     1       6.190   3.792  13.021  0.00  0.00    +0.000 C 
ATOM     10  C   UNL     1       6.084   3.803  14.356  0.00  0.00    +0.000 C 
ENDBRANCH   8  10
ENDBRANCH   7   8
ENDBRANCH   1   7
BRANCH   5  11
ATOM     11  C   UNL     1       1.632   4.271  17.966  0.00  0.00    +0.000 C 
BRANCH  11  12
ATOM     12  N   UNL     1       1.919   2.926  18.454  0.00  0.00    +0.000 N 
ATOM     13  H   UNL     1       2.791   2.606  18.039  0.00  0.00    +0.000 HD
BRANCH  12  14
ATOM     14  N   UNL     1       1.994   2.846  19.902  0.00  0.00    +0.000 N 
ATOM     15  C   UNL     1       0.983   2.969  20.818  0.00  0.00    +0.000 A 
ATOM     16  N   UNL     1       1.446   2.787  22.035  0.00  0.00    +0.000 NA
ATOM     17  N   UNL     1       2.788   2.505  21.932  0.00  0.00    +0.000 NA
ATOM     18  C   UNL     1       3.099   2.531  20.657  0.00  0.00    +0.000 A 
BRANCH  18  19
ATOM     19  S   UNL     1       4.661   2.210  19.996  0.00  0.00    +0.000 S 
ATOM     20  H   UNL     1       4.224   1.550  18.910  0.00  0.00    +0.000 HD
ENDBRANCH  18  19
ENDBRANCH  12  14
ENDBRANCH  11  12
ENDBRANCH   5  11
TORSDOF 7
ENDMDL
MODEL 6
REMARK VINA RESULT:      -6.4      1.918      3.247
REMARK  Name = 
REMARK  7 active torsions:
REMARK  status: ('A' for Active; 'I' for Inactive)
REMARK    1  A    between atoms: C_2  and  C_3
REMARK    2  A    between atoms: C_3  and  O_4
REMARK    3  A    between atoms: O_4  and  C_5
REMARK    4  A    between atoms: C_9  and  C_10
REMARK    5  A    between atoms: C_10  and  N_11
REMARK    6  A    between atoms: N_11  and  N_12
REMARK    7  A    between atoms: C_16  and  S_17
REMARK                            x       y       z     vdW  Elec       q    Type
REMARK                         _______ _______ _______ _____ _____    ______ ____
ROOT
ATOM      1  C   UNL     1       6.676   4.968  16.713  0.00  0.00    +0.000 A 
ATOM      2  C   UNL     1       7.371   4.854  17.918  0.00  0.00    +0.000 A 
ATOM      3  C   UNL     1       6.740   5.140  19.129  0.00  0.00    +0.000 A 
ATOM      4  C   UNL     1       5.397   5.513  19.139  0.00  0.00    +0.000 A 
ATOM      5  C   UNL     1       4.669   5.589  17.942  0.00  0.00    +0.000 A 
ATOM      6  C   UNL     1       5.326   5.332  16.727  0.00  0.00    +0.000 A 
ENDROOT
BRANCH   1   7
ATOM      7  O   UNL     1       7.387   4.635  15.592  0.00  0.00    +0.000 OA
BRANCH   7   8
ATOM      8  C   UNL     1       6.778   4.981  14.348  0.00  0.00    +0.000 C 
BRANCH   8  10
ATOM      9  C   UNL     1       6.142   3.475  12.432  0.00  0.00    +0.000 C 
ATOM     10  C   UNL     1       6.231   3.722  13.746  0.00  0.00    +0.000 C 
ENDBRANCH   8  10
ENDBRANCH   7   8
ENDBRANCH   1   7
BRANCH   5  11
ATOM     11  C   UNL     1       3.196   5.917  17.968  0.00  0.00    +0.000 C 
BRANCH  11  12
ATOM     12  N   UNL     1       2.377   4.724  17.785  0.00  0.00    +0.000 N 
ATOM     13  H   UNL     1       2.845   4.103  17.129  0.00  0.00    +0.000 HD
BRANCH  12  14
ATOM     14  N   UNL     1       2.098   4.024  19.026  0.00  0.00    +0.000 N 
ATOM     15  C   UNL     1       1.310   4.423  20.073  0.00  0.00    +0.000 A 
ATOM     16  N   UNL     1       1.272   3.489  20.997  0.00  0.00    +0.000 NA
ATOM     17  N   UNL     1       2.025   2.428  20.548  0.00  0.00    +0.000 NA
ATOM     18  C   UNL     1       2.501   2.755  19.369  0.00  0.00    +0.000 A 
BRANCH  18  19
ATOM     19  S   UNL     1       3.484   1.750  18.368  0.00  0.00    +0.000 S 
ATOM     20  H   UNL     1       2.474   1.239  17.643  0.00  0.00    +0.000 HD
ENDBRANCH  18  19
ENDBRANCH  12  14
ENDBRANCH  11  12
ENDBRANCH   5  11
TORSDOF 7
ENDMDL
MODEL 7
REMARK VINA RESULT:      -6.4      1.899      2.555
REMARK  Name = 
REMARK  7 active torsions:
REMARK  status: ('A' for Active; 'I' for Inactive)
REMARK    1  A    between atoms: C_2  and  C_3
REMARK    2  A    between atoms: C_3  and  O_4
REMARK    3  A    between atoms: O_4  and  C_5
REMARK    4  A    between atoms: C_9  and  C_10
REMARK    5  A    between atoms: C_10  and  N_11
REMARK    6  A    between atoms: N_11  and  N_12
REMARK    7  A    between atoms: C_16  and  S_17
REMARK                            x       y       z     vdW  Elec       q    Type
REMARK                         _______ _______ _______ _____ _____    ______ ____
ROOT
ATOM      1  C   UNL     1       4.845   5.376  16.862  0.00  0.00    +0.000 A 
ATOM      2  C   UNL     1       4.772   6.734  17.172  0.00  0.00    +0.000 A 
ATOM      3  C   UNL     1       3.597   7.282  17.687  0.00  0.00    +0.000 A 
ATOM      4  C   UNL     1       2.495   6.460  17.922  0.00  0.00    +0.000 A 
ATOM      5  C   UNL     1       2.564   5.084  17.659  0.00  0.00    +0.000 A 
ATOM      6  C   UNL     1       3.742   4.552  17.109  0.00  0.00    +0.000 A 
ENDROOT
BRANCH   1   7
ATOM      7  O   UNL     1       6.056   4.945  16.392  0.00  0.00    +0.000 OA
BRANCH   7   8
ATOM      8  C   UNL     1       7.191   5.684  16.839  0.00  0.00    +0.000 C 
BRANCH   8  10
ATOM      9  C   UNL     1       7.775   5.715  19.289  0.00  0.00    +0.000 C 
ATOM     10  C   UNL     1       7.658   5.067  18.123  0.00  0.00    +0.000 C 
ENDBRANCH   8  10
ENDBRANCH   7   8
ENDBRANCH   1   7
BRANCH   5  11
ATOM     11  C   UNL     1       1.394   4.189  17.990  0.00  0.00    +0.000 C 
BRANCH  11  12
ATOM     12  N   UNL     1       1.835   2.879  18.458  0.00  0.00    +0.000 N 
ATOM     13  H   UNL     1       2.722   2.654  18.012  0.00  0.00    +0.000 HD
BRANCH  12  14
ATOM     14  N   UNL     1       1.966   2.801  19.902  0.00  0.00    +0.000 N 
ATOM     15  C   UNL     1       0.987   2.901  20.854  0.00  0.00    +0.000 A 
ATOM     16  N   UNL     1       1.499   2.730  22.053  0.00  0.00    +0.000 NA
ATOM     17  N   UNL     1       2.843   2.478  21.900  0.00  0.00    +0.000 NA
ATOM     18  C   UNL     1       3.106   2.511  20.614  0.00  0.00    +0.000 A 
BRANCH  18  19
ATOM     19  S   UNL     1       4.648   2.224  19.896  0.00  0.00    +0.000 S 
ATOM     20  H   UNL     1       5.241   3.326  20.387  0.00  0.00    +0.000 HD
ENDBRANCH  18  19
ENDBRANCH  12  14
ENDBRANCH  11  12
ENDBRANCH   5  11
TORSDOF 7
ENDMDL
MODEL 8
REMARK VINA RESULT:      -6.4      2.188      3.713
REMARK  Name = 
REMARK  7 active torsions:
REMARK  status: ('A' for Active; 'I' for Inactive)
REMARK    1  A    between atoms: C_2  and  C_3
REMARK    2  A    between atoms: C_3  and  O_4
REMARK    3  A    between atoms: O_4  and  C_5
REMARK    4  A    between atoms: C_9  and  C_10
REMARK    5  A    between atoms: C_10  and  N_11
REMARK    6  A    between atoms: N_11  and  N_12
REMARK    7  A    between atoms: C_16  and  S_17
REMARK                            x       y       z     vdW  Elec       q    Type
REMARK                         _______ _______ _______ _____ _____    ______ ____
ROOT
ATOM      1  C   UNL     1       6.040   5.125  15.694  0.00  0.00    +0.000 A 
ATOM      2  C   UNL     1       7.195   4.738  16.374  0.00  0.00    +0.000 A 
ATOM      3  C   UNL     1       7.262   4.831  17.764  0.00  0.00    +0.000 A 
ATOM      4  C   UNL     1       6.157   5.286  18.483  0.00  0.00    +0.000 A 
ATOM      5  C   UNL     1       4.972   5.637  17.820  0.00  0.00    +0.000 A 
ATOM      6  C   UNL     1       4.930   5.571  16.417  0.00  0.00    +0.000 A 
ENDROOT
BRANCH   1   7
ATOM      7  O   UNL     1       6.077   4.963  14.335  0.00  0.00    +0.000 OA
BRANCH   7   8
ATOM      8  C   UNL     1       6.261   3.624  13.877  0.00  0.00    +0.000 C 
BRANCH   8  10
ATOM      9  C   UNL     1       4.838   3.255  11.832  0.00  0.00    +0.000 C 
ATOM     10  C   UNL     1       5.998   3.609  12.402  0.00  0.00    +0.000 C 
ENDBRANCH   8  10
ENDBRANCH   7   8
ENDBRANCH   1   7
BRANCH   5  11
ATOM     11  C   UNL     1       3.755   6.054  18.610  0.00  0.00    +0.000 C 
BRANCH  11  12
ATOM     12  N   UNL     1       3.782   5.510  19.964  0.00  0.00    +0.000 N 
ATOM     13  H   UNL     1       3.703   6.278  20.626  0.00  0.00    +0.000 HD
BRANCH  12  14
ATOM     14  N   UNL     1       2.740   4.529  20.208  0.00  0.00    +0.000 N 
ATOM     15  C   UNL     1       1.405   4.739  20.430  0.00  0.00    +0.000 A 
ATOM     16  N   UNL     1       0.779   3.590  20.563  0.00  0.00    +0.000 NA
ATOM     17  N   UNL     1       1.707   2.588  20.395  0.00  0.00    +0.000 NA
ATOM     18  C   UNL     1       2.867   3.161  20.173  0.00  0.00    +0.000 A 
BRANCH  18  19
ATOM     19  S   UNL     1       4.352   2.337  19.867  0.00  0.00    +0.000 S 
ATOM     20  H   UNL     1       4.607   2.933  18.690  0.00  0.00    +0.000 HD
ENDBRANCH  18  19
ENDBRANCH  12  14
ENDBRANCH  11  12
ENDBRANCH   5  11
TORSDOF 7
ENDMDL
MODEL 9
REMARK VINA RESULT:      -6.4      2.585      4.276
REMARK  Name = 
REMARK  7 active torsions:
REMARK  status: ('A' for Active; 'I' for Inactive)
REMARK    1  A    between atoms: C_2  and  C_3
REMARK    2  A    between atoms: C_3  and  O_4
REMARK    3  A    between atoms: O_4  and  C_5
REMARK    4  A    between atoms: C_9  and  C_10
REMARK    5  A    between atoms: C_10  and  N_11
REMARK    6  A    between atoms: N_11  and  N_12
REMARK    7  A    between atoms: C_16  and  S_17
REMARK                            x       y       z     vdW  Elec       q    Type
REMARK                         _______ _______ _______ _____ _____    ______ ____
ROOT
ATOM      1  C   UNL     1       5.673   4.414  15.482  0.00  0.00    +0.000 A 
ATOM      2  C   UNL     1       7.044   4.641  15.603  0.00  0.00    +0.000 A 
ATOM      3  C   UNL     1       7.626   4.806  16.860  0.00  0.00    +0.000 A 
ATOM      4  C   UNL     1       6.838   4.713  18.006  0.00  0.00    +0.000 A 
ATOM      5  C   UNL     1       5.465   4.439  17.906  0.00  0.00    +0.000 A 
ATOM      6  C   UNL     1       4.886   4.310  16.633  0.00  0.00    +0.000 A 
ENDROOT
BRANCH   1   7
ATOM      7  O   UNL     1       5.218   4.238  14.203  0.00  0.00    +0.000 OA
BRANCH   7   8
ATOM      8  C   UNL     1       6.176   3.743  13.268  0.00  0.00    +0.000 C 
BRANCH   8  10
ATOM      9  C   UNL     1       5.689   2.061  11.458  0.00  0.00    +0.000 C 
ATOM     10  C   UNL     1       5.423   3.214  12.084  0.00  0.00    +0.000 C 
ENDBRANCH   8  10
ENDBRANCH   7   8
ENDBRANCH   1   7
BRANCH   5  11
ATOM     11  C   UNL     1       4.634   4.262  19.154  0.00  0.00    +0.000 C 
BRANCH  11  12
ATOM     12  N   UNL     1       4.175   2.885  19.303  0.00  0.00    +0.000 N 
ATOM     13  H   UNL     1       4.454   2.544  20.220  0.00  0.00    +0.000 HD
BRANCH  12  14
ATOM     14  N   UNL     1       2.742   2.736  19.127  0.00  0.00    +0.000 N 
ATOM     15  C   UNL     1       2.052   2.377  17.999  0.00  0.00    +0.000 A 
ATOM     16  N   UNL     1       0.765   2.307  18.255  0.00  0.00    +0.000 NA
ATOM     17  N   UNL     1       0.589   2.594  19.589  0.00  0.00    +0.000 NA
ATOM     18  C   UNL     1       1.775   2.836  20.099  0.00  0.00    +0.000 A 
BRANCH  18  19
ATOM     19  S   UNL     1       2.100   3.216  21.751  0.00  0.00    +0.000 S 
ATOM     20  H   UNL     1       0.890   3.735  22.019  0.00  0.00    +0.000 HD
ENDBRANCH  18  19
ENDBRANCH  12  14
ENDBRANCH  11  12
ENDBRANCH   5  11
TORSDOF 7
ENDMDL
