MODEL 1
REMARK VINA RESULT:      -7.8      0.000      0.000
REMARK  Name = 
REMARK  4 active torsions:
REMARK  status: ('A' for Active; 'I' for Inactive)
REMARK    1  A    between atoms: C_1  and  C_2
REMARK    2  A    between atoms: C_5  and  C_6
REMARK    3  A    between atoms: N_15  and  C_16
REMARK    4  A    between atoms: C_16  and  C_17
REMARK                            x       y       z     vdW  Elec       q    Type
REMARK                         _______ _______ _______ _____ _____    ______ ____
ROOT
ATOM      1  C   UNL     1       1.914   8.521  18.268  0.00  0.00    +0.000 C 
ATOM      2  O   UNL     1       1.688   9.268  17.316  0.00  0.00    +0.000 OA
ATOM      3  N   UNL     1       1.588   8.878  19.565  0.00  0.00    +0.000 N 
ATOM      4  C   UNL     1       1.446   8.023  20.758  0.00  0.00    +0.000 C 
ATOM      5  C   UNL     1       0.708   8.887  21.812  0.00  0.00    +0.000 C 
ATOM      6  C   UNL     1       1.019  10.289  21.309  0.00  0.00    +0.000 C 
ATOM      7  C   UNL     1       0.856  10.093  19.808  0.00  0.00    +0.000 C 
ATOM      8  C   UNL     1       1.266  11.456  19.323  0.00  0.00    +0.000 C 
ATOM      9  C   UNL     1       0.532  12.347  20.348  0.00  0.00    +0.000 C 
ATOM     10  N   UNL     1       0.319  11.544  21.595  0.00  0.00    +0.000 NA
ENDROOT
BRANCH   1  15
ATOM     11  C   UNL     1       4.543   3.458  17.204  0.00  0.00    +0.000 C 
ATOM     12  C   UNL     1       3.869   4.771  17.457  0.00  0.00    +0.000 A 
ATOM     13  C   UNL     1       4.569   5.980  17.396  0.00  0.00    +0.000 A 
ATOM     14  C   UNL     1       3.910   7.184  17.652  0.00  0.00    +0.000 A 
ATOM     15  C   UNL     1       2.540   7.204  17.972  0.00  0.00    +0.000 A 
ATOM     16  C   UNL     1       1.858   5.994  18.083  0.00  0.00    +0.000 A 
ATOM     17  C   UNL     1       2.516   4.802  17.798  0.00  0.00    +0.000 A 
ATOM     18  F   UNL     1       1.824   3.655  17.873  0.00  0.00    +0.000 F 
ENDBRANCH   1  15
BRANCH  10  19
ATOM     19  C   UNL     1      -1.092  11.344  21.941  0.00  0.00    +0.000 C 
BRANCH  19  20
ATOM     20  C   UNL     1      -1.606  12.189  23.125  0.00  0.00    +0.000 C 
ATOM     21  C   UNL     1      -3.137  12.259  23.192  0.00  0.00    +0.000 C 
ATOM     22  C   UNL     1      -3.577  13.215  24.296  0.00  0.00    +0.000 C 
ATOM     23  O   UNL     1      -3.012  14.511  24.100  0.00  0.00    +0.000 OA
ATOM     24  C   UNL     1      -1.586  14.489  24.147  0.00  0.00    +0.000 C 
ATOM     25  C   UNL     1      -1.025  13.610  23.038  0.00  0.00    +0.000 C 
ENDBRANCH  19  20
ENDBRANCH  10  19
TORSDOF 3
ENDMDL
MODEL 2
REMARK VINA RESULT:      -7.7      0.918      1.329
REMARK  Name = 
REMARK  4 active torsions:
REMARK  status: ('A' for Active; 'I' for Inactive)
REMARK    1  A    between atoms: C_1  and  C_2
REMARK    2  A    between atoms: C_5  and  C_6
REMARK    3  A    between atoms: N_15  and  C_16
REMARK    4  A    between atoms: C_16  and  C_17
REMARK                            x       y       z     vdW  Elec       q    Type
REMARK                         _______ _______ _______ _____ _____    ______ ____
ROOT
ATOM      1  C   UNL     1       1.928   8.562  18.320  0.00  0.00    +0.000 C 
ATOM      2  O   UNL     1       1.685   9.289  17.356  0.00  0.00    +0.000 OA
ATOM      3  N   UNL     1       1.588   8.929  19.610  0.00  0.00    +0.000 N 
ATOM      4  C   UNL     1       1.465   8.087  20.815  0.00  0.00    +0.000 C 
ATOM      5  C   UNL     1       0.699   8.946  21.854  0.00  0.00    +0.000 C 
ATOM      6  C   UNL     1       0.974  10.348  21.331  0.00  0.00    +0.000 C 
ATOM      7  C   UNL     1       0.822  10.127  19.833  0.00  0.00    +0.000 C 
ATOM      8  C   UNL     1       1.196  11.494  19.330  0.00  0.00    +0.000 C 
ATOM      9  C   UNL     1       0.434  12.378  20.339  0.00  0.00    +0.000 C 
ATOM     10  N   UNL     1       0.239  11.589  21.597  0.00  0.00    +0.000 NA
ENDROOT
BRANCH   1  15
ATOM     11  C   UNL     1       4.318   3.402  17.160  0.00  0.00    +0.000 C 
ATOM     12  C   UNL     1       3.698   4.727  17.481  0.00  0.00    +0.000 A 
ATOM     13  C   UNL     1       2.360   4.837  17.871  0.00  0.00    +0.000 A 
ATOM     14  C   UNL     1       1.812   6.091  18.148  0.00  0.00    +0.000 A 
ATOM     15  C   UNL     1       2.590   7.258  18.045  0.00  0.00    +0.000 A 
ATOM     16  C   UNL     1       3.908   7.150  17.606  0.00  0.00    +0.000 A 
ATOM     17  C   UNL     1       4.453   5.895  17.358  0.00  0.00    +0.000 A 
ATOM     18  F   UNL     1       5.737   5.818  16.977  0.00  0.00    +0.000 F 
ENDBRANCH   1  15
BRANCH  10  19
ATOM     19  C   UNL     1      -1.168  11.355  21.941  0.00  0.00    +0.000 C 
BRANCH  19  20
ATOM     20  C   UNL     1      -1.704  12.191  23.121  0.00  0.00    +0.000 C 
ATOM     21  C   UNL     1      -3.233  12.311  23.125  0.00  0.00    +0.000 C 
ATOM     22  C   UNL     1      -3.689  13.259  24.230  0.00  0.00    +0.000 C 
ATOM     23  O   UNL     1      -3.074  14.538  24.088  0.00  0.00    +0.000 OA
ATOM     24  C   UNL     1      -1.653  14.467  24.195  0.00  0.00    +0.000 C 
ATOM     25  C   UNL     1      -1.073  13.594  23.091  0.00  0.00    +0.000 C 
ENDBRANCH  19  20
ENDBRANCH  10  19
TORSDOF 3
ENDMDL
MODEL 3
REMARK VINA RESULT:      -7.7      0.296      1.019
REMARK  Name = 
REMARK  4 active torsions:
REMARK  status: ('A' for Active; 'I' for Inactive)
REMARK    1  A    between atoms: C_1  and  C_2
REMARK    2  A    between atoms: C_5  and  C_6
REMARK    3  A    between atoms: N_15  and  C_16
REMARK    4  A    between atoms: C_16  and  C_17
REMARK                            x       y       z     vdW  Elec       q    Type
REMARK                         _______ _______ _______ _____ _____    ______ ____
ROOT
ATOM      1  C   UNL     1       1.848   8.635  18.328  0.00  0.00    +0.000 C 
ATOM      2  O   UNL     1       1.585   9.394  17.394  0.00  0.00    +0.000 OA
ATOM      3  N   UNL     1       1.546   8.962  19.637  0.00  0.00    +0.000 N 
ATOM      4  C   UNL     1       1.449   8.083  20.818  0.00  0.00    +0.000 C 
ATOM      5  C   UNL     1       0.718   8.913  21.904  0.00  0.00    +0.000 C 
ATOM      6  C   UNL     1       0.990  10.329  21.420  0.00  0.00    +0.000 C 
ATOM      7  C   UNL     1       0.795  10.157  19.919  0.00  0.00    +0.000 C 
ATOM      8  C   UNL     1       1.167  11.537  19.451  0.00  0.00    +0.000 C 
ATOM      9  C   UNL     1       0.440  12.394  20.509  0.00  0.00    +0.000 C 
ATOM     10  N   UNL     1       0.272  11.566  21.745  0.00  0.00    +0.000 NA
ENDROOT
BRANCH   1  15
ATOM     11  C   UNL     1       4.555   3.652  17.095  0.00  0.00    +0.000 C 
ATOM     12  C   UNL     1       3.859   4.944  17.391  0.00  0.00    +0.000 A 
ATOM     13  C   UNL     1       4.506   6.176  17.254  0.00  0.00    +0.000 A 
ATOM     14  C   UNL     1       3.829   7.359  17.553  0.00  0.00    +0.000 A 
ATOM     15  C   UNL     1       2.492   7.336  17.992  0.00  0.00    +0.000 A 
ATOM     16  C   UNL     1       1.868   6.105  18.178  0.00  0.00    +0.000 A 
ATOM     17  C   UNL     1       2.540   4.932  17.851  0.00  0.00    +0.000 A 
ATOM     18  F   UNL     1       1.900   3.763  18.000  0.00  0.00    +0.000 F 
ENDBRANCH   1  15
BRANCH  10  19
ATOM     19  C   UNL     1      -1.127  11.330  22.120  0.00  0.00    +0.000 C 
BRANCH  19  20
ATOM     20  C   UNL     1      -1.912  12.586  22.551  0.00  0.00    +0.000 C 
ATOM     21  C   UNL     1      -1.064  13.578  23.355  0.00  0.00    +0.000 C 
ATOM     22  C   UNL     1      -1.930  14.726  23.865  0.00  0.00    +0.000 C 
ATOM     23  O   UNL     1      -3.019  14.233  24.643  0.00  0.00    +0.000 OA
ATOM     24  C   UNL     1      -3.888  13.396  23.882  0.00  0.00    +0.000 C 
ATOM     25  C   UNL     1      -3.144  12.170  23.372  0.00  0.00    +0.000 C 
ENDBRANCH  19  20
ENDBRANCH  10  19
TORSDOF 3
ENDMDL
MODEL 4
REMARK VINA RESULT:      -7.6      0.961      1.673
REMARK  Name = 
REMARK  4 active torsions:
REMARK  status: ('A' for Active; 'I' for Inactive)
REMARK    1  A    between atoms: C_1  and  C_2
REMARK    2  A    between atoms: C_5  and  C_6
REMARK    3  A    between atoms: N_15  and  C_16
REMARK    4  A    between atoms: C_16  and  C_17
REMARK                            x       y       z     vdW  Elec       q    Type
REMARK                         _______ _______ _______ _____ _____    ______ ____
ROOT
ATOM      1  C   UNL     1       1.887   8.613  18.358  0.00  0.00    +0.000 C 
ATOM      2  O   UNL     1       1.618   9.336  17.398  0.00  0.00    +0.000 OA
ATOM      3  N   UNL     1       1.567   8.976  19.654  0.00  0.00    +0.000 N 
ATOM      4  C   UNL     1       1.476   8.134  20.861  0.00  0.00    +0.000 C 
ATOM      5  C   UNL     1       0.720   8.984  21.914  0.00  0.00    +0.000 C 
ATOM      6  C   UNL     1       0.969  10.389  21.386  0.00  0.00    +0.000 C 
ATOM      7  C   UNL     1       0.791  10.165  19.891  0.00  0.00    +0.000 C 
ATOM      8  C   UNL     1       1.140  11.536  19.381  0.00  0.00    +0.000 C 
ATOM      9  C   UNL     1       0.388  12.413  20.405  0.00  0.00    +0.000 C 
ATOM     10  N   UNL     1       0.226  11.621  21.666  0.00  0.00    +0.000 NA
ENDROOT
BRANCH   1  15
ATOM     11  C   UNL     1       4.312   3.480  17.153  0.00  0.00    +0.000 C 
ATOM     12  C   UNL     1       3.683   4.798  17.486  0.00  0.00    +0.000 A 
ATOM     13  C   UNL     1       2.353   4.892  17.905  0.00  0.00    +0.000 A 
ATOM     14  C   UNL     1       1.796   6.140  18.192  0.00  0.00    +0.000 A 
ATOM     15  C   UNL     1       2.558   7.317  18.070  0.00  0.00    +0.000 A 
ATOM     16  C   UNL     1       3.867   7.224  17.603  0.00  0.00    +0.000 A 
ATOM     17  C   UNL     1       4.422   5.975  17.345  0.00  0.00    +0.000 A 
ATOM     18  F   UNL     1       5.698   5.912  16.936  0.00  0.00    +0.000 F 
ENDBRANCH   1  15
BRANCH  10  19
ATOM     19  C   UNL     1      -1.172  11.371  22.037  0.00  0.00    +0.000 C 
BRANCH  19  20
ATOM     20  C   UNL     1      -1.950  12.605  22.539  0.00  0.00    +0.000 C 
ATOM     21  C   UNL     1      -1.069  13.598  23.306  0.00  0.00    +0.000 C 
ATOM     22  C   UNL     1      -1.920  14.722  23.890  0.00  0.00    +0.000 C 
ATOM     23  O   UNL     1      -2.949  14.196  24.727  0.00  0.00    +0.000 OA
ATOM     24  C   UNL     1      -3.850  13.356  24.008  0.00  0.00    +0.000 C 
ATOM     25  C   UNL     1      -3.119  12.153  23.430  0.00  0.00    +0.000 C 
ENDBRANCH  19  20
ENDBRANCH  10  19
TORSDOF 3
ENDMDL
MODEL 5
REMARK VINA RESULT:      -7.6      3.086      4.992
REMARK  Name = 
REMARK  4 active torsions:
REMARK  status: ('A' for Active; 'I' for Inactive)
REMARK    1  A    between atoms: C_1  and  C_2
REMARK    2  A    between atoms: C_5  and  C_6
REMARK    3  A    between atoms: N_15  and  C_16
REMARK    4  A    between atoms: C_16  and  C_17
REMARK                            x       y       z     vdW  Elec       q    Type
REMARK                         _______ _______ _______ _____ _____    ______ ____
ROOT
ATOM      1  C   UNL     1       4.886   4.851  17.756  0.00  0.00    +0.000 C 
ATOM      2  O   UNL     1       5.287   4.056  18.607  0.00  0.00    +0.000 OA
ATOM      3  N   UNL     1       3.844   5.725  18.013  0.00  0.00    +0.000 N 
ATOM      4  C   UNL     1       3.462   6.954  17.292  0.00  0.00    +0.000 C 
ATOM      5  C   UNL     1       2.489   7.710  18.233  0.00  0.00    +0.000 C 
ATOM      6  C   UNL     1       1.995   6.573  19.115  0.00  0.00    +0.000 C 
ATOM      7  C   UNL     1       3.290   5.805  19.339  0.00  0.00    +0.000 C 
ATOM      8  C   UNL     1       2.765   4.635  20.124  0.00  0.00    +0.000 C 
ATOM      9  C   UNL     1       1.798   5.358  21.085  0.00  0.00    +0.000 C 
ATOM     10  N   UNL     1       1.374   6.642  20.441  0.00  0.00    +0.000 NA
ENDROOT
BRANCH   1  15
ATOM     11  C   UNL     1       7.774   4.816  12.723  0.00  0.00    +0.000 C 
ATOM     12  C   UNL     1       7.028   4.848  14.022  0.00  0.00    +0.000 A 
ATOM     13  C   UNL     1       7.588   5.404  15.176  0.00  0.00    +0.000 A 
ATOM     14  C   UNL     1       6.868   5.403  16.373  0.00  0.00    +0.000 A 
ATOM     15  C   UNL     1       5.576   4.849  16.438  0.00  0.00    +0.000 A 
ATOM     16  C   UNL     1       5.044   4.250  15.299  0.00  0.00    +0.000 A 
ATOM     17  C   UNL     1       5.756   4.281  14.105  0.00  0.00    +0.000 A 
ATOM     18  F   UNL     1       5.201   3.733  13.014  0.00  0.00    +0.000 F 
ENDBRANCH   1  15
BRANCH  10  19
ATOM     19  C   UNL     1       1.762   7.842  21.191  0.00  0.00    +0.000 C 
BRANCH  19  20
ATOM     20  C   UNL     1       0.650   8.896  21.367  0.00  0.00    +0.000 C 
ATOM     21  C   UNL     1       0.913  10.183  20.576  0.00  0.00    +0.000 C 
ATOM     22  C   UNL     1      -0.147  11.231  20.899  0.00  0.00    +0.000 C 
ATOM     23  O   UNL     1      -0.193  11.491  22.301  0.00  0.00    +0.000 OA
ATOM     24  C   UNL     1      -0.549  10.331  23.051  0.00  0.00    +0.000 C 
ATOM     25  C   UNL     1       0.483   9.229  22.859  0.00  0.00    +0.000 C 
ENDBRANCH  19  20
ENDBRANCH  10  19
TORSDOF 3
ENDMDL
MODEL 6
REMARK VINA RESULT:      -7.5      0.932      1.139
REMARK  Name = 
REMARK  4 active torsions:
REMARK  status: ('A' for Active; 'I' for Inactive)
REMARK    1  A    between atoms: C_1  and  C_2
REMARK    2  A    between atoms: C_5  and  C_6
REMARK    3  A    between atoms: N_15  and  C_16
REMARK    4  A    between atoms: C_16  and  C_17
REMARK                            x       y       z     vdW  Elec       q    Type
REMARK                         _______ _______ _______ _____ _____    ______ ____
ROOT
ATOM      1  C   UNL     1       1.938   8.607  18.330  0.00  0.00    +0.000 C 
ATOM      2  O   UNL     1       1.723   9.394  17.408  0.00  0.00    +0.000 OA
ATOM      3  N   UNL     1       1.583   8.904  19.634  0.00  0.00    +0.000 N 
ATOM      4  C   UNL     1       1.426   7.994  20.786  0.00  0.00    +0.000 C 
ATOM      5  C   UNL     1       0.659   8.804  21.862  0.00  0.00    +0.000 C 
ATOM      6  C   UNL     1       0.966  10.229  21.428  0.00  0.00    +0.000 C 
ATOM      7  C   UNL     1       0.834  10.099  19.917  0.00  0.00    +0.000 C 
ATOM      8  C   UNL     1       1.240  11.487  19.501  0.00  0.00    +0.000 C 
ATOM      9  C   UNL     1       0.477  12.324  20.550  0.00  0.00    +0.000 C 
ATOM     10  N   UNL     1       0.249  11.465  21.756  0.00  0.00    +0.000 NA
ENDROOT
BRANCH   1  15
ATOM     11  C   UNL     1       4.643   3.630  17.072  0.00  0.00    +0.000 C 
ATOM     12  C   UNL     1       3.947   4.921  17.375  0.00  0.00    +0.000 A 
ATOM     13  C   UNL     1       4.599   6.152  17.258  0.00  0.00    +0.000 A 
ATOM     14  C   UNL     1       3.923   7.335  17.563  0.00  0.00    +0.000 A 
ATOM     15  C   UNL     1       2.582   7.311  17.988  0.00  0.00    +0.000 A 
ATOM     16  C   UNL     1       1.952   6.080  18.153  0.00  0.00    +0.000 A 
ATOM     17  C   UNL     1       2.624   4.908  17.820  0.00  0.00    +0.000 A 
ATOM     18  F   UNL     1       1.979   3.740  17.950  0.00  0.00    +0.000 F 
ENDBRANCH   1  15
BRANCH  10  19
ATOM     19  C   UNL     1      -1.167  11.236  22.065  0.00  0.00    +0.000 C 
BRANCH  19  20
ATOM     20  C   UNL     1      -2.024  12.511  22.207  0.00  0.00    +0.000 C 
ATOM     21  C   UNL     1      -2.890  12.513  23.473  0.00  0.00    +0.000 C 
ATOM     22  C   UNL     1      -3.809  13.731  23.485  0.00  0.00    +0.000 C 
ATOM     23  O   UNL     1      -4.618  13.768  22.310  0.00  0.00    +0.000 OA
ATOM     24  C   UNL     1      -3.835  13.881  21.122  0.00  0.00    +0.000 C 
ATOM     25  C   UNL     1      -2.917  12.677  20.966  0.00  0.00    +0.000 C 
ENDBRANCH  19  20
ENDBRANCH  10  19
TORSDOF 3
ENDMDL
MODEL 7
REMARK VINA RESULT:      -7.4      1.312      1.753
REMARK  Name = 
REMARK  4 active torsions:
REMARK  status: ('A' for Active; 'I' for Inactive)
REMARK    1  A    between atoms: C_1  and  C_2
REMARK    2  A    between atoms: C_5  and  C_6
REMARK    3  A    between atoms: N_15  and  C_16
REMARK    4  A    between atoms: C_16  and  C_17
REMARK                            x       y       z     vdW  Elec       q    Type
REMARK                         _______ _______ _______ _____ _____    ______ ____
ROOT
ATOM      1  C   UNL     1       1.996   8.635  18.355  0.00  0.00    +0.000 C 
ATOM      2  O   UNL     1       1.774   9.405  17.420  0.00  0.00    +0.000 OA
ATOM      3  N   UNL     1       1.614   8.936  19.650  0.00  0.00    +0.000 N 
ATOM      4  C   UNL     1       1.465   8.036  20.810  0.00  0.00    +0.000 C 
ATOM      5  C   UNL     1       0.660   8.836  21.864  0.00  0.00    +0.000 C 
ATOM      6  C   UNL     1       0.934  10.265  21.418  0.00  0.00    +0.000 C 
ATOM      7  C   UNL     1       0.829  10.114  19.907  0.00  0.00    +0.000 C 
ATOM      8  C   UNL     1       1.202  11.507  19.481  0.00  0.00    +0.000 C 
ATOM      9  C   UNL     1       0.402  12.335  20.509  0.00  0.00    +0.000 C 
ATOM     10  N   UNL     1       0.178  11.484  21.720  0.00  0.00    +0.000 NA
ENDROOT
BRANCH   1  15
ATOM     11  C   UNL     1       4.470   3.552  17.043  0.00  0.00    +0.000 C 
ATOM     12  C   UNL     1       3.830   4.857  17.404  0.00  0.00    +0.000 A 
ATOM     13  C   UNL     1       2.517   4.924  17.881  0.00  0.00    +0.000 A 
ATOM     14  C   UNL     1       1.949   6.161  18.193  0.00  0.00    +0.000 A 
ATOM     15  C   UNL     1       2.681   7.353  18.037  0.00  0.00    +0.000 A 
ATOM     16  C   UNL     1       3.969   7.285  17.513  0.00  0.00    +0.000 A 
ATOM     17  C   UNL     1       4.538   6.048  17.231  0.00  0.00    +0.000 A 
ATOM     18  F   UNL     1       5.795   6.011  16.766  0.00  0.00    +0.000 F 
ENDBRANCH   1  15
BRANCH  10  19
ATOM     19  C   UNL     1      -1.236  11.220  22.011  0.00  0.00    +0.000 C 
BRANCH  19  20
ATOM     20  C   UNL     1      -2.102  12.472  22.256  0.00  0.00    +0.000 C 
ATOM     21  C   UNL     1      -2.963  12.368  23.521  0.00  0.00    +0.000 C 
ATOM     22  C   UNL     1      -3.893  13.573  23.631  0.00  0.00    +0.000 C 
ATOM     23  O   UNL     1      -4.705  13.696  22.466  0.00  0.00    +0.000 OA
ATOM     24  C   UNL     1      -3.928  13.909  21.288  0.00  0.00    +0.000 C 
ATOM     25  C   UNL     1      -3.001  12.728  21.035  0.00  0.00    +0.000 C 
ENDBRANCH  19  20
ENDBRANCH  10  19
TORSDOF 3
ENDMDL
MODEL 8
REMARK VINA RESULT:      -7.4      2.158      3.226
REMARK  Name = 
REMARK  4 active torsions:
REMARK  status: ('A' for Active; 'I' for Inactive)
REMARK    1  A    between atoms: C_1  and  C_2
REMARK    2  A    between atoms: C_5  and  C_6
REMARK    3  A    between atoms: N_15  and  C_16
REMARK    4  A    between atoms: C_16  and  C_17
REMARK                            x       y       z     vdW  Elec       q    Type
REMARK                         _______ _______ _______ _____ _____    ______ ____
ROOT
ATOM      1  C   UNL     1       3.274   6.314  19.132  0.00  0.00    +0.000 C 
ATOM      2  O   UNL     1       3.335   5.787  20.244  0.00  0.00    +0.000 OA
ATOM      3  N   UNL     1       2.496   7.434  18.902  0.00  0.00    +0.000 N 
ATOM      4  C   UNL     1       2.559   8.398  17.786  0.00  0.00    +0.000 C 
ATOM      5  C   UNL     1       1.731   9.626  18.242  0.00  0.00    +0.000 C 
ATOM      6  C   UNL     1       0.839   9.000  19.303  0.00  0.00    +0.000 C 
ATOM      7  C   UNL     1       1.834   8.083  20.002  0.00  0.00    +0.000 C 
ATOM      8  C   UNL     1       0.914   7.399  20.977  0.00  0.00    +0.000 C 
ATOM      9  C   UNL     1       0.080   8.604  21.462  0.00  0.00    +0.000 C 
ATOM     10  N   UNL     1       0.110   9.653  20.394  0.00  0.00    +0.000 NA
ENDROOT
BRANCH   1  15
ATOM     11  C   UNL     1       6.257   3.907  14.775  0.00  0.00    +0.000 C 
ATOM     12  C   UNL     1       5.489   4.509  15.912  0.00  0.00    +0.000 A 
ATOM     13  C   UNL     1       4.248   4.002  16.309  0.00  0.00    +0.000 A 
ATOM     14  C   UNL     1       3.554   4.599  17.364  0.00  0.00    +0.000 A 
ATOM     15  C   UNL     1       4.088   5.709  18.043  0.00  0.00    +0.000 A 
ATOM     16  C   UNL     1       5.299   6.243  17.611  0.00  0.00    +0.000 A 
ATOM     17  C   UNL     1       5.997   5.626  16.577  0.00  0.00    +0.000 A 
ATOM     18  F   UNL     1       7.181   6.136  16.209  0.00  0.00    +0.000 F 
ENDBRANCH   1  15
BRANCH  10  19
ATOM     19  C   UNL     1       0.726  10.916  20.815  0.00  0.00    +0.000 C 
BRANCH  19  20
ATOM     20  C   UNL     1      -0.263  12.050  21.153  0.00  0.00    +0.000 C 
ATOM     21  C   UNL     1      -0.804  11.966  22.585  0.00  0.00    +0.000 C 
ATOM     22  C   UNL     1      -1.875  13.030  22.811  0.00  0.00    +0.000 C 
ATOM     23  O   UNL     1      -2.927  12.902  21.856  0.00  0.00    +0.000 OA
ATOM     24  C   UNL     1      -2.465  13.090  20.520  0.00  0.00    +0.000 C 
ATOM     25  C   UNL     1      -1.431  12.034  20.154  0.00  0.00    +0.000 C 
ENDBRANCH  19  20
ENDBRANCH  10  19
TORSDOF 3
ENDMDL
MODEL 9
REMARK VINA RESULT:      -7.4      1.593      2.037
REMARK  Name = 
REMARK  4 active torsions:
REMARK  status: ('A' for Active; 'I' for Inactive)
REMARK    1  A    between atoms: C_1  and  C_2
REMARK    2  A    between atoms: C_5  and  C_6
REMARK    3  A    between atoms: N_15  and  C_16
REMARK    4  A    between atoms: C_16  and  C_17
REMARK                            x       y       z     vdW  Elec       q    Type
REMARK                         _______ _______ _______ _____ _____    ______ ____
ROOT
ATOM      1  C   UNL     1       2.281   8.004  18.351  0.00  0.00    +0.000 C 
ATOM      2  O   UNL     1       2.462   8.532  17.253  0.00  0.00    +0.000 OA
ATOM      3  N   UNL     1       1.612   8.659  19.369  0.00  0.00    +0.000 N 
ATOM      4  C   UNL     1       0.996   8.100  20.588  0.00  0.00    +0.000 C 
ATOM      5  C   UNL     1       0.079   9.217  21.148  0.00  0.00    +0.000 C 
ATOM      6  C   UNL     1       0.706  10.452  20.518  0.00  0.00    +0.000 C 
ATOM      7  C   UNL     1       1.000   9.936  19.116  0.00  0.00    +0.000 C 
ATOM      8  C   UNL     1       1.709  11.133  18.544  0.00  0.00    +0.000 C 
ATOM      9  C   UNL     1       0.808  12.268  19.074  0.00  0.00    +0.000 C 
ATOM     10  N   UNL     1       0.116  11.777  20.308  0.00  0.00    +0.000 NA
ENDROOT
BRANCH   1  15
ATOM     11  C   UNL     1       4.187   2.550  18.896  0.00  0.00    +0.000 C 
ATOM     12  C   UNL     1       3.678   3.953  18.770  0.00  0.00    +0.000 A 
ATOM     13  C   UNL     1       2.411   4.231  18.249  0.00  0.00    +0.000 A 
ATOM     14  C   UNL     1       1.976   5.553  18.133  0.00  0.00    +0.000 A 
ATOM     15  C   UNL     1       2.797   6.622  18.538  0.00  0.00    +0.000 A 
ATOM     16  C   UNL     1       4.079   6.343  19.008  0.00  0.00    +0.000 A 
ATOM     17  C   UNL     1       4.493   5.023  19.146  0.00  0.00    +0.000 A 
ATOM     18  F   UNL     1       5.717   4.783  19.640  0.00  0.00    +0.000 F 
ENDBRANCH   1  15
BRANCH  10  19
ATOM     19  C   UNL     1      -1.347  11.738  20.195  0.00  0.00    +0.000 C 
BRANCH  19  20
ATOM     20  C   UNL     1      -2.113  12.476  21.311  0.00  0.00    +0.000 C 
ATOM     21  C   UNL     1      -2.035  11.761  22.665  0.00  0.00    +0.000 C 
ATOM     22  C   UNL     1      -2.922  12.464  23.689  0.00  0.00    +0.000 C 
ATOM     23  O   UNL     1      -4.269  12.541  23.226  0.00  0.00    +0.000 OA
ATOM     24  C   UNL     1      -4.381  13.301  22.024  0.00  0.00    +0.000 C 
ATOM     25  C   UNL     1      -3.585  12.652  20.901  0.00  0.00    +0.000 C 
ENDBRANCH  19  20
ENDBRANCH  10  19
TORSDOF 3
ENDMDL
