MODEL 1
REMARK VINA RESULT:      -8.0      0.000      0.000
REMARK  Name = 
REMARK  8 active torsions:
REMARK  status: ('A' for Active; 'I' for Inactive)
REMARK    1  A    between atoms: C_1  and  O_2
REMARK    2  A    between atoms: O_2  and  C_3
REMARK    3  A    between atoms: C_3  and  C_4
REMARK    4  A    between atoms: C_4  and  O_5
REMARK    5  A    between atoms: O_5  and  C_6
REMARK    6  A    between atoms: C_8  and  S_9
REMARK    7  A    between atoms: S_9  and  C_12
REMARK    8  A    between atoms: N_22  and  C_23
REMARK                            x       y       z     vdW  Elec       q    Type
REMARK                         _______ _______ _______ _____ _____    ______ ____
ROOT
ATOM      1  C   UNL     1       3.979   4.134  18.714  0.00  0.00    +0.000 A 
ATOM      2  C   UNL     1       5.141   4.093  17.912  0.00  0.00    +0.000 A 
ATOM      3  C   UNL     1       5.680   5.258  17.375  0.00  0.00    +0.000 A 
ATOM      4  C   UNL     1       5.070   6.489  17.597  0.00  0.00    +0.000 A 
ATOM      5  C   UNL     1       3.945   6.554  18.427  0.00  0.00    +0.000 A 
ATOM      6  C   UNL     1       3.013   7.590  18.663  0.00  0.00    +0.000 A 
ATOM      7  C   UNL     1       2.239   7.210  19.735  0.00  0.00    +0.000 A 
ATOM      8  N   UNL     1       2.432   5.861  19.929  0.00  0.00    +0.000 N 
ATOM      9  C   UNL     1       1.529   5.088  20.754  0.00  0.00    +0.000 C 
ATOM     10  C   UNL     1       3.444   5.404  19.074  0.00  0.00    +0.000 A 
ATOM     11  C   UNL     1       1.121   8.079  20.212  0.00  0.00    +0.000 C 
ATOM     12  C   UNL     1       0.630   8.922  18.986  0.00  0.00    +0.000 C 
ATOM     13  C   UNL     1       1.147  10.344  18.969  0.00  0.00    +0.000 C 
ATOM     14  C   UNL     1       2.236  10.281  17.907  0.00  0.00    +0.000 C 
ATOM     15  C   UNL     1       2.686   8.800  17.742  0.00  0.00    +0.000 C 
ATOM     16  N   UNL     1       1.223   8.474  17.696  0.00  0.00    +0.000 NA
ATOM     17  H   UNL     1       1.087   7.469  17.578  0.00  0.00    +0.000 HD
ENDROOT
BRANCH   3  18
ATOM     18  S   UNL     1       7.155   5.232  16.392  0.00  0.00    +0.000 S 
ATOM     19  O   UNL     1       7.616   6.602  16.248  0.00  0.00    +0.000 OA
ATOM     20  O   UNL     1       8.039   4.213  16.941  0.00  0.00    +0.000 OA
BRANCH  18  21
ATOM     21  C   UNL     1       6.669   4.663  14.776  0.00  0.00    +0.000 A 
ATOM     22  C   UNL     1       5.431   4.042  14.601  0.00  0.00    +0.000 A 
ATOM     23  C   UNL     1       5.068   3.567  13.341  0.00  0.00    +0.000 A 
ATOM     24  C   UNL     1       5.928   3.739  12.256  0.00  0.00    +0.000 A 
ATOM     25  C   UNL     1       7.147   4.401  12.427  0.00  0.00    +0.000 A 
ATOM     26  C   UNL     1       7.519   4.873  13.685  0.00  0.00    +0.000 A 
ENDBRANCH  18  21
ENDBRANCH   3  18
BRANCH   1  27
ATOM     27  O   UNL     1       3.505   2.876  19.064  0.00  0.00    +0.000 OA
BRANCH  27  28
ATOM     28  C   UNL     1       3.833   2.447  20.386  0.00  0.00    +0.000 C 
BRANCH  28  29
ATOM     29  C   UNL     1       4.902   1.366  20.460  0.00  0.00    +0.000 C 
BRANCH  29  31
ATOM     30  C   UNL     1       6.103   0.095  22.013  0.00  0.00    +0.000 C 
ATOM     31  O   UNL     1       5.585   1.384  21.710  0.00  0.00    +0.000 OA
ENDBRANCH  29  31
ENDBRANCH  28  29
ENDBRANCH  27  28
ENDBRANCH   1  27
TORSDOF 6
ENDMDL
MODEL 2
REMARK VINA RESULT:      -7.9      1.298      1.918
REMARK  Name = 
REMARK  8 active torsions:
REMARK  status: ('A' for Active; 'I' for Inactive)
REMARK    1  A    between atoms: C_1  and  O_2
REMARK    2  A    between atoms: O_2  and  C_3
REMARK    3  A    between atoms: C_3  and  C_4
REMARK    4  A    between atoms: C_4  and  O_5
REMARK    5  A    between atoms: O_5  and  C_6
REMARK    6  A    between atoms: C_8  and  S_9
REMARK    7  A    between atoms: S_9  and  C_12
REMARK    8  A    between atoms: N_22  and  C_23
REMARK                            x       y       z     vdW  Elec       q    Type
REMARK                         _______ _______ _______ _____ _____    ______ ____
ROOT
ATOM      1  C   UNL     1       4.273   4.092  18.906  0.00  0.00    +0.000 A 
ATOM      2  C   UNL     1       5.400   4.068  18.055  0.00  0.00    +0.000 A 
ATOM      3  C   UNL     1       5.850   5.229  17.432  0.00  0.00    +0.000 A 
ATOM      4  C   UNL     1       5.181   6.435  17.614  0.00  0.00    +0.000 A 
ATOM      5  C   UNL     1       4.090   6.486  18.490  0.00  0.00    +0.000 A 
ATOM      6  C   UNL     1       3.112   7.482  18.711  0.00  0.00    +0.000 A 
ATOM      7  C   UNL     1       2.407   7.122  19.837  0.00  0.00    +0.000 A 
ATOM      8  N   UNL     1       2.684   5.799  20.094  0.00  0.00    +0.000 N 
ATOM      9  C   UNL     1       1.862   5.025  21.000  0.00  0.00    +0.000 C 
ATOM     10  C   UNL     1       3.683   5.349  19.220  0.00  0.00    +0.000 A 
ATOM     11  C   UNL     1       1.262   7.954  20.317  0.00  0.00    +0.000 C 
ATOM     12  C   UNL     1       0.673   8.699  19.070  0.00  0.00    +0.000 C 
ATOM     13  C   UNL     1       1.108  10.143  18.952  0.00  0.00    +0.000 C 
ATOM     14  C   UNL     1       2.152  10.079  17.847  0.00  0.00    +0.000 C 
ATOM     15  C   UNL     1       2.678   8.618  17.742  0.00  0.00    +0.000 C 
ATOM     16  N   UNL     1       1.235   8.212  17.780  0.00  0.00    +0.000 NA
ATOM     17  H   UNL     1       1.151   7.195  17.723  0.00  0.00    +0.000 HD
ENDROOT
BRANCH   3  18
ATOM     18  S   UNL     1       7.281   5.227  16.385  0.00  0.00    +0.000 S 
ATOM     19  O   UNL     1       7.721   6.603  16.235  0.00  0.00    +0.000 OA
ATOM     20  O   UNL     1       8.198   4.213  16.886  0.00  0.00    +0.000 OA
BRANCH  18  21
ATOM     21  C   UNL     1       6.731   4.667  14.787  0.00  0.00    +0.000 A 
ATOM     22  C   UNL     1       5.472   4.078  14.652  0.00  0.00    +0.000 A 
ATOM     23  C   UNL     1       5.059   3.609  13.404  0.00  0.00    +0.000 A 
ATOM     24  C   UNL     1       5.890   3.757  12.294  0.00  0.00    +0.000 A 
ATOM     25  C   UNL     1       7.129   4.387  12.425  0.00  0.00    +0.000 A 
ATOM     26  C   UNL     1       7.552   4.853  13.670  0.00  0.00    +0.000 A 
ENDBRANCH  18  21
ENDBRANCH   3  18
BRANCH   1  27
ATOM     27  O   UNL     1       3.887   2.832  19.344  0.00  0.00    +0.000 OA
BRANCH  27  28
ATOM     28  C   UNL     1       3.041   2.108  18.449  0.00  0.00    +0.000 C 
BRANCH  28  29
ATOM     29  C   UNL     1       2.338   2.961  17.403  0.00  0.00    +0.000 C 
BRANCH  29  31
ATOM     30  C   UNL     1       0.565   2.430  18.833  0.00  0.00    +0.000 C 
ATOM     31  O   UNL     1       1.014   3.301  17.803  0.00  0.00    +0.000 OA
ENDBRANCH  29  31
ENDBRANCH  28  29
ENDBRANCH  27  28
ENDBRANCH   1  27
TORSDOF 6
ENDMDL
MODEL 3
REMARK VINA RESULT:      -7.3      3.572      7.590
REMARK  Name = 
REMARK  8 active torsions:
REMARK  status: ('A' for Active; 'I' for Inactive)
REMARK    1  A    between atoms: C_1  and  O_2
REMARK    2  A    between atoms: O_2  and  C_3
REMARK    3  A    between atoms: C_3  and  C_4
REMARK    4  A    between atoms: C_4  and  O_5
REMARK    5  A    between atoms: O_5  and  C_6
REMARK    6  A    between atoms: C_8  and  S_9
REMARK    7  A    between atoms: S_9  and  C_12
REMARK    8  A    between atoms: N_22  and  C_23
REMARK                            x       y       z     vdW  Elec       q    Type
REMARK                         _______ _______ _______ _____ _____    ______ ____
ROOT
ATOM      1  C   UNL     1       4.768   7.222  17.398  0.00  0.00    +0.000 A 
ATOM      2  C   UNL     1       3.904   8.336  17.474  0.00  0.00    +0.000 A 
ATOM      3  C   UNL     1       2.620   8.211  17.996  0.00  0.00    +0.000 A 
ATOM      4  C   UNL     1       2.150   6.976  18.431  0.00  0.00    +0.000 A 
ATOM      5  C   UNL     1       3.009   5.870  18.406  0.00  0.00    +0.000 A 
ATOM      6  C   UNL     1       2.763   4.490  18.577  0.00  0.00    +0.000 A 
ATOM      7  C   UNL     1       3.985   3.865  18.682  0.00  0.00    +0.000 A 
ATOM      8  N   UNL     1       4.942   4.749  18.237  0.00  0.00    +0.000 N 
ATOM      9  C   UNL     1       6.278   4.301  17.907  0.00  0.00    +0.000 C 
ATOM     10  C   UNL     1       4.351   5.995  17.986  0.00  0.00    +0.000 A 
ATOM     11  C   UNL     1       4.072   2.380  18.829  0.00  0.00    +0.000 C 
ATOM     12  C   UNL     1       2.790   1.771  18.165  0.00  0.00    +0.000 C 
ATOM     13  C   UNL     1       1.715   1.370  19.151  0.00  0.00    +0.000 C 
ATOM     14  C   UNL     1       0.701   2.494  19.003  0.00  0.00    +0.000 C 
ATOM     15  C   UNL     1       1.417   3.734  18.392  0.00  0.00    +0.000 C 
ATOM     16  N   UNL     1       1.998   2.773  17.398  0.00  0.00    +0.000 NA
ATOM     17  H   UNL     1       2.602   3.266  16.738  0.00  0.00    +0.000 HD
ENDROOT
BRANCH   3  18
ATOM     18  S   UNL     1       1.530   9.603  18.128  0.00  0.00    +0.000 S 
ATOM     19  O   UNL     1       2.315  10.803  17.892  0.00  0.00    +0.000 OA
ATOM     20  O   UNL     1       0.352   9.326  17.320  0.00  0.00    +0.000 OA
BRANCH  18  21
ATOM     21  C   UNL     1       0.984   9.652  19.822  0.00  0.00    +0.000 A 
ATOM     22  C   UNL     1       1.485   8.728  20.741  0.00  0.00    +0.000 A 
ATOM     23  C   UNL     1       1.029   8.747  22.059  0.00  0.00    +0.000 A 
ATOM     24  C   UNL     1       0.097   9.704  22.461  0.00  0.00    +0.000 A 
ATOM     25  C   UNL     1      -0.369  10.655  21.549  0.00  0.00    +0.000 A 
ATOM     26  C   UNL     1       0.079  10.638  20.228  0.00  0.00    +0.000 A 
ENDBRANCH  18  21
ENDBRANCH   3  18
BRANCH   1  27
ATOM     27  O   UNL     1       5.961   7.493  16.740  0.00  0.00    +0.000 OA
BRANCH  27  28
ATOM     28  C   UNL     1       7.128   7.477  17.562  0.00  0.00    +0.000 C 
BRANCH  28  29
ATOM     29  C   UNL     1       7.880   8.799  17.630  0.00  0.00    +0.000 C 
BRANCH  29  31
ATOM     30  C   UNL     1       9.140  10.203  19.011  0.00  0.00    +0.000 C 
ATOM     31  O   UNL     1       8.734   8.863  18.768  0.00  0.00    +0.000 OA
ENDBRANCH  29  31
ENDBRANCH  28  29
ENDBRANCH  27  28
ENDBRANCH   1  27
TORSDOF 6
ENDMDL
MODEL 4
REMARK VINA RESULT:      -7.2      0.924      1.136
REMARK  Name = 
REMARK  8 active torsions:
REMARK  status: ('A' for Active; 'I' for Inactive)
REMARK    1  A    between atoms: C_1  and  O_2
REMARK    2  A    between atoms: O_2  and  C_3
REMARK    3  A    between atoms: C_3  and  C_4
REMARK    4  A    between atoms: C_4  and  O_5
REMARK    5  A    between atoms: O_5  and  C_6
REMARK    6  A    between atoms: C_8  and  S_9
REMARK    7  A    between atoms: S_9  and  C_12
REMARK    8  A    between atoms: N_22  and  C_23
REMARK                            x       y       z     vdW  Elec       q    Type
REMARK                         _______ _______ _______ _____ _____    ______ ____
ROOT
ATOM      1  C   UNL     1       3.650   4.376  18.397  0.00  0.00    +0.000 A 
ATOM      2  C   UNL     1       4.860   4.282  17.676  0.00  0.00    +0.000 A 
ATOM      3  C   UNL     1       5.529   5.426  17.250  0.00  0.00    +0.000 A 
ATOM      4  C   UNL     1       5.005   6.690  17.504  0.00  0.00    +0.000 A 
ATOM      5  C   UNL     1       3.830   6.803  18.258  0.00  0.00    +0.000 A 
ATOM      6  C   UNL     1       2.969   7.898  18.492  0.00  0.00    +0.000 A 
ATOM      7  C   UNL     1       2.091   7.526  19.483  0.00  0.00    +0.000 A 
ATOM      8  N   UNL     1       2.160   6.157  19.607  0.00  0.00    +0.000 N 
ATOM      9  C   UNL     1       1.140   5.417  20.319  0.00  0.00    +0.000 C 
ATOM     10  C   UNL     1       3.192   5.664  18.797  0.00  0.00    +0.000 A 
ATOM     11  C   UNL     1       1.013   8.458  19.935  0.00  0.00    +0.000 C 
ATOM     12  C   UNL     1       0.682   9.406  18.732  0.00  0.00    +0.000 C 
ATOM     13  C   UNL     1       1.311  10.778  18.838  0.00  0.00    +0.000 C 
ATOM     14  C   UNL     1       2.466  10.683  17.852  0.00  0.00    +0.000 C 
ATOM     15  C   UNL     1       2.808   9.180  17.627  0.00  0.00    +0.000 C 
ATOM     16  N   UNL     1       1.331   8.982  17.460  0.00  0.00    +0.000 NA
ATOM     17  H   UNL     1       1.124   8.000  17.272  0.00  0.00    +0.000 HD
ENDROOT
BRANCH   3  18
ATOM     18  S   UNL     1       7.065   5.330  16.370  0.00  0.00    +0.000 S 
ATOM     19  O   UNL     1       7.581   6.681  16.233  0.00  0.00    +0.000 OA
ATOM     20  O   UNL     1       7.875   4.296  16.998  0.00  0.00    +0.000 OA
BRANCH  18  21
ATOM     21  C   UNL     1       6.671   4.744  14.736  0.00  0.00    +0.000 A 
ATOM     22  C   UNL     1       5.464   4.078  14.509  0.00  0.00    +0.000 A 
ATOM     23  C   UNL     1       5.174   3.589  13.235  0.00  0.00    +0.000 A 
ATOM     24  C   UNL     1       6.074   3.792  12.188  0.00  0.00    +0.000 A 
ATOM     25  C   UNL     1       7.259   4.498  12.410  0.00  0.00    +0.000 A 
ATOM     26  C   UNL     1       7.559   4.984  13.683  0.00  0.00    +0.000 A 
ENDBRANCH  18  21
ENDBRANCH   3  18
BRANCH   1  27
ATOM     27  O   UNL     1       3.053   3.145  18.636  0.00  0.00    +0.000 OA
BRANCH  27  28
ATOM     28  C   UNL     1       3.910   2.150  19.198  0.00  0.00    +0.000 C 
BRANCH  28  29
ATOM     29  C   UNL     1       3.998   2.167  20.717  0.00  0.00    +0.000 C 
BRANCH  29  31
ATOM     30  C   UNL     1       1.909   2.224  21.767  0.00  0.00    +0.000 C 
ATOM     31  O   UNL     1       3.000   3.003  21.294  0.00  0.00    +0.000 OA
ENDBRANCH  29  31
ENDBRANCH  28  29
ENDBRANCH  27  28
ENDBRANCH   1  27
TORSDOF 6
ENDMDL
MODEL 5
REMARK VINA RESULT:      -7.2      2.869      7.443
REMARK  Name = 
REMARK  8 active torsions:
REMARK  status: ('A' for Active; 'I' for Inactive)
REMARK    1  A    between atoms: C_1  and  O_2
REMARK    2  A    between atoms: O_2  and  C_3
REMARK    3  A    between atoms: C_3  and  C_4
REMARK    4  A    between atoms: C_4  and  O_5
REMARK    5  A    between atoms: O_5  and  C_6
REMARK    6  A    between atoms: C_8  and  S_9
REMARK    7  A    between atoms: S_9  and  C_12
REMARK    8  A    between atoms: N_22  and  C_23
REMARK                            x       y       z     vdW  Elec       q    Type
REMARK                         _______ _______ _______ _____ _____    ______ ____
ROOT
ATOM      1  C   UNL     1       4.418   6.968  17.335  0.00  0.00    +0.000 A 
ATOM      2  C   UNL     1       3.578   8.103  17.337  0.00  0.00    +0.000 A 
ATOM      3  C   UNL     1       2.498   8.191  18.210  0.00  0.00    +0.000 A 
ATOM      4  C   UNL     1       2.207   7.150  19.085  0.00  0.00    +0.000 A 
ATOM      5  C   UNL     1       3.056   6.037  19.129  0.00  0.00    +0.000 A 
ATOM      6  C   UNL     1       2.910   4.771  19.738  0.00  0.00    +0.000 A 
ATOM      7  C   UNL     1       4.129   4.137  19.666  0.00  0.00    +0.000 A 
ATOM      8  N   UNL     1       4.895   4.814  18.745  0.00  0.00    +0.000 N 
ATOM      9  C   UNL     1       6.096   4.225  18.193  0.00  0.00    +0.000 C 
ATOM     10  C   UNL     1       4.220   5.972  18.333  0.00  0.00    +0.000 A 
ATOM     11  C   UNL     1       4.297   2.747  20.190  0.00  0.00    +0.000 C 
ATOM     12  C   UNL     1       2.898   2.046  20.107  0.00  0.00    +0.000 C 
ATOM     13  C   UNL     1       2.159   1.987  21.425  0.00  0.00    +0.000 C 
ATOM     14  C   UNL     1       1.111   3.078  21.260  0.00  0.00    +0.000 C 
ATOM     15  C   UNL     1       1.589   4.064  20.154  0.00  0.00    +0.000 C 
ATOM     16  N   UNL     1       1.893   2.838  19.345  0.00  0.00    +0.000 NA
ATOM     17  H   UNL     1       2.271   3.100  18.433  0.00  0.00    +0.000 HD
ENDROOT
BRANCH   3  18
ATOM     18  S   UNL     1       1.450   9.621  18.249  0.00  0.00    +0.000 S 
ATOM     19  O   UNL     1       2.281  10.786  17.998  0.00  0.00    +0.000 OA
ATOM     20  O   UNL     1       0.293   9.349  17.408  0.00  0.00    +0.000 OA
BRANCH  18  21
ATOM     21  C   UNL     1       0.844   9.752  19.918  0.00  0.00    +0.000 A 
ATOM     22  C   UNL     1      -0.171  10.662  20.220  0.00  0.00    +0.000 A 
ATOM     23  C   UNL     1      -0.619  10.787  21.535  0.00  0.00    +0.000 A 
ATOM     24  C   UNL     1      -0.073   9.984  22.537  0.00  0.00    +0.000 A 
ATOM     25  C   UNL     1       0.911   9.044  22.222  0.00  0.00    +0.000 A 
ATOM     26  C   UNL     1       1.368   8.918  20.911  0.00  0.00    +0.000 A 
ENDBRANCH  18  21
ENDBRANCH   3  18
BRANCH   1  27
ATOM     27  O   UNL     1       5.368   6.986  16.321  0.00  0.00    +0.000 OA
BRANCH  27  28
ATOM     28  C   UNL     1       5.217   5.972  15.326  0.00  0.00    +0.000 C 
BRANCH  28  29
ATOM     29  C   UNL     1       6.506   5.264  14.934  0.00  0.00    +0.000 C 
BRANCH  29  31
ATOM     30  C   UNL     1       6.146   3.730  13.207  0.00  0.00    +0.000 C 
ATOM     31  O   UNL     1       6.279   3.896  14.612  0.00  0.00    +0.000 OA
ENDBRANCH  29  31
ENDBRANCH  28  29
ENDBRANCH  27  28
ENDBRANCH   1  27
TORSDOF 6
ENDMDL
MODEL 6
REMARK VINA RESULT:      -7.1      4.315      9.074
REMARK  Name = 
REMARK  8 active torsions:
REMARK  status: ('A' for Active; 'I' for Inactive)
REMARK    1  A    between atoms: C_1  and  O_2
REMARK    2  A    between atoms: O_2  and  C_3
REMARK    3  A    between atoms: C_3  and  C_4
REMARK    4  A    between atoms: C_4  and  O_5
REMARK    5  A    between atoms: O_5  and  C_6
REMARK    6  A    between atoms: C_8  and  S_9
REMARK    7  A    between atoms: S_9  and  C_12
REMARK    8  A    between atoms: N_22  and  C_23
REMARK                            x       y       z     vdW  Elec       q    Type
REMARK                         _______ _______ _______ _____ _____    ______ ____
ROOT
ATOM      1  C   UNL     1       2.178   8.823  18.738  0.00  0.00    +0.000 A 
ATOM      2  C   UNL     1       1.444   9.392  19.802  0.00  0.00    +0.000 A 
ATOM      3  C   UNL     1       1.011   8.610  20.869  0.00  0.00    +0.000 A 
ATOM      4  C   UNL     1       1.270   7.243  20.897  0.00  0.00    +0.000 A 
ATOM      5  C   UNL     1       2.036   6.672  19.873  0.00  0.00    +0.000 A 
ATOM      6  C   UNL     1       2.279   5.324  19.527  0.00  0.00    +0.000 A 
ATOM      7  C   UNL     1       3.280   5.317  18.582  0.00  0.00    +0.000 A 
ATOM      8  N   UNL     1       3.403   6.600  18.099  0.00  0.00    +0.000 N 
ATOM      9  C   UNL     1       4.126   6.871  16.875  0.00  0.00    +0.000 C 
ATOM     10  C   UNL     1       2.582   7.462  18.839  0.00  0.00    +0.000 A 
ATOM     11  C   UNL     1       3.743   4.033  17.973  0.00  0.00    +0.000 C 
ATOM     12  C   UNL     1       2.543   3.027  18.038  0.00  0.00    +0.000 C 
ATOM     13  C   UNL     1       2.642   2.023  19.165  0.00  0.00    +0.000 C 
ATOM     14  C   UNL     1       1.643   2.569  20.176  0.00  0.00    +0.000 C 
ATOM     15  C   UNL     1       1.416   4.081  19.884  0.00  0.00    +0.000 C 
ATOM     16  N   UNL     1       1.265   3.670  18.450  0.00  0.00    +0.000 NA
ATOM     17  H   UNL     1       1.079   4.487  17.865  0.00  0.00    +0.000 HD
ENDROOT
BRANCH   3  18
ATOM     18  S   UNL     1       0.115   9.310  22.229  0.00  0.00    +0.000 S 
ATOM     19  O   UNL     1      -0.983   8.413  22.544  0.00  0.00    +0.000 OA
ATOM     20  O   UNL     1       1.079   9.678  23.256  0.00  0.00    +0.000 OA
BRANCH  18  21
ATOM     21  C   UNL     1      -0.596  10.829  21.632  0.00  0.00    +0.000 A 
ATOM     22  C   UNL     1      -1.045  10.915  20.312  0.00  0.00    +0.000 A 
ATOM     23  C   UNL     1      -1.569  12.118  19.838  0.00  0.00    +0.000 A 
ATOM     24  C   UNL     1      -1.669  13.219  20.688  0.00  0.00    +0.000 A 
ATOM     25  C   UNL     1      -1.260  13.115  22.020  0.00  0.00    +0.000 A 
ATOM     26  C   UNL     1      -0.730  11.918  22.500  0.00  0.00    +0.000 A 
ENDBRANCH  18  21
ENDBRANCH   3  18
BRANCH   1  27
ATOM     27  O   UNL     1       2.423   9.713  17.700  0.00  0.00    +0.000 OA
BRANCH  27  28
ATOM     28  C   UNL     1       1.711  10.949  17.775  0.00  0.00    +0.000 C 
BRANCH  28  29
ATOM     29  C   UNL     1       2.577  12.170  18.051  0.00  0.00    +0.000 C 
BRANCH  29  31
ATOM     30  C   UNL     1       2.081  13.106  20.135  0.00  0.00    +0.000 C 
ATOM     31  O   UNL     1       1.852  13.187  18.735  0.00  0.00    +0.000 OA
ENDBRANCH  29  31
ENDBRANCH  28  29
ENDBRANCH  27  28
ENDBRANCH   1  27
TORSDOF 6
ENDMDL
MODEL 7
REMARK VINA RESULT:      -7.0      6.678     10.096
REMARK  Name = 
REMARK  8 active torsions:
REMARK  status: ('A' for Active; 'I' for Inactive)
REMARK    1  A    between atoms: C_1  and  O_2
REMARK    2  A    between atoms: O_2  and  C_3
REMARK    3  A    between atoms: C_3  and  C_4
REMARK    4  A    between atoms: C_4  and  O_5
REMARK    5  A    between atoms: O_5  and  C_6
REMARK    6  A    between atoms: C_8  and  S_9
REMARK    7  A    between atoms: S_9  and  C_12
REMARK    8  A    between atoms: N_22  and  C_23
REMARK                            x       y       z     vdW  Elec       q    Type
REMARK                         _______ _______ _______ _____ _____    ______ ____
ROOT
ATOM      1  C   UNL     1      -2.778  10.701  17.954  0.00  0.00    +0.000 A 
ATOM      2  C   UNL     1      -1.399  10.705  18.254  0.00  0.00    +0.000 A 
ATOM      3  C   UNL     1      -0.896  11.484  19.293  0.00  0.00    +0.000 A 
ATOM      4  C   UNL     1      -1.741  12.296  20.042  0.00  0.00    +0.000 A 
ATOM      5  C   UNL     1      -3.118  12.269  19.788  0.00  0.00    +0.000 A 
ATOM      6  C   UNL     1      -4.167  13.108  20.224  0.00  0.00    +0.000 A 
ATOM      7  C   UNL     1      -5.351  12.504  19.867  0.00  0.00    +0.000 A 
ATOM      8  N   UNL     1      -5.057  11.528  18.943  0.00  0.00    +0.000 N 
ATOM      9  C   UNL     1      -6.093  10.934  18.127  0.00  0.00    +0.000 C 
ATOM     10  C   UNL     1      -3.666  11.405  18.816  0.00  0.00    +0.000 A 
ATOM     11  C   UNL     1      -6.660  13.168  20.150  0.00  0.00    +0.000 C 
ATOM     12  C   UNL     1      -6.400  14.713  20.191  0.00  0.00    +0.000 C 
ATOM     13  C   UNL     1      -6.302  15.285  21.589  0.00  0.00    +0.000 C 
ATOM     14  C   UNL     1      -4.804  15.490  21.752  0.00  0.00    +0.000 C 
ATOM     15  C   UNL     1      -4.061  14.572  20.738  0.00  0.00    +0.000 C 
ATOM     16  N   UNL     1      -5.036  15.087  19.723  0.00  0.00    +0.000 NA
ATOM     17  H   UNL     1      -4.853  14.668  18.810  0.00  0.00    +0.000 HD
ENDROOT
BRANCH   3  18
ATOM     18  S   UNL     1       0.829  11.480  19.705  0.00  0.00    +0.000 S 
ATOM     19  O   UNL     1       1.497  12.418  18.820  0.00  0.00    +0.000 OA
ATOM     20  O   UNL     1       0.942  11.627  21.150  0.00  0.00    +0.000 OA
BRANCH  18  21
ATOM     21  C   UNL     1       1.434   9.853  19.311  0.00  0.00    +0.000 A 
ATOM     22  C   UNL     1       1.342   8.829  20.256  0.00  0.00    +0.000 A 
ATOM     23  C   UNL     1       1.849   7.565  19.956  0.00  0.00    +0.000 A 
ATOM     24  C   UNL     1       2.419   7.320  18.707  0.00  0.00    +0.000 A 
ATOM     25  C   UNL     1       2.469   8.335  17.748  0.00  0.00    +0.000 A 
ATOM     26  C   UNL     1       1.969   9.603  18.043  0.00  0.00    +0.000 A 
ENDBRANCH  18  21
ENDBRANCH   3  18
BRANCH   1  27
ATOM     27  O   UNL     1      -3.093   9.970  16.815  0.00  0.00    +0.000 OA
BRANCH  27  28
ATOM     28  C   UNL     1      -2.808  10.621  15.576  0.00  0.00    +0.000 C 
BRANCH  28  29
ATOM     29  C   UNL     1      -3.848  10.402  14.486  0.00  0.00    +0.000 C 
BRANCH  29  31
ATOM     30  C   UNL     1      -4.245   9.766  12.271  0.00  0.00    +0.000 C 
ATOM     31  O   UNL     1      -3.257   9.931  13.279  0.00  0.00    +0.000 OA
ENDBRANCH  29  31
ENDBRANCH  28  29
ENDBRANCH  27  28
ENDBRANCH   1  27
TORSDOF 6
ENDMDL
MODEL 8
REMARK VINA RESULT:      -7.0      6.817     10.262
REMARK  Name = 
REMARK  8 active torsions:
REMARK  status: ('A' for Active; 'I' for Inactive)
REMARK    1  A    between atoms: C_1  and  O_2
REMARK    2  A    between atoms: O_2  and  C_3
REMARK    3  A    between atoms: C_3  and  C_4
REMARK    4  A    between atoms: C_4  and  O_5
REMARK    5  A    between atoms: O_5  and  C_6
REMARK    6  A    between atoms: C_8  and  S_9
REMARK    7  A    between atoms: S_9  and  C_12
REMARK    8  A    between atoms: N_22  and  C_23
REMARK                            x       y       z     vdW  Elec       q    Type
REMARK                         _______ _______ _______ _____ _____    ______ ____
ROOT
ATOM      1  C   UNL     1      -2.703  11.604  17.660  0.00  0.00    +0.000 A 
ATOM      2  C   UNL     1      -1.335  11.558  18.005  0.00  0.00    +0.000 A 
ATOM      3  C   UNL     1      -0.916  11.832  19.304  0.00  0.00    +0.000 A 
ATOM      4  C   UNL     1      -1.837  12.183  20.286  0.00  0.00    +0.000 A 
ATOM      5  C   UNL     1      -3.202  12.188  19.972  0.00  0.00    +0.000 A 
ATOM      6  C   UNL     1      -4.322  12.689  20.673  0.00  0.00    +0.000 A 
ATOM      7  C   UNL     1      -5.448  12.233  20.026  0.00  0.00    +0.000 A 
ATOM      8  N   UNL     1      -5.059  11.779  18.787  0.00  0.00    +0.000 N 
ATOM      9  C   UNL     1      -6.029  11.542  17.739  0.00  0.00    +0.000 C 
ATOM     10  C   UNL     1      -3.661  11.806  18.693  0.00  0.00    +0.000 A 
ATOM     11  C   UNL     1      -6.810  12.628  20.499  0.00  0.00    +0.000 C 
ATOM     12  C   UNL     1      -6.669  14.011  21.222  0.00  0.00    +0.000 C 
ATOM     13  C   UNL     1      -6.647  13.919  22.732  0.00  0.00    +0.000 C 
ATOM     14  C   UNL     1      -5.172  14.120  23.048  0.00  0.00    +0.000 C 
ATOM     15  C   UNL     1      -4.339  13.783  21.777  0.00  0.00    +0.000 C 
ATOM     16  N   UNL     1      -5.328  14.632  21.037  0.00  0.00    +0.000 NA
ATOM     17  H   UNL     1      -5.093  14.667  20.043  0.00  0.00    +0.000 HD
ENDROOT
BRANCH   3  18
ATOM     18  S   UNL     1       0.794  11.750  19.765  0.00  0.00    +0.000 S 
ATOM     19  O   UNL     1       1.523  12.686  18.928  0.00  0.00    +0.000 OA
ATOM     20  O   UNL     1       0.869  11.849  21.216  0.00  0.00    +0.000 OA
BRANCH  18  21
ATOM     21  C   UNL     1       1.349  10.113  19.339  0.00  0.00    +0.000 A 
ATOM     22  C   UNL     1       1.848   9.859  18.060  0.00  0.00    +0.000 A 
ATOM     23  C   UNL     1       2.249   8.567  17.718  0.00  0.00    +0.000 A 
ATOM     24  C   UNL     1       2.178   7.542  18.662  0.00  0.00    +0.000 A 
ATOM     25  C   UNL     1       1.720   7.810  19.954  0.00  0.00    +0.000 A 
ATOM     26  C   UNL     1       1.312   9.098  20.301  0.00  0.00    +0.000 A 
ENDBRANCH  18  21
ENDBRANCH   3  18
BRANCH   1  27
ATOM     27  O   UNL     1      -2.935  11.428  16.301  0.00  0.00    +0.000 OA
BRANCH  27  28
ATOM     28  C   UNL     1      -2.940  10.072  15.854  0.00  0.00    +0.000 C 
BRANCH  28  29
ATOM     29  C   UNL     1      -2.918   9.897  14.342  0.00  0.00    +0.000 C 
BRANCH  29  31
ATOM     30  C   UNL     1      -4.180   9.785  12.376  0.00  0.00    +0.000 C 
ATOM     31  O   UNL     1      -4.233   9.882  13.794  0.00  0.00    +0.000 OA
ENDBRANCH  29  31
ENDBRANCH  28  29
ENDBRANCH  27  28
ENDBRANCH   1  27
TORSDOF 6
ENDMDL
MODEL 9
REMARK VINA RESULT:      -7.0      2.734      5.709
REMARK  Name = 
REMARK  8 active torsions:
REMARK  status: ('A' for Active; 'I' for Inactive)
REMARK    1  A    between atoms: C_1  and  O_2
REMARK    2  A    between atoms: O_2  and  C_3
REMARK    3  A    between atoms: C_3  and  C_4
REMARK    4  A    between atoms: C_4  and  O_5
REMARK    5  A    between atoms: O_5  and  C_6
REMARK    6  A    between atoms: C_8  and  S_9
REMARK    7  A    between atoms: S_9  and  C_12
REMARK    8  A    between atoms: N_22  and  C_23
REMARK                            x       y       z     vdW  Elec       q    Type
REMARK                         _______ _______ _______ _____ _____    ______ ____
ROOT
ATOM      1  C   UNL     1       2.839   7.036  18.790  0.00  0.00    +0.000 A 
ATOM      2  C   UNL     1       2.815   5.731  19.328  0.00  0.00    +0.000 A 
ATOM      3  C   UNL     1       1.968   5.408  20.385  0.00  0.00    +0.000 A 
ATOM      4  C   UNL     1       1.143   6.374  20.952  0.00  0.00    +0.000 A 
ATOM      5  C   UNL     1       1.121   7.662  20.401  0.00  0.00    +0.000 A 
ATOM      6  C   UNL     1       0.566   8.872  20.873  0.00  0.00    +0.000 A 
ATOM      7  C   UNL     1       0.630   9.782  19.843  0.00  0.00    +0.000 A 
ATOM      8  N   UNL     1       1.503   9.285  18.903  0.00  0.00    +0.000 N 
ATOM      9  C   UNL     1       2.045  10.132  17.863  0.00  0.00    +0.000 C 
ATOM     10  C   UNL     1       1.887   7.985  19.260  0.00  0.00    +0.000 A 
ATOM     11  C   UNL     1       0.158  11.187  20.037  0.00  0.00    +0.000 C 
ATOM     12  C   UNL     1       0.305  11.522  21.561  0.00  0.00    +0.000 C 
ATOM     13  C   UNL     1      -0.989  11.440  22.339  0.00  0.00    +0.000 C 
ATOM     14  C   UNL     1      -0.839  10.121  23.083  0.00  0.00    +0.000 C 
ATOM     15  C   UNL     1       0.214   9.247  22.341  0.00  0.00    +0.000 C 
ATOM     16  N   UNL     1       1.062  10.484  22.315  0.00  0.00    +0.000 NA
ATOM     17  H   UNL     1       1.953  10.294  21.852  0.00  0.00    +0.000 HD
ENDROOT
BRANCH   3  18
ATOM     18  S   UNL     1       1.900   3.768  21.053  0.00  0.00    +0.000 S 
ATOM     19  O   UNL     1       2.625   3.773  22.312  0.00  0.00    +0.000 OA
ATOM     20  O   UNL     1       0.514   3.324  21.006  0.00  0.00    +0.000 OA
BRANCH  18  21
ATOM     21  C   UNL     1       2.804   2.729  19.924  0.00  0.00    +0.000 A 
ATOM     22  C   UNL     1       4.042   2.203  20.302  0.00  0.00    +0.000 A 
ATOM     23  C   UNL     1       4.763   1.419  19.402  0.00  0.00    +0.000 A 
ATOM     24  C   UNL     1       4.235   1.139  18.141  0.00  0.00    +0.000 A 
ATOM     25  C   UNL     1       2.977   1.631  17.784  0.00  0.00    +0.000 A 
ATOM     26  C   UNL     1       2.253   2.420  18.677  0.00  0.00    +0.000 A 
ENDBRANCH  18  21
ENDBRANCH   3  18
BRANCH   1  27
ATOM     27  O   UNL     1       3.825   7.219  17.830  0.00  0.00    +0.000 OA
BRANCH  27  28
ATOM     28  C   UNL     1       4.391   6.019  17.301  0.00  0.00    +0.000 C 
BRANCH  28  29
ATOM     29  C   UNL     1       5.411   6.228  16.190  0.00  0.00    +0.000 C 
BRANCH  29  31
ATOM     30  C   UNL     1       7.311   6.612  17.498  0.00  0.00    +0.000 C 
ATOM     31  O   UNL     1       6.406   7.178  16.559  0.00  0.00    +0.000 OA
ENDBRANCH  29  31
ENDBRANCH  28  29
ENDBRANCH  27  28
ENDBRANCH   1  27
TORSDOF 6
ENDMDL
