MODEL 1
REMARK VINA RESULT:      -6.0      0.000      0.000
REMARK  Name = 
REMARK  4 active torsions:
REMARK  status: ('A' for Active; 'I' for Inactive)
REMARK    1  A    between atoms: C_1  and  C_2
REMARK    2  A    between atoms: C_5  and  C_6
REMARK    3  A    between atoms: N_17  and  C_18
REMARK    4  A    between atoms: C_23  and  C_24
REMARK                            x       y       z     vdW  Elec       q    Type
REMARK                         _______ _______ _______ _____ _____    ______ ____
ROOT
ATOM      1  C   UNL     1      -4.754  12.360  19.910  0.00  0.00    +0.000 A 
ATOM      2  C   UNL     1      -6.081  11.995  19.726  0.00  0.00    +0.000 A 
ATOM      3  S   UNL     1      -6.367  11.201  18.257  0.00  0.00    +0.000 S 
ATOM      4  C   UNL     1      -4.732  11.339  17.809  0.00  0.00    +0.000 A 
ATOM      5  N   UNL     1      -4.381  10.894  16.593  0.00  0.00    +0.000 NA
ATOM      6  C   UNL     1      -3.087  11.063  16.343  0.00  0.00    +0.000 A 
ATOM      7  N   UNL     1      -2.168  11.556  17.186  0.00  0.00    +0.000 NA
ATOM      8  C   UNL     1      -2.525  11.977  18.431  0.00  0.00    +0.000 A 
ATOM      9  N   UNL     1      -1.510  12.509  19.226  0.00  0.00    +0.000 N 
ATOM     10  C   UNL     1      -1.306  11.922  20.563  0.00  0.00    +0.000 C 
ATOM     11  C   UNL     1      -0.501  12.945  21.398  0.00  0.00    +0.000 C 
ATOM     12  N   UNL     1       0.819  13.298  20.827  0.00  0.00    +0.000 NA
ATOM     13  C   UNL     1       1.403  14.399  21.596  0.00  0.00    +0.000 C 
ATOM     14  C   UNL     1       0.640  13.713  19.411  0.00  0.00    +0.000 C 
ATOM     15  C   UNL     1      -0.201  12.723  18.563  0.00  0.00    +0.000 C 
ATOM     16  C   UNL     1      -3.916  11.923  18.780  0.00  0.00    +0.000 A 
ENDROOT
BRANCH   1  21
ATOM     17  C   UNL     1      -3.522  15.441  24.684  0.00  0.00    +0.000 C 
ATOM     18  C   UNL     1      -3.811  14.611  23.463  0.00  0.00    +0.000 A 
ATOM     19  C   UNL     1      -3.772  15.211  22.198  0.00  0.00    +0.000 A 
ATOM     20  C   UNL     1      -4.094  14.480  21.050  0.00  0.00    +0.000 A 
ATOM     21  C   UNL     1      -4.428  13.120  21.128  0.00  0.00    +0.000 A 
ATOM     22  C   UNL     1      -4.429  12.511  22.388  0.00  0.00    +0.000 A 
ATOM     23  C   UNL     1      -4.173  13.256  23.561  0.00  0.00    +0.000 A 
ATOM     24  C   UNL     1      -4.392  12.618  24.913  0.00  0.00    +0.000 C 
ENDBRANCH   1  21
TORSDOF 1
ENDMDL
MODEL 2
REMARK VINA RESULT:      -5.9      9.676     12.526
REMARK  Name = 
REMARK  4 active torsions:
REMARK  status: ('A' for Active; 'I' for Inactive)
REMARK    1  A    between atoms: C_1  and  C_2
REMARK    2  A    between atoms: C_5  and  C_6
REMARK    3  A    between atoms: N_17  and  C_18
REMARK    4  A    between atoms: C_23  and  C_24
REMARK                            x       y       z     vdW  Elec       q    Type
REMARK                         _______ _______ _______ _____ _____    ______ ____
ROOT
ATOM      1  C   UNL     1       7.955  12.994  22.113  0.00  0.00    +0.000 A 
ATOM      2  C   UNL     1       7.887  11.807  22.828  0.00  0.00    +0.000 A 
ATOM      3  S   UNL     1       6.650  11.785  23.987  0.00  0.00    +0.000 S 
ATOM      4  C   UNL     1       6.181  13.370  23.585  0.00  0.00    +0.000 A 
ATOM      5  N   UNL     1       5.198  13.928  24.307  0.00  0.00    +0.000 NA
ATOM      6  C   UNL     1       4.923  15.169  23.918  0.00  0.00    +0.000 A 
ATOM      7  N   UNL     1       5.478  15.826  22.890  0.00  0.00    +0.000 NA
ATOM      8  C   UNL     1       6.454  15.241  22.140  0.00  0.00    +0.000 A 
ATOM      9  N   UNL     1       7.000  16.012  21.114  0.00  0.00    +0.000 N 
ATOM     10  C   UNL     1       6.992  15.446  19.752  0.00  0.00    +0.000 C 
ATOM     11  C   UNL     1       8.036  16.228  18.923  0.00  0.00    +0.000 C 
ATOM     12  N   UNL     1       7.781  17.685  18.833  0.00  0.00    +0.000 NA
ATOM     13  C   UNL     1       8.921  18.339  18.188  0.00  0.00    +0.000 C 
ATOM     14  C   UNL     1       7.599  18.230  20.205  0.00  0.00    +0.000 C 
ATOM     15  C   UNL     1       6.587  17.435  21.072  0.00  0.00    +0.000 C 
ATOM     16  C   UNL     1       6.895  13.931  22.525  0.00  0.00    +0.000 A 
ENDROOT
BRANCH   1  21
ATOM     17  C   UNL     1      12.333  13.533  18.326  0.00  0.00    +0.000 C 
ATOM     18  C   UNL     1      11.171  13.395  19.270  0.00  0.00    +0.000 A 
ATOM     19  C   UNL     1      11.101  14.219  20.400  0.00  0.00    +0.000 A 
ATOM     20  C   UNL     1      10.064  14.075  21.327  0.00  0.00    +0.000 A 
ATOM     21  C   UNL     1       9.047  13.128  21.134  0.00  0.00    +0.000 A 
ATOM     22  C   UNL     1       9.096  12.331  19.985  0.00  0.00    +0.000 A 
ATOM     23  C   UNL     1      10.175  12.422  19.077  0.00  0.00    +0.000 A 
ATOM     24  C   UNL     1      10.305  11.403  17.968  0.00  0.00    +0.000 C 
ENDBRANCH   1  21
TORSDOF 1
ENDMDL
MODEL 3
REMARK VINA RESULT:      -5.8     10.340     12.852
REMARK  Name = 
REMARK  4 active torsions:
REMARK  status: ('A' for Active; 'I' for Inactive)
REMARK    1  A    between atoms: C_1  and  C_2
REMARK    2  A    between atoms: C_5  and  C_6
REMARK    3  A    between atoms: N_17  and  C_18
REMARK    4  A    between atoms: C_23  and  C_24
REMARK                            x       y       z     vdW  Elec       q    Type
REMARK                         _______ _______ _______ _____ _____    ______ ____
ROOT
ATOM      1  C   UNL     1       8.178  12.507  22.476  0.00  0.00    +0.000 A 
ATOM      2  C   UNL     1       8.018  11.509  23.427  0.00  0.00    +0.000 A 
ATOM      3  S   UNL     1       6.938  11.921  24.666  0.00  0.00    +0.000 S 
ATOM      4  C   UNL     1       6.667  13.456  23.984  0.00  0.00    +0.000 A 
ATOM      5  N   UNL     1       5.871  14.302  24.655  0.00  0.00    +0.000 NA
ATOM      6  C   UNL     1       5.741  15.473  24.040  0.00  0.00    +0.000 A 
ATOM      7  N   UNL     1       6.264  15.816  22.854  0.00  0.00    +0.000 NA
ATOM      8  C   UNL     1       7.045  14.940  22.162  0.00  0.00    +0.000 A 
ATOM      9  N   UNL     1       7.575  15.394  20.955  0.00  0.00    +0.000 N 
ATOM     10  C   UNL     1       7.322  14.588  19.747  0.00  0.00    +0.000 C 
ATOM     11  C   UNL     1       8.367  15.006  18.687  0.00  0.00    +0.000 C 
ATOM     12  N   UNL     1       8.324  16.440  18.317  0.00  0.00    +0.000 NA
ATOM     13  C   UNL     1       9.465  16.754  17.455  0.00  0.00    +0.000 C 
ATOM     14  C   UNL     1       8.389  17.261  19.555  0.00  0.00    +0.000 C 
ATOM     15  C   UNL     1       7.379  16.832  20.652  0.00  0.00    +0.000 C 
ATOM     16  C   UNL     1       7.327  13.673  22.773  0.00  0.00    +0.000 A 
ENDROOT
BRANCH   1  21
ATOM     17  C   UNL     1      11.957  11.508  18.173  0.00  0.00    +0.000 C 
ATOM     18  C   UNL     1      11.015  11.775  19.314  0.00  0.00    +0.000 A 
ATOM     19  C   UNL     1       9.995  10.858  19.594  0.00  0.00    +0.000 A 
ATOM     20  C   UNL     1       9.068  11.107  20.611  0.00  0.00    +0.000 A 
ATOM     21  C   UNL     1       9.154  12.262  21.402  0.00  0.00    +0.000 A 
ATOM     22  C   UNL     1      10.197  13.160  21.148  0.00  0.00    +0.000 A 
ATOM     23  C   UNL     1      11.098  12.952  20.079  0.00  0.00    +0.000 A 
ATOM     24  C   UNL     1      12.073  14.043  19.701  0.00  0.00    +0.000 C 
ENDBRANCH   1  21
TORSDOF 1
ENDMDL
MODEL 4
REMARK VINA RESULT:      -5.8      0.999      1.727
REMARK  Name = 
REMARK  4 active torsions:
REMARK  status: ('A' for Active; 'I' for Inactive)
REMARK    1  A    between atoms: C_1  and  C_2
REMARK    2  A    between atoms: C_5  and  C_6
REMARK    3  A    between atoms: N_17  and  C_18
REMARK    4  A    between atoms: C_23  and  C_24
REMARK                            x       y       z     vdW  Elec       q    Type
REMARK                         _______ _______ _______ _____ _____    ______ ____
ROOT
ATOM      1  C   UNL     1      -4.938  12.645  20.862  0.00  0.00    +0.000 A 
ATOM      2  C   UNL     1      -6.303  12.426  20.987  0.00  0.00    +0.000 A 
ATOM      3  S   UNL     1      -6.999  11.698  19.623  0.00  0.00    +0.000 S 
ATOM      4  C   UNL     1      -5.502  11.673  18.815  0.00  0.00    +0.000 A 
ATOM      5  N   UNL     1      -5.487  11.220  17.552  0.00  0.00    +0.000 NA
ATOM      6  C   UNL     1      -4.272  11.258  17.014  0.00  0.00    +0.000 A 
ATOM      7  N   UNL     1      -3.138  11.632  17.624  0.00  0.00    +0.000 NA
ATOM      8  C   UNL     1      -3.156  12.061  18.916  0.00  0.00    +0.000 A 
ATOM      9  N   UNL     1      -1.937  12.466  19.458  0.00  0.00    +0.000 N 
ATOM     10  C   UNL     1      -1.499  11.831  20.715  0.00  0.00    +0.000 C 
ATOM     11  C   UNL     1      -0.421  12.745  21.341  0.00  0.00    +0.000 C 
ATOM     12  N   UNL     1       0.766  12.969  20.485  0.00  0.00    +0.000 NA
ATOM     13  C   UNL     1       1.623  13.986  21.098  0.00  0.00    +0.000 C 
ATOM     14  C   UNL     1       0.316  13.432  19.145  0.00  0.00    +0.000 C 
ATOM     15  C   UNL     1      -0.797  12.555  18.514  0.00  0.00    +0.000 C 
ATOM     16  C   UNL     1      -4.430  12.146  19.572  0.00  0.00    +0.000 A 
ENDROOT
BRANCH   1  21
ATOM     17  C   UNL     1      -2.233  15.299  25.271  0.00  0.00    +0.000 C 
ATOM     18  C   UNL     1      -2.957  14.651  24.123  0.00  0.00    +0.000 A 
ATOM     19  C   UNL     1      -3.526  13.383  24.296  0.00  0.00    +0.000 A 
ATOM     20  C   UNL     1      -4.154  12.730  23.231  0.00  0.00    +0.000 A 
ATOM     21  C   UNL     1      -4.265  13.339  21.972  0.00  0.00    +0.000 A 
ATOM     22  C   UNL     1      -3.730  14.622  21.810  0.00  0.00    +0.000 A 
ATOM     23  C   UNL     1      -3.034  15.263  22.860  0.00  0.00    +0.000 A 
ATOM     24  C   UNL     1      -2.289  16.549  22.585  0.00  0.00    +0.000 C 
ENDBRANCH   1  21
TORSDOF 1
ENDMDL
MODEL 5
REMARK VINA RESULT:      -5.8      3.086      5.799
REMARK  Name = 
REMARK  4 active torsions:
REMARK  status: ('A' for Active; 'I' for Inactive)
REMARK    1  A    between atoms: C_1  and  C_2
REMARK    2  A    between atoms: C_5  and  C_6
REMARK    3  A    between atoms: N_17  and  C_18
REMARK    4  A    between atoms: C_23  and  C_24
REMARK                            x       y       z     vdW  Elec       q    Type
REMARK                         _______ _______ _______ _____ _____    ______ ____
ROOT
ATOM      1  C   UNL     1      -2.425  13.009  22.272  0.00  0.00    +0.000 A 
ATOM      2  C   UNL     1      -3.624  12.726  22.912  0.00  0.00    +0.000 A 
ATOM      3  S   UNL     1      -3.859  13.619  24.333  0.00  0.00    +0.000 S 
ATOM      4  C   UNL     1      -2.357  14.397  24.150  0.00  0.00    +0.000 A 
ATOM      5  N   UNL     1      -1.971  15.238  25.120  0.00  0.00    +0.000 NA
ATOM      6  C   UNL     1      -0.780  15.777  24.882  0.00  0.00    +0.000 A 
ATOM      7  N   UNL     1      -0.024  15.595  23.789  0.00  0.00    +0.000 NA
ATOM      8  C   UNL     1      -0.436  14.763  22.793  0.00  0.00    +0.000 A 
ATOM      9  N   UNL     1       0.430  14.606  21.711  0.00  0.00    +0.000 N 
ATOM     10  C   UNL     1      -0.102  14.870  20.362  0.00  0.00    +0.000 C 
ATOM     11  C   UNL     1       0.848  14.189  19.350  0.00  0.00    +0.000 C 
ATOM     12  N   UNL     1       2.250  14.664  19.410  0.00  0.00    +0.000 NA
ATOM     13  C   UNL     1       3.085  13.827  18.546  0.00  0.00    +0.000 C 
ATOM     14  C   UNL     1       2.732  14.576  20.814  0.00  0.00    +0.000 C 
ATOM     15  C   UNL     1       1.774  15.216  21.853  0.00  0.00    +0.000 C 
ATOM     16  C   UNL     1      -1.671  14.057  22.982  0.00  0.00    +0.000 A 
ENDROOT
BRANCH   1  21
ATOM     17  C   UNL     1      -1.178  10.000  17.457  0.00  0.00    +0.000 C 
ATOM     18  C   UNL     1      -1.498  10.739  18.726  0.00  0.00    +0.000 A 
ATOM     19  C   UNL     1      -2.581  11.626  18.751  0.00  0.00    +0.000 A 
ATOM     20  C   UNL     1      -2.868  12.372  19.899  0.00  0.00    +0.000 A 
ATOM     21  C   UNL     1      -2.105  12.226  21.067  0.00  0.00    +0.000 A 
ATOM     22  C   UNL     1      -1.047  11.311  21.054  0.00  0.00    +0.000 A 
ATOM     23  C   UNL     1      -0.706  10.603  19.879  0.00  0.00    +0.000 A 
ATOM     24  C   UNL     1       0.567   9.789  19.842  0.00  0.00    +0.000 C 
ENDBRANCH   1  21
TORSDOF 1
ENDMDL
MODEL 6
REMARK VINA RESULT:      -5.7      1.877      4.799
REMARK  Name = 
REMARK  4 active torsions:
REMARK  status: ('A' for Active; 'I' for Inactive)
REMARK    1  A    between atoms: C_1  and  C_2
REMARK    2  A    between atoms: C_5  and  C_6
REMARK    3  A    between atoms: N_17  and  C_18
REMARK    4  A    between atoms: C_23  and  C_24
REMARK                            x       y       z     vdW  Elec       q    Type
REMARK                         _______ _______ _______ _____ _____    ______ ____
ROOT
ATOM      1  C   UNL     1      -2.382  11.892  18.314  0.00  0.00    +0.000 A 
ATOM      2  C   UNL     1      -2.303  11.361  17.034  0.00  0.00    +0.000 A 
ATOM      3  S   UNL     1      -3.796  10.839  16.425  0.00  0.00    +0.000 S 
ATOM      4  C   UNL     1      -4.592  11.286  17.860  0.00  0.00    +0.000 A 
ATOM      5  N   UNL     1      -5.901  11.009  17.956  0.00  0.00    +0.000 NA
ATOM      6  C   UNL     1      -6.416  11.387  19.121  0.00  0.00    +0.000 A 
ATOM      7  N   UNL     1      -5.776  12.033  20.107  0.00  0.00    +0.000 NA
ATOM      8  C   UNL     1      -4.454  12.339  19.990  0.00  0.00    +0.000 A 
ATOM      9  N   UNL     1      -3.862  12.979  21.078  0.00  0.00    +0.000 N 
ATOM     10  C   UNL     1      -3.163  14.253  20.829  0.00  0.00    +0.000 C 
ATOM     11  C   UNL     1      -2.220  14.503  22.028  0.00  0.00    +0.000 C 
ATOM     12  N   UNL     1      -2.904  14.586  23.339  0.00  0.00    +0.000 NA
ATOM     13  C   UNL     1      -1.904  14.639  24.408  0.00  0.00    +0.000 C 
ATOM     14  C   UNL     1      -3.763  13.385  23.514  0.00  0.00    +0.000 C 
ATOM     15  C   UNL     1      -4.689  13.088  22.304  0.00  0.00    +0.000 C 
ATOM     16  C   UNL     1      -3.771  11.900  18.807  0.00  0.00    +0.000 A 
ENDROOT
BRANCH   1  21
ATOM     17  C   UNL     1       2.633  13.419  20.827  0.00  0.00    +0.000 C 
ATOM     18  C   UNL     1       1.321  13.068  20.183  0.00  0.00    +0.000 A 
ATOM     19  C   UNL     1       0.627  11.929  20.611  0.00  0.00    +0.000 A 
ATOM     20  C   UNL     1      -0.566  11.543  19.991  0.00  0.00    +0.000 A 
ATOM     21  C   UNL     1      -1.120  12.303  18.950  0.00  0.00    +0.000 A 
ATOM     22  C   UNL     1      -0.447  13.462  18.548  0.00  0.00    +0.000 A 
ATOM     23  C   UNL     1       0.794  13.824  19.121  0.00  0.00    +0.000 A 
ATOM     24  C   UNL     1       1.593  14.956  18.517  0.00  0.00    +0.000 C 
ENDBRANCH   1  21
TORSDOF 1
ENDMDL
MODEL 7
REMARK VINA RESULT:      -5.7      2.963      5.774
REMARK  Name = 
REMARK  4 active torsions:
REMARK  status: ('A' for Active; 'I' for Inactive)
REMARK    1  A    between atoms: C_1  and  C_2
REMARK    2  A    between atoms: C_5  and  C_6
REMARK    3  A    between atoms: N_17  and  C_18
REMARK    4  A    between atoms: C_23  and  C_24
REMARK                            x       y       z     vdW  Elec       q    Type
REMARK                         _______ _______ _______ _____ _____    ______ ____
ROOT
ATOM      1  C   UNL     1      -2.585  12.966  22.207  0.00  0.00    +0.000 A 
ATOM      2  C   UNL     1      -3.792  12.665  22.823  0.00  0.00    +0.000 A 
ATOM      3  S   UNL     1      -4.042  13.512  24.270  0.00  0.00    +0.000 S 
ATOM      4  C   UNL     1      -2.537  14.290  24.131  0.00  0.00    +0.000 A 
ATOM      5  N   UNL     1      -2.161  15.098  25.133  0.00  0.00    +0.000 NA
ATOM      6  C   UNL     1      -0.965  15.641  24.928  0.00  0.00    +0.000 A 
ATOM      7  N   UNL     1      -0.196  15.493  23.839  0.00  0.00    +0.000 NA
ATOM      8  C   UNL     1      -0.598  14.696  22.810  0.00  0.00    +0.000 A 
ATOM      9  N   UNL     1       0.281  14.572  21.735  0.00  0.00    +0.000 N 
ATOM     10  C   UNL     1      -0.234  14.882  20.388  0.00  0.00    +0.000 C 
ATOM     11  C   UNL     1       0.727  14.232  19.367  0.00  0.00    +0.000 C 
ATOM     12  N   UNL     1       2.129  14.701  19.459  0.00  0.00    +0.000 NA
ATOM     13  C   UNL     1       2.973  13.890  18.579  0.00  0.00    +0.000 C 
ATOM     14  C   UNL     1       2.594  14.565  20.865  0.00  0.00    +0.000 C 
ATOM     15  C   UNL     1       1.624  15.173  21.913  0.00  0.00    +0.000 C 
ATOM     16  C   UNL     1      -1.837  13.987  22.961  0.00  0.00    +0.000 A 
ENDROOT
BRANCH   1  21
ATOM     17  C   UNL     1      -1.248   9.945  17.423  0.00  0.00    +0.000 C 
ATOM     18  C   UNL     1      -1.598  10.765  18.635  0.00  0.00    +0.000 A 
ATOM     19  C   UNL     1      -0.794  10.681  19.778  0.00  0.00    +0.000 A 
ATOM     20  C   UNL     1      -1.128  11.385  20.940  0.00  0.00    +0.000 A 
ATOM     21  C   UNL     1      -2.252  12.222  20.981  0.00  0.00    +0.000 A 
ATOM     22  C   UNL     1      -3.034  12.336  19.826  0.00  0.00    +0.000 A 
ATOM     23  C   UNL     1      -2.745  11.577  18.670  0.00  0.00    +0.000 A 
ATOM     24  C   UNL     1      -3.728  11.563  17.522  0.00  0.00    +0.000 C 
ENDBRANCH   1  21
TORSDOF 1
ENDMDL
MODEL 8
REMARK VINA RESULT:      -5.7      2.365      4.313
REMARK  Name = 
REMARK  4 active torsions:
REMARK  status: ('A' for Active; 'I' for Inactive)
REMARK    1  A    between atoms: C_1  and  C_2
REMARK    2  A    between atoms: C_5  and  C_6
REMARK    3  A    between atoms: N_17  and  C_18
REMARK    4  A    between atoms: C_23  and  C_24
REMARK                            x       y       z     vdW  Elec       q    Type
REMARK                         _______ _______ _______ _____ _____    ______ ____
ROOT
ATOM      1  C   UNL     1      -1.756  12.310  20.407  0.00  0.00    +0.000 A 
ATOM      2  C   UNL     1      -0.425  12.012  20.152  0.00  0.00    +0.000 A 
ATOM      3  S   UNL     1      -0.183  11.192  18.689  0.00  0.00    +0.000 S 
ATOM      4  C   UNL     1      -1.852  11.190  18.360  0.00  0.00    +0.000 A 
ATOM      5  N   UNL     1      -2.267  10.551  17.256  0.00  0.00    +0.000 NA
ATOM      6  C   UNL     1      -3.586  10.600  17.105  0.00  0.00    +0.000 A 
ATOM      7  N   UNL     1      -4.457  11.248  17.892  0.00  0.00    +0.000 NA
ATOM      8  C   UNL     1      -4.027  11.921  18.995  0.00  0.00    +0.000 A 
ATOM      9  N   UNL     1      -5.006  12.535  19.774  0.00  0.00    +0.000 N 
ATOM     10  C   UNL     1      -4.857  13.975  20.056  0.00  0.00    +0.000 C 
ATOM     11  C   UNL     1      -5.746  14.300  21.278  0.00  0.00    +0.000 C 
ATOM     12  N   UNL     1      -7.184  14.001  21.086  0.00  0.00    +0.000 NA
ATOM     13  C   UNL     1      -7.891  14.173  22.357  0.00  0.00    +0.000 C 
ATOM     14  C   UNL     1      -7.328  12.597  20.617  0.00  0.00    +0.000 C 
ATOM     15  C   UNL     1      -6.413  12.234  19.418  0.00  0.00    +0.000 C 
ATOM     16  C   UNL     1      -2.627  11.864  19.306  0.00  0.00    +0.000 A 
ENDROOT
BRANCH   1  21
ATOM     17  C   UNL     1      -2.988  14.959  25.434  0.00  0.00    +0.000 C 
ATOM     18  C   UNL     1      -2.659  14.235  24.157  0.00  0.00    +0.000 A 
ATOM     19  C   UNL     1      -1.793  14.830  23.232  0.00  0.00    +0.000 A 
ATOM     20  C   UNL     1      -1.515  14.208  22.010  0.00  0.00    +0.000 A 
ATOM     21  C   UNL     1      -2.065  12.958  21.693  0.00  0.00    +0.000 A 
ATOM     22  C   UNL     1      -2.901  12.346  22.634  0.00  0.00    +0.000 A 
ATOM     23  C   UNL     1      -3.242  12.995  23.841  0.00  0.00    +0.000 A 
ATOM     24  C   UNL     1      -4.310  12.402  24.731  0.00  0.00    +0.000 C 
ENDBRANCH   1  21
TORSDOF 1
ENDMDL
MODEL 9
REMARK VINA RESULT:      -5.7      2.742      6.118
REMARK  Name = 
REMARK  4 active torsions:
REMARK  status: ('A' for Active; 'I' for Inactive)
REMARK    1  A    between atoms: C_1  and  C_2
REMARK    2  A    between atoms: C_5  and  C_6
REMARK    3  A    between atoms: N_17  and  C_18
REMARK    4  A    between atoms: C_23  and  C_24
REMARK                            x       y       z     vdW  Elec       q    Type
REMARK                         _______ _______ _______ _____ _____    ______ ____
ROOT
ATOM      1  C   UNL     1      -1.579  11.953  21.133  0.00  0.00    +0.000 A 
ATOM      2  C   UNL     1      -1.181  12.311  22.414  0.00  0.00    +0.000 A 
ATOM      3  S   UNL     1      -2.323  13.251  23.240  0.00  0.00    +0.000 S 
ATOM      4  C   UNL     1      -3.377  13.228  21.905  0.00  0.00    +0.000 A 
ATOM      5  N   UNL     1      -4.511  13.939  21.997  0.00  0.00    +0.000 NA
ATOM      6  C   UNL     1      -5.250  13.863  20.895  0.00  0.00    +0.000 A 
ATOM      7  N   UNL     1      -4.986  13.128  19.805  0.00  0.00    +0.000 NA
ATOM      8  C   UNL     1      -3.848  12.383  19.730  0.00  0.00    +0.000 A 
ATOM      9  N   UNL     1      -3.638  11.680  18.545  0.00  0.00    +0.000 N 
ATOM     10  C   UNL     1      -3.401  10.227  18.641  0.00  0.00    +0.000 C 
ATOM     11  C   UNL     1      -2.741   9.780  17.317  0.00  0.00    +0.000 C 
ATOM     12  N   UNL     1      -3.551  10.049  16.107  0.00  0.00    +0.000 NA
ATOM     13  C   UNL     1      -2.756   9.756  14.913  0.00  0.00    +0.000 C 
ATOM     14  C   UNL     1      -3.954  11.481  16.102  0.00  0.00    +0.000 C 
ATOM     15  C   UNL     1      -4.580  11.965  17.437  0.00  0.00    +0.000 C 
ATOM     16  C   UNL     1      -2.929  12.459  20.830  0.00  0.00    +0.000 A 
ENDROOT
BRANCH   1  21
ATOM     17  C   UNL     1       2.274   9.053  17.887  0.00  0.00    +0.000 C 
ATOM     18  C   UNL     1       1.253   9.764  18.730  0.00  0.00    +0.000 A 
ATOM     19  C   UNL     1       0.737  10.992  18.297  0.00  0.00    +0.000 A 
ATOM     20  C   UNL     1      -0.170  11.705  19.088  0.00  0.00    +0.000 A 
ATOM     21  C   UNL     1      -0.616  11.197  20.316  0.00  0.00    +0.000 A 
ATOM     22  C   UNL     1      -0.129   9.952  20.731  0.00  0.00    +0.000 A 
ATOM     23  C   UNL     1       0.838   9.255  19.973  0.00  0.00    +0.000 A 
ATOM     24  C   UNL     1       1.496   8.024  20.554  0.00  0.00    +0.000 C 
ENDBRANCH   1  21
TORSDOF 1
ENDMDL
