MODEL 1
REMARK VINA RESULT:      -8.0      0.000      0.000
REMARK  Name = 
REMARK  6 active torsions:
REMARK  status: ('A' for Active; 'I' for Inactive)
REMARK    1  A    between atoms: C_1  and  C_2
REMARK    2  A    between atoms: C_5  and  C_6
REMARK    3  A    between atoms: C_11  and  C_13
REMARK    4  A    between atoms: C_13  and  O_14
REMARK    5  A    between atoms: O_14  and  C_15
REMARK    6  A    between atoms: C_25  and  C_26
REMARK                            x       y       z     vdW  Elec       q    Type
REMARK                         _______ _______ _______ _____ _____    ______ ____
ROOT
ATOM      1  C   UNL     1       3.760   7.423  17.552  0.00  0.00    +0.000 A 
ATOM      2  N   UNL     1       3.741   7.597  16.244  0.00  0.00    +0.000 NA
ATOM      3  N   UNL     1       4.945   7.113  15.762  0.00  0.00    +0.000 NA
ATOM      4  C   UNL     1       5.597   6.664  16.805  0.00  0.00    +0.000 A 
ATOM      5  N   UNL     1       6.792   6.008  16.881  0.00  0.00    +0.000 N 
ATOM      6  C   UNL     1       6.876   4.663  16.618  0.00  0.00    +0.000 C 
ATOM      7  O   UNL     1       7.978   4.131  16.494  0.00  0.00    +0.000 OA
ATOM      8  O   UNL     1       4.914   6.821  17.976  0.00  0.00    +0.000 OA
ATOM      9  H   UNL     1       7.635   6.537  16.699  0.00  0.00    +0.000 HD
ENDROOT
BRANCH   1  14
ATOM     10  C   UNL     1      -0.235   8.787  21.534  0.00  0.00    +0.000 C 
ATOM     11  C   UNL     1       0.806   8.449  20.493  0.00  0.00    +0.000 A 
ATOM     12  C   UNL     1       1.605   7.318  20.659  0.00  0.00    +0.000 A 
ATOM     13  C   UNL     1       2.569   6.971  19.707  0.00  0.00    +0.000 A 
ATOM     14  C   UNL     1       2.763   7.758  18.566  0.00  0.00    +0.000 A 
ATOM     15  C   UNL     1       1.966   8.906  18.409  0.00  0.00    +0.000 A 
ATOM     16  C   UNL     1       0.987   9.264  19.358  0.00  0.00    +0.000 A 
ATOM     17  C   UNL     1       0.159  10.501  19.137  0.00  0.00    +0.000 C 
ENDBRANCH   1  14
BRANCH   6  18
ATOM     18  C   UNL     1       5.571   3.853  16.531  0.00  0.00    +0.000 C 
BRANCH  18  19
ATOM     19  O   UNL     1       5.266   3.346  17.823  0.00  0.00    +0.000 OA
BRANCH  19  20
ATOM     20  C   UNL     1       3.974   3.473  18.250  0.00  0.00    +0.000 A 
ATOM     21  C   UNL     1       2.880   3.838  17.462  0.00  0.00    +0.000 A 
ATOM     22  C   UNL     1       1.601   3.921  18.024  0.00  0.00    +0.000 A 
ATOM     23  C   UNL     1       1.420   3.640  19.378  0.00  0.00    +0.000 A 
ATOM     24  F   UNL     1       0.186   3.720  19.889  0.00  0.00    +0.000 F 
ATOM     25  C   UNL     1       2.505   3.281  20.169  0.00  0.00    +0.000 A 
ATOM     26 CL   UNL     1       2.289   2.920  21.839  0.00  0.00    +0.000 Cl
ATOM     27  C   UNL     1       3.782   3.197  19.610  0.00  0.00    +0.000 A 
ENDBRANCH  19  20
ENDBRANCH  18  19
ENDBRANCH   6  18
TORSDOF 4
ENDMDL
MODEL 2
REMARK VINA RESULT:      -7.8      0.708      1.410
REMARK  Name = 
REMARK  6 active torsions:
REMARK  status: ('A' for Active; 'I' for Inactive)
REMARK    1  A    between atoms: C_1  and  C_2
REMARK    2  A    between atoms: C_5  and  C_6
REMARK    3  A    between atoms: C_11  and  C_13
REMARK    4  A    between atoms: C_13  and  O_14
REMARK    5  A    between atoms: O_14  and  C_15
REMARK    6  A    between atoms: C_25  and  C_26
REMARK                            x       y       z     vdW  Elec       q    Type
REMARK                         _______ _______ _______ _____ _____    ______ ____
ROOT
ATOM      1  C   UNL     1       4.040   7.504  17.191  0.00  0.00    +0.000 A 
ATOM      2  N   UNL     1       4.130   7.343  15.884  0.00  0.00    +0.000 NA
ATOM      3  N   UNL     1       5.371   6.781  15.638  0.00  0.00    +0.000 NA
ATOM      4  C   UNL     1       5.935   6.624  16.809  0.00  0.00    +0.000 A 
ATOM      5  N   UNL     1       7.121   6.036  17.143  0.00  0.00    +0.000 N 
ATOM      6  C   UNL     1       7.229   4.671  17.235  0.00  0.00    +0.000 C 
ATOM      7  O   UNL     1       8.339   4.150  17.338  0.00  0.00    +0.000 OA
ATOM      8  O   UNL     1       5.157   7.054  17.844  0.00  0.00    +0.000 OA
ATOM      9  H   UNL     1       7.974   6.522  16.902  0.00  0.00    +0.000 HD
ENDROOT
BRANCH   1  14
ATOM     10  C   UNL     1      -0.219   9.677  20.481  0.00  0.00    +0.000 C 
ATOM     11  C   UNL     1       0.887   9.095  19.631  0.00  0.00    +0.000 A 
ATOM     12  C   UNL     1       1.254   9.733  18.447  0.00  0.00    +0.000 A 
ATOM     13  C   UNL     1       2.282   9.227  17.644  0.00  0.00    +0.000 A 
ATOM     14  C   UNL     1       2.962   8.059  18.006  0.00  0.00    +0.000 A 
ATOM     15  C   UNL     1       2.579   7.410  19.193  0.00  0.00    +0.000 A 
ATOM     16  C   UNL     1       1.549   7.912  20.014  0.00  0.00    +0.000 A 
ATOM     17  C   UNL     1       1.184   7.179  21.277  0.00  0.00    +0.000 C 
ENDBRANCH   1  14
BRANCH   6  18
ATOM     18  C   UNL     1       5.938   3.834  17.252  0.00  0.00    +0.000 C 
BRANCH  18  19
ATOM     19  O   UNL     1       5.438   3.800  18.582  0.00  0.00    +0.000 OA
BRANCH  19  20
ATOM     20  C   UNL     1       4.081   3.749  18.733  0.00  0.00    +0.000 A 
ATOM     21  C   UNL     1       3.132   4.041  17.750  0.00  0.00    +0.000 A 
ATOM     22  C   UNL     1       1.767   3.938  18.035  0.00  0.00    +0.000 A 
ATOM     23  C   UNL     1       1.351   3.545  19.306  0.00  0.00    +0.000 A 
ATOM     24  F   UNL     1       0.039   3.447  19.551  0.00  0.00    +0.000 F 
ATOM     25  C   UNL     1       2.289   3.257  20.291  0.00  0.00    +0.000 A 
ATOM     26 CL   UNL     1       1.787   2.757  21.860  0.00  0.00    +0.000 Cl
ATOM     27  C   UNL     1       3.653   3.358  20.009  0.00  0.00    +0.000 A 
ENDBRANCH  19  20
ENDBRANCH  18  19
ENDBRANCH   6  18
TORSDOF 4
ENDMDL
MODEL 3
REMARK VINA RESULT:      -7.8      3.408      6.598
REMARK  Name = 
REMARK  6 active torsions:
REMARK  status: ('A' for Active; 'I' for Inactive)
REMARK    1  A    between atoms: C_1  and  C_2
REMARK    2  A    between atoms: C_5  and  C_6
REMARK    3  A    between atoms: C_11  and  C_13
REMARK    4  A    between atoms: C_13  and  O_14
REMARK    5  A    between atoms: O_14  and  C_15
REMARK    6  A    between atoms: C_25  and  C_26
REMARK                            x       y       z     vdW  Elec       q    Type
REMARK                         _______ _______ _______ _____ _____    ______ ____
ROOT
ATOM      1  C   UNL     1       3.916   3.153  17.320  0.00  0.00    +0.000 A 
ATOM      2  N   UNL     1       2.783   2.546  17.024  0.00  0.00    +0.000 NA
ATOM      3  N   UNL     1       2.234   2.124  18.222  0.00  0.00    +0.000 NA
ATOM      4  C   UNL     1       3.060   2.521  19.157  0.00  0.00    +0.000 A 
ATOM      5  N   UNL     1       2.955   2.442  20.516  0.00  0.00    +0.000 N 
ATOM      6  C   UNL     1       2.192   3.343  21.217  0.00  0.00    +0.000 C 
ATOM      7  O   UNL     1       1.946   3.143  22.406  0.00  0.00    +0.000 OA
ATOM      8  O   UNL     1       4.149   3.182  18.669  0.00  0.00    +0.000 OA
ATOM      9  H   UNL     1       3.053   1.533  20.947  0.00  0.00    +0.000 HD
ENDROOT
BRANCH   1  14
ATOM     10  C   UNL     1       7.824   5.631  13.817  0.00  0.00    +0.000 C 
ATOM     11  C   UNL     1       6.806   4.972  14.718  0.00  0.00    +0.000 A 
ATOM     12  C   UNL     1       6.742   5.332  16.064  0.00  0.00    +0.000 A 
ATOM     13  C   UNL     1       5.803   4.749  16.923  0.00  0.00    +0.000 A 
ATOM     14  C   UNL     1       4.910   3.781  16.452  0.00  0.00    +0.000 A 
ATOM     15  C   UNL     1       4.988   3.409  15.097  0.00  0.00    +0.000 A 
ATOM     16  C   UNL     1       5.925   3.992  14.221  0.00  0.00    +0.000 A 
ATOM     17  C   UNL     1       5.960   3.561  12.779  0.00  0.00    +0.000 C 
ENDBRANCH   1  14
BRANCH   6  18
ATOM     18  C   UNL     1       1.706   4.610  20.492  0.00  0.00    +0.000 C 
BRANCH  18  19
ATOM     19  O   UNL     1       2.793   5.521  20.394  0.00  0.00    +0.000 OA
BRANCH  19  20
ATOM     20  C   UNL     1       2.614   6.615  19.595  0.00  0.00    +0.000 A 
ATOM     21  C   UNL     1       3.124   6.783  18.305  0.00  0.00    +0.000 A 
ATOM     22  C   UNL     1       2.857   7.954  17.588  0.00  0.00    +0.000 A 
ATOM     23  C   UNL     1       2.081   8.958  18.164  0.00  0.00    +0.000 A 
ATOM     24  F   UNL     1       1.834  10.065  17.454  0.00  0.00    +0.000 F 
ATOM     25  C   UNL     1       1.574   8.800  19.449  0.00  0.00    +0.000 A 
ATOM     26 CL   UNL     1       0.603  10.029  20.165  0.00  0.00    +0.000 Cl
ATOM     27  C   UNL     1       1.839   7.632  20.166  0.00  0.00    +0.000 A 
ENDBRANCH  19  20
ENDBRANCH  18  19
ENDBRANCH   6  18
TORSDOF 4
ENDMDL
MODEL 4
REMARK VINA RESULT:      -7.6      1.487      2.093
REMARK  Name = 
REMARK  6 active torsions:
REMARK  status: ('A' for Active; 'I' for Inactive)
REMARK    1  A    between atoms: C_1  and  C_2
REMARK    2  A    between atoms: C_5  and  C_6
REMARK    3  A    between atoms: C_11  and  C_13
REMARK    4  A    between atoms: C_13  and  O_14
REMARK    5  A    between atoms: O_14  and  C_15
REMARK    6  A    between atoms: C_25  and  C_26
REMARK                            x       y       z     vdW  Elec       q    Type
REMARK                         _______ _______ _______ _____ _____    ______ ____
ROOT
ATOM      1  C   UNL     1       2.645   7.347  18.130  0.00  0.00    +0.000 A 
ATOM      2  N   UNL     1       2.225   6.179  17.681  0.00  0.00    +0.000 NA
ATOM      3  N   UNL     1       3.324   5.550  17.122  0.00  0.00    +0.000 NA
ATOM      4  C   UNL     1       4.332   6.369  17.290  0.00  0.00    +0.000 A 
ATOM      5  N   UNL     1       5.656   6.204  17.004  0.00  0.00    +0.000 N 
ATOM      6  C   UNL     1       6.476   5.492  17.846  0.00  0.00    +0.000 C 
ATOM      7  O   UNL     1       7.609   5.184  17.480  0.00  0.00    +0.000 OA
ATOM      8  O   UNL     1       3.986   7.527  17.922  0.00  0.00    +0.000 OA
ATOM      9  H   UNL     1       5.936   6.209  16.033  0.00  0.00    +0.000 HD
ENDROOT
BRANCH   1  14
ATOM     10  C   UNL     1      -0.225  11.598  20.845  0.00  0.00    +0.000 C 
ATOM     11  C   UNL     1       0.516  10.480  20.150  0.00  0.00    +0.000 A 
ATOM     12  C   UNL     1       0.819  10.593  18.794  0.00  0.00    +0.000 A 
ATOM     13  C   UNL     1       1.515   9.581  18.124  0.00  0.00    +0.000 A 
ATOM     14  C   UNL     1       1.916   8.422  18.798  0.00  0.00    +0.000 A 
ATOM     15  C   UNL     1       1.595   8.305  20.163  0.00  0.00    +0.000 A 
ATOM     16  C   UNL     1       0.900   9.319  20.851  0.00  0.00    +0.000 A 
ATOM     17  C   UNL     1       0.588   9.143  22.313  0.00  0.00    +0.000 C 
ENDBRANCH   1  14
BRANCH   6  18
ATOM     18  C   UNL     1       5.954   5.142  19.250  0.00  0.00    +0.000 C 
BRANCH  18  19
ATOM     19  O   UNL     1       5.767   3.735  19.325  0.00  0.00    +0.000 OA
BRANCH  19  20
ATOM     20  C   UNL     1       4.511   3.261  19.067  0.00  0.00    +0.000 A 
ATOM     21  C   UNL     1       4.154   2.406  18.022  0.00  0.00    +0.000 A 
ATOM     22  C   UNL     1       2.827   1.986  17.877  0.00  0.00    +0.000 A 
ATOM     23  C   UNL     1       1.859   2.425  18.778  0.00  0.00    +0.000 A 
ATOM     24  F   UNL     1       0.598   2.003  18.621  0.00  0.00    +0.000 F 
ATOM     25  C   UNL     1       2.206   3.279  19.818  0.00  0.00    +0.000 A 
ATOM     26 CL   UNL     1       1.020   3.817  20.944  0.00  0.00    +0.000 Cl
ATOM     27  C   UNL     1       3.530   3.700  19.965  0.00  0.00    +0.000 A 
ENDBRANCH  19  20
ENDBRANCH  18  19
ENDBRANCH   6  18
TORSDOF 4
ENDMDL
MODEL 5
REMARK VINA RESULT:      -7.6      3.417      6.447
REMARK  Name = 
REMARK  6 active torsions:
REMARK  status: ('A' for Active; 'I' for Inactive)
REMARK    1  A    between atoms: C_1  and  C_2
REMARK    2  A    between atoms: C_5  and  C_6
REMARK    3  A    between atoms: C_11  and  C_13
REMARK    4  A    between atoms: C_13  and  O_14
REMARK    5  A    between atoms: O_14  and  C_15
REMARK    6  A    between atoms: C_25  and  C_26
REMARK                            x       y       z     vdW  Elec       q    Type
REMARK                         _______ _______ _______ _____ _____    ______ ____
ROOT
ATOM      1  C   UNL     1       3.693   3.094  17.471  0.00  0.00    +0.000 A 
ATOM      2  N   UNL     1       2.582   2.481  17.109  0.00  0.00    +0.000 NA
ATOM      3  N   UNL     1       1.982   2.029  18.271  0.00  0.00    +0.000 NA
ATOM      4  C   UNL     1       2.758   2.415  19.252  0.00  0.00    +0.000 A 
ATOM      5  N   UNL     1       2.589   2.307  20.602  0.00  0.00    +0.000 N 
ATOM      6  C   UNL     1       1.784   3.185  21.285  0.00  0.00    +0.000 C 
ATOM      7  O   UNL     1       1.483   2.957  22.456  0.00  0.00    +0.000 OA
ATOM      8  O   UNL     1       3.861   3.098  18.830  0.00  0.00    +0.000 OA
ATOM      9  H   UNL     1       2.677   1.390  21.019  0.00  0.00    +0.000 HD
ENDROOT
BRANCH   1  14
ATOM     10  C   UNL     1       7.802   5.720  14.324  0.00  0.00    +0.000 C 
ATOM     11  C   UNL     1       6.731   5.050  15.154  0.00  0.00    +0.000 A 
ATOM     12  C   UNL     1       5.953   4.040  14.589  0.00  0.00    +0.000 A 
ATOM     13  C   UNL     1       4.962   3.392  15.334  0.00  0.00    +0.000 A 
ATOM     14  C   UNL     1       4.720   3.750  16.665  0.00  0.00    +0.000 A 
ATOM     15  C   UNL     1       5.497   4.780  17.226  0.00  0.00    +0.000 A 
ATOM     16  C   UNL     1       6.502   5.437  16.489  0.00  0.00    +0.000 A 
ATOM     17  C   UNL     1       7.306   6.528  17.142  0.00  0.00    +0.000 C 
ENDBRANCH   1  14
BRANCH   6  18
ATOM     18  C   UNL     1       1.318   4.461  20.563  0.00  0.00    +0.000 C 
BRANCH  18  19
ATOM     19  O   UNL     1       2.293   5.476  20.762  0.00  0.00    +0.000 OA
BRANCH  19  20
ATOM     20  C   UNL     1       2.279   6.529  19.891  0.00  0.00    +0.000 A 
ATOM     21  C   UNL     1       2.832   6.542  18.608  0.00  0.00    +0.000 A 
ATOM     22  C   UNL     1       2.739   7.688  17.811  0.00  0.00    +0.000 A 
ATOM     23  C   UNL     1       2.093   8.822  18.302  0.00  0.00    +0.000 A 
ATOM     24  F   UNL     1       2.011   9.903  17.517  0.00  0.00    +0.000 F 
ATOM     25  C   UNL     1       1.544   8.818  19.579  0.00  0.00    +0.000 A 
ATOM     26 CL   UNL     1       0.733  10.209  20.188  0.00  0.00    +0.000 Cl
ATOM     27  C   UNL     1       1.636   7.675  20.375  0.00  0.00    +0.000 A 
ENDBRANCH  19  20
ENDBRANCH  18  19
ENDBRANCH   6  18
TORSDOF 4
ENDMDL
MODEL 6
REMARK VINA RESULT:      -7.5      1.557      1.842
REMARK  Name = 
REMARK  6 active torsions:
REMARK  status: ('A' for Active; 'I' for Inactive)
REMARK    1  A    between atoms: C_1  and  C_2
REMARK    2  A    between atoms: C_5  and  C_6
REMARK    3  A    between atoms: C_11  and  C_13
REMARK    4  A    between atoms: C_13  and  O_14
REMARK    5  A    between atoms: O_14  and  C_15
REMARK    6  A    between atoms: C_25  and  C_26
REMARK                            x       y       z     vdW  Elec       q    Type
REMARK                         _______ _______ _______ _____ _____    ______ ____
ROOT
ATOM      1  C   UNL     1       2.382   7.342  18.682  0.00  0.00    +0.000 A 
ATOM      2  N   UNL     1       1.958   6.230  18.113  0.00  0.00    +0.000 NA
ATOM      3  N   UNL     1       3.031   5.712  17.408  0.00  0.00    +0.000 NA
ATOM      4  C   UNL     1       4.029   6.533  17.615  0.00  0.00    +0.000 A 
ATOM      5  N   UNL     1       5.334   6.447  17.224  0.00  0.00    +0.000 N 
ATOM      6  C   UNL     1       6.225   5.659  17.911  0.00  0.00    +0.000 C 
ATOM      7  O   UNL     1       7.337   5.435  17.435  0.00  0.00    +0.000 OA
ATOM      8  O   UNL     1       3.702   7.590  18.413  0.00  0.00    +0.000 OA
ATOM      9  H   UNL     1       5.546   6.585  16.245  0.00  0.00    +0.000 HD
ENDROOT
BRANCH   1  14
ATOM     10  C   UNL     1      -0.448  11.175  21.997  0.00  0.00    +0.000 C 
ATOM     11  C   UNL     1       0.293  10.190  21.123  0.00  0.00    +0.000 A 
ATOM     12  C   UNL     1       0.767   9.000  21.675  0.00  0.00    +0.000 A 
ATOM     13  C   UNL     1       1.446   8.062  20.890  0.00  0.00    +0.000 A 
ATOM     14  C   UNL     1       1.677   8.301  19.531  0.00  0.00    +0.000 A 
ATOM     15  C   UNL     1       1.211   9.509  18.981  0.00  0.00    +0.000 A 
ATOM     16  C   UNL     1       0.521  10.460  19.759  0.00  0.00    +0.000 A 
ATOM     17  C   UNL     1       0.040  11.734  19.118  0.00  0.00    +0.000 C 
ENDBRANCH   1  14
BRANCH   6  18
ATOM     18  C   UNL     1       5.809   5.116  19.288  0.00  0.00    +0.000 C 
BRANCH  18  19
ATOM     19  O   UNL     1       5.677   3.703  19.197  0.00  0.00    +0.000 OA
BRANCH  19  20
ATOM     20  C   UNL     1       4.421   3.211  18.976  0.00  0.00    +0.000 A 
ATOM     21  C   UNL     1       3.970   2.606  17.800  0.00  0.00    +0.000 A 
ATOM     22  C   UNL     1       2.657   2.134  17.709  0.00  0.00    +0.000 A 
ATOM     23  C   UNL     1       1.794   2.269  18.796  0.00  0.00    +0.000 A 
ATOM     24  F   UNL     1       0.545   1.802  18.685  0.00  0.00    +0.000 F 
ATOM     25  C   UNL     1       2.234   2.873  19.968  0.00  0.00    +0.000 A 
ATOM     26 CL   UNL     1       1.181   3.032  21.321  0.00  0.00    +0.000 Cl
ATOM     27  C   UNL     1       3.545   3.345  20.061  0.00  0.00    +0.000 A 
ENDBRANCH  19  20
ENDBRANCH  18  19
ENDBRANCH   6  18
TORSDOF 4
ENDMDL
MODEL 7
REMARK VINA RESULT:      -7.5      4.247      5.517
REMARK  Name = 
REMARK  6 active torsions:
REMARK  status: ('A' for Active; 'I' for Inactive)
REMARK    1  A    between atoms: C_1  and  C_2
REMARK    2  A    between atoms: C_5  and  C_6
REMARK    3  A    between atoms: C_11  and  C_13
REMARK    4  A    between atoms: C_13  and  O_14
REMARK    5  A    between atoms: O_14  and  C_15
REMARK    6  A    between atoms: C_25  and  C_26
REMARK                            x       y       z     vdW  Elec       q    Type
REMARK                         _______ _______ _______ _____ _____    ______ ____
ROOT
ATOM      1  C   UNL     1       8.342   8.540  18.115  0.00  0.00    +0.000 A 
ATOM      2  N   UNL     1       7.879   8.306  16.902  0.00  0.00    +0.000 NA
ATOM      3  N   UNL     1       7.501   6.975  16.872  0.00  0.00    +0.000 NA
ATOM      4  C   UNL     1       7.741   6.504  18.069  0.00  0.00    +0.000 A 
ATOM      5  N   UNL     1       7.473   5.276  18.602  0.00  0.00    +0.000 N 
ATOM      6  C   UNL     1       6.215   4.963  19.053  0.00  0.00    +0.000 C 
ATOM      7  O   UNL     1       5.940   3.799  19.342  0.00  0.00    +0.000 OA
ATOM      8  O   UNL     1       8.272   7.432  18.917  0.00  0.00    +0.000 OA
ATOM      9  H   UNL     1       8.026   4.491  18.285  0.00  0.00    +0.000 HD
ENDROOT
BRANCH   1  14
ATOM     10  C   UNL     1      10.478  13.432  20.393  0.00  0.00    +0.000 C 
ATOM     11  C   UNL     1       9.931  12.162  19.785  0.00  0.00    +0.000 A 
ATOM     12  C   UNL     1       9.529  11.117  20.617  0.00  0.00    +0.000 A 
ATOM     13  C   UNL     1       9.007   9.932  20.087  0.00  0.00    +0.000 A 
ATOM     14  C   UNL     1       8.884   9.763  18.703  0.00  0.00    +0.000 A 
ATOM     15  C   UNL     1       9.304  10.813  17.867  0.00  0.00    +0.000 A 
ATOM     16  C   UNL     1       9.826  12.013  18.388  0.00  0.00    +0.000 A 
ATOM     17  C   UNL     1      10.256  13.106  17.446  0.00  0.00    +0.000 C 
ENDBRANCH   1  14
BRANCH   6  18
ATOM     18  C   UNL     1       5.196   6.102  19.224  0.00  0.00    +0.000 C 
BRANCH  18  19
ATOM     19  O   UNL     1       4.252   6.029  18.164  0.00  0.00    +0.000 OA
BRANCH  19  20
ATOM     20  C   UNL     1       3.399   4.961  18.164  0.00  0.00    +0.000 A 
ATOM     21  C   UNL     1       3.218   4.053  17.118  0.00  0.00    +0.000 A 
ATOM     22  C   UNL     1       2.316   2.993  17.253  0.00  0.00    +0.000 A 
ATOM     23  C   UNL     1       1.594   2.843  18.435  0.00  0.00    +0.000 A 
ATOM     24  F   UNL     1       0.742   1.816  18.541  0.00  0.00    +0.000 F 
ATOM     25  C   UNL     1       1.765   3.745  19.479  0.00  0.00    +0.000 A 
ATOM     26 CL   UNL     1       0.887   3.562  20.949  0.00  0.00    +0.000 Cl
ATOM     27  C   UNL     1       2.665   4.805  19.346  0.00  0.00    +0.000 A 
ENDBRANCH  19  20
ENDBRANCH  18  19
ENDBRANCH   6  18
TORSDOF 4
ENDMDL
MODEL 8
REMARK VINA RESULT:      -7.5      1.305      2.016
REMARK  Name = 
REMARK  6 active torsions:
REMARK  status: ('A' for Active; 'I' for Inactive)
REMARK    1  A    between atoms: C_1  and  C_2
REMARK    2  A    between atoms: C_5  and  C_6
REMARK    3  A    between atoms: C_11  and  C_13
REMARK    4  A    between atoms: C_13  and  O_14
REMARK    5  A    between atoms: O_14  and  C_15
REMARK    6  A    between atoms: C_25  and  C_26
REMARK                            x       y       z     vdW  Elec       q    Type
REMARK                         _______ _______ _______ _____ _____    ______ ____
ROOT
ATOM      1  C   UNL     1       4.096   7.455  17.230  0.00  0.00    +0.000 A 
ATOM      2  N   UNL     1       4.210   7.182  15.944  0.00  0.00    +0.000 NA
ATOM      3  N   UNL     1       5.459   6.613  15.768  0.00  0.00    +0.000 NA
ATOM      4  C   UNL     1       6.004   6.564  16.958  0.00  0.00    +0.000 A 
ATOM      5  N   UNL     1       7.189   6.019  17.361  0.00  0.00    +0.000 N 
ATOM      6  C   UNL     1       7.307   4.667  17.574  0.00  0.00    +0.000 C 
ATOM      7  O   UNL     1       8.419   4.169  17.740  0.00  0.00    +0.000 OA
ATOM      8  O   UNL     1       5.204   7.074  17.939  0.00  0.00    +0.000 OA
ATOM      9  H   UNL     1       8.042   6.489  17.093  0.00  0.00    +0.000 HD
ENDROOT
BRANCH   1  14
ATOM     10  C   UNL     1      -0.238   9.863  20.247  0.00  0.00    +0.000 C 
ATOM     11  C   UNL     1       0.887   9.221  19.469  0.00  0.00    +0.000 A 
ATOM     12  C   UNL     1       1.276   9.764  18.245  0.00  0.00    +0.000 A 
ATOM     13  C   UNL     1       2.323   9.200  17.507  0.00  0.00    +0.000 A 
ATOM     14  C   UNL     1       2.999   8.068  17.975  0.00  0.00    +0.000 A 
ATOM     15  C   UNL     1       2.593   7.515  19.203  0.00  0.00    +0.000 A 
ATOM     16  C   UNL     1       1.545   8.076  19.959  0.00  0.00    +0.000 A 
ATOM     17  C   UNL     1       1.156   7.445  21.269  0.00  0.00    +0.000 C 
ENDBRANCH   1  14
BRANCH   6  18
ATOM     18  C   UNL     1       6.023   3.823  17.641  0.00  0.00    +0.000 C 
BRANCH  18  19
ATOM     19  O   UNL     1       5.681   3.627  19.007  0.00  0.00    +0.000 OA
BRANCH  19  20
ATOM     20  C   UNL     1       4.357   3.446  19.296  0.00  0.00    +0.000 A 
ATOM     21  C   UNL     1       3.843   2.769  20.404  0.00  0.00    +0.000 A 
ATOM     22  C   UNL     1       2.460   2.663  20.587  0.00  0.00    +0.000 A 
ATOM     23  C   UNL     1       1.593   3.235  19.658  0.00  0.00    +0.000 A 
ATOM     24  F   UNL     1       0.274   3.126  19.860  0.00  0.00    +0.000 F 
ATOM     25  C   UNL     1       2.097   3.906  18.550  0.00  0.00    +0.000 A 
ATOM     26 CL   UNL     1       1.034   4.627  17.404  0.00  0.00    +0.000 Cl
ATOM     27  C   UNL     1       3.477   4.013  18.366  0.00  0.00    +0.000 A 
ENDBRANCH  19  20
ENDBRANCH  18  19
ENDBRANCH   6  18
TORSDOF 4
ENDMDL
MODEL 9
REMARK VINA RESULT:      -7.4      1.135      1.473
REMARK  Name = 
REMARK  6 active torsions:
REMARK  status: ('A' for Active; 'I' for Inactive)
REMARK    1  A    between atoms: C_1  and  C_2
REMARK    2  A    between atoms: C_5  and  C_6
REMARK    3  A    between atoms: C_11  and  C_13
REMARK    4  A    between atoms: C_13  and  O_14
REMARK    5  A    between atoms: O_14  and  C_15
REMARK    6  A    between atoms: C_25  and  C_26
REMARK                            x       y       z     vdW  Elec       q    Type
REMARK                         _______ _______ _______ _____ _____    ______ ____
ROOT
ATOM      1  C   UNL     1       3.892   7.398  17.474  0.00  0.00    +0.000 A 
ATOM      2  N   UNL     1       3.884   7.268  16.161  0.00  0.00    +0.000 NA
ATOM      3  N   UNL     1       5.123   6.764  15.805  0.00  0.00    +0.000 NA
ATOM      4  C   UNL     1       5.784   6.606  16.923  0.00  0.00    +0.000 A 
ATOM      5  N   UNL     1       7.015   6.063  17.149  0.00  0.00    +0.000 N 
ATOM      6  C   UNL     1       7.186   4.701  17.200  0.00  0.00    +0.000 C 
ATOM      7  O   UNL     1       8.321   4.226  17.203  0.00  0.00    +0.000 OA
ATOM      8  O   UNL     1       5.074   6.982  18.027  0.00  0.00    +0.000 OA
ATOM      9  H   UNL     1       7.827   6.588  16.853  0.00  0.00    +0.000 HD
ENDROOT
BRANCH   1  14
ATOM     10  C   UNL     1      -0.236   9.388  21.036  0.00  0.00    +0.000 C 
ATOM     11  C   UNL     1       0.841   8.886  20.102  0.00  0.00    +0.000 A 
ATOM     12  C   UNL     1       1.563   7.740  20.435  0.00  0.00    +0.000 A 
ATOM     13  C   UNL     1       2.558   7.242  19.586  0.00  0.00    +0.000 A 
ATOM     14  C   UNL     1       2.860   7.891  18.384  0.00  0.00    +0.000 A 
ATOM     15  C   UNL     1       2.141   9.055  18.059  0.00  0.00    +0.000 A 
ATOM     16  C   UNL     1       1.133   9.563  18.902  0.00  0.00    +0.000 A 
ATOM     17  C   UNL     1       0.391  10.810  18.501  0.00  0.00    +0.000 C 
ENDBRANCH   1  14
BRANCH   6  18
ATOM     18  C   UNL     1       5.935   3.811  17.298  0.00  0.00    +0.000 C 
BRANCH  18  19
ATOM     19  O   UNL     1       5.704   3.505  18.667  0.00  0.00    +0.000 OA
BRANCH  19  20
ATOM     20  C   UNL     1       4.402   3.370  19.061  0.00  0.00    +0.000 A 
ATOM     21  C   UNL     1       3.958   2.766  20.240  0.00  0.00    +0.000 A 
ATOM     22  C   UNL     1       2.591   2.703  20.529  0.00  0.00    +0.000 A 
ATOM     23  C   UNL     1       1.668   3.244  19.635  0.00  0.00    +0.000 A 
ATOM     24  F   UNL     1       0.366   3.177  19.938  0.00  0.00    +0.000 F 
ATOM     25  C   UNL     1       2.102   3.842  18.458  0.00  0.00    +0.000 A 
ATOM     26 CL   UNL     1       0.971   4.525  17.353  0.00  0.00    +0.000 Cl
ATOM     27  C   UNL     1       3.466   3.907  18.167  0.00  0.00    +0.000 A 
ENDBRANCH  19  20
ENDBRANCH  18  19
ENDBRANCH   6  18
TORSDOF 4
ENDMDL
