MODEL 1
REMARK VINA RESULT:      -7.7      0.000      0.000
REMARK  Name = 
REMARK  6 active torsions:
REMARK  status: ('A' for Active; 'I' for Inactive)
REMARK    1  A    between atoms: C_2  and  C_3
REMARK    2  A    between atoms: C_9  and  C_10
REMARK    3  A    between atoms: C_10  and  O_11
REMARK    4  A    between atoms: C_10  and  C_12
REMARK    5  A    between atoms: C_19  and  O_20
REMARK    6  A    between atoms: O_20  and  C_21
REMARK                            x       y       z     vdW  Elec       q    Type
REMARK                         _______ _______ _______ _____ _____    ______ ____
ROOT
ATOM      1  C   UNL     1       3.065   4.025  17.286  0.00  0.00    +0.000 C 
ENDROOT
BRANCH   1   2
ATOM      2  C   UNL     1       2.589   4.420  18.690  0.00  0.00    +0.000 A 
ATOM      3  C   UNL     1       2.414   3.429  19.672  0.00  0.00    +0.000 A 
ATOM      4  C   UNL     1       2.012   3.788  20.944  0.00  0.00    +0.000 A 
ATOM      5  N   UNL     1       1.799   5.060  21.328  0.00  0.00    +0.000 NA
ATOM      6  C   UNL     1       1.924   6.020  20.404  0.00  0.00    +0.000 A 
ATOM      7  C   UNL     1       1.690   7.332  20.799  0.00  0.00    +0.000 A 
ATOM      8  C   UNL     1       1.766   8.405  19.906  0.00  0.00    +0.000 A 
ATOM      9  C   UNL     1       2.048   8.159  18.572  0.00  0.00    +0.000 A 
ATOM     10  C   UNL     1       2.265   6.845  18.155  0.00  0.00    +0.000 A 
ATOM     11  C   UNL     1       2.271   5.759  19.054  0.00  0.00    +0.000 A 
BRANCH   9  12
ATOM     12  O   UNL     1       2.149   9.082  17.573  0.00  0.00    +0.000 OA
ATOM     13  C   UNL     1       1.943  10.444  17.918  0.00  0.00    +0.000 C 
ENDBRANCH   9  12
ENDBRANCH   1   2
BRANCH   1  20
ATOM     14  C   UNL     1       6.164   4.642  15.155  0.00  0.00    +0.000 C 
ATOM     15  C   UNL     1       5.605   6.072  15.340  0.00  0.00    +0.000 C 
ATOM     16  C   UNL     1       5.236   6.300  16.811  0.00  0.00    +0.000 C 
ATOM     17  N   UNL     1       5.421   5.077  17.618  0.00  0.00    +0.000 NA
ATOM     18  C   UNL     1       6.863   4.730  17.576  0.00  0.00    +0.000 C 
ATOM     19  C   UNL     1       7.353   4.511  16.135  0.00  0.00    +0.000 C 
ATOM     20  C   UNL     1       4.636   3.924  17.067  0.00  0.00    +0.000 C 
ATOM     21  C   UNL     1       5.059   3.649  15.608  0.00  0.00    +0.000 C 
BRANCH  14  23
ATOM     22  C   UNL     1       6.149   3.561  12.836  0.00  0.00    +0.000 C 
ATOM     23  C   UNL     1       6.612   4.457  13.716  0.00  0.00    +0.000 C 
ENDBRANCH  14  23
ENDBRANCH   1  20
BRANCH   1  24
ATOM     24  O   UNL     1       2.408   2.802  16.915  0.00  0.00    +0.000 OA
ATOM     25  H   UNL     1       1.629   3.042  16.389  0.00  0.00    +0.000 HD
ENDBRANCH   1  24
TORSDOF 5
ENDMDL
MODEL 2
REMARK VINA RESULT:      -7.2      2.301      6.845
REMARK  Name = 
REMARK  6 active torsions:
REMARK  status: ('A' for Active; 'I' for Inactive)
REMARK    1  A    between atoms: C_2  and  C_3
REMARK    2  A    between atoms: C_9  and  C_10
REMARK    3  A    between atoms: C_10  and  O_11
REMARK    4  A    between atoms: C_10  and  C_12
REMARK    5  A    between atoms: C_19  and  O_20
REMARK    6  A    between atoms: O_20  and  C_21
REMARK                            x       y       z     vdW  Elec       q    Type
REMARK                         _______ _______ _______ _____ _____    ______ ____
ROOT
ATOM      1  C   UNL     1       4.353   3.438  16.890  0.00  0.00    +0.000 C 
ENDROOT
BRANCH   1   2
ATOM      2  C   UNL     1       5.495   4.329  16.382  0.00  0.00    +0.000 A 
ATOM      3  C   UNL     1       6.110   5.242  17.257  0.00  0.00    +0.000 A 
ATOM      4  C   UNL     1       7.157   6.023  16.808  0.00  0.00    +0.000 A 
ATOM      5  N   UNL     1       7.664   5.948  15.564  0.00  0.00    +0.000 NA
ATOM      6  C   UNL     1       7.075   5.113  14.700  0.00  0.00    +0.000 A 
ATOM      7  C   UNL     1       7.590   5.047  13.410  0.00  0.00    +0.000 A 
ATOM      8  C   UNL     1       7.031   4.228  12.425  0.00  0.00    +0.000 A 
ATOM      9  C   UNL     1       5.903   3.481  12.722  0.00  0.00    +0.000 A 
ATOM     10  C   UNL     1       5.360   3.552  14.005  0.00  0.00    +0.000 A 
ATOM     11  C   UNL     1       5.955   4.309  15.035  0.00  0.00    +0.000 A 
BRANCH   9  12
ATOM     12  O   UNL     1       5.231   2.644  11.880  0.00  0.00    +0.000 OA
ATOM     13  C   UNL     1       4.094   3.167  11.208  0.00  0.00    +0.000 C 
ENDBRANCH   9  12
ENDBRANCH   1   2
BRANCH   1  20
ATOM     14  C   UNL     1       2.290   3.867  20.065  0.00  0.00    +0.000 C 
ATOM     15  C   UNL     1       1.403   2.918  19.225  0.00  0.00    +0.000 C 
ATOM     16  C   UNL     1       2.260   1.793  18.631  0.00  0.00    +0.000 C 
ATOM     17  N   UNL     1       3.693   1.977  18.938  0.00  0.00    +0.000 NA
ATOM     18  C   UNL     1       3.844   1.912  20.413  0.00  0.00    +0.000 C 
ATOM     19  C   UNL     1       2.994   2.981  21.120  0.00  0.00    +0.000 C 
ATOM     20  C   UNL     1       4.197   3.308  18.466  0.00  0.00    +0.000 C 
ATOM     21  C   UNL     1       3.378   4.442  19.120  0.00  0.00    +0.000 C 
BRANCH  14  23
ATOM     22  C   UNL     1       1.569   6.249  20.654  0.00  0.00    +0.000 C 
ATOM     23  C   UNL     1       1.419   4.921  20.724  0.00  0.00    +0.000 C 
ENDBRANCH  14  23
ENDBRANCH   1  20
BRANCH   1  24
ATOM     24  O   UNL     1       3.130   3.883  16.280  0.00  0.00    +0.000 OA
ATOM     25  H   UNL     1       2.658   4.419  16.936  0.00  0.00    +0.000 HD
ENDBRANCH   1  24
TORSDOF 5
ENDMDL
MODEL 3
REMARK VINA RESULT:      -6.9      2.584      6.696
REMARK  Name = 
REMARK  6 active torsions:
REMARK  status: ('A' for Active; 'I' for Inactive)
REMARK    1  A    between atoms: C_2  and  C_3
REMARK    2  A    between atoms: C_9  and  C_10
REMARK    3  A    between atoms: C_10  and  O_11
REMARK    4  A    between atoms: C_10  and  C_12
REMARK    5  A    between atoms: C_19  and  O_20
REMARK    6  A    between atoms: O_20  and  C_21
REMARK                            x       y       z     vdW  Elec       q    Type
REMARK                         _______ _______ _______ _____ _____    ______ ____
ROOT
ATOM      1  C   UNL     1       3.726   5.451  17.332  0.00  0.00    +0.000 C 
ENDROOT
BRANCH   1   2
ATOM      2  C   UNL     1       5.154   5.814  16.900  0.00  0.00    +0.000 A 
ATOM      3  C   UNL     1       5.937   6.650  17.716  0.00  0.00    +0.000 A 
ATOM      4  C   UNL     1       7.232   6.955  17.343  0.00  0.00    +0.000 A 
ATOM      5  N   UNL     1       7.823   6.469  16.236  0.00  0.00    +0.000 NA
ATOM      6  C   UNL     1       7.089   5.700  15.423  0.00  0.00    +0.000 A 
ATOM      7  C   UNL     1       7.696   5.210  14.273  0.00  0.00    +0.000 A 
ATOM      8  C   UNL     1       7.010   4.422  13.345  0.00  0.00    +0.000 A 
ATOM      9  C   UNL     1       5.669   4.142  13.551  0.00  0.00    +0.000 A 
ATOM     10  C   UNL     1       5.038   4.644  14.690  0.00  0.00    +0.000 A 
ATOM     11  C   UNL     1       5.732   5.373  15.677  0.00  0.00    +0.000 A 
BRANCH   9  12
ATOM     12  O   UNL     1       4.854   3.402  12.745  0.00  0.00    +0.000 OA
ATOM     13  C   UNL     1       5.472   2.587  11.761  0.00  0.00    +0.000 C 
ENDBRANCH   9  12
ENDBRANCH   1   2
BRANCH   1  20
ATOM     14  C   UNL     1       2.347   3.081  19.978  0.00  0.00    +0.000 C 
ATOM     15  C   UNL     1       1.073   3.818  19.504  0.00  0.00    +0.000 C 
ATOM     16  C   UNL     1       1.042   3.869  17.971  0.00  0.00    +0.000 C 
ATOM     17  N   UNL     1       2.268   3.298  17.379  0.00  0.00    +0.000 NA
ATOM     18  C   UNL     1       2.324   1.866  17.769  0.00  0.00    +0.000 C 
ATOM     19  C   UNL     1       2.325   1.693  19.296  0.00  0.00    +0.000 C 
ATOM     20  C   UNL     1       3.502   3.980  17.889  0.00  0.00    +0.000 C 
ATOM     21  C   UNL     1       3.569   3.865  19.427  0.00  0.00    +0.000 C 
BRANCH  14  23
ATOM     22  C   UNL     1       1.328   2.469  22.243  0.00  0.00    +0.000 C 
ATOM     23  C   UNL     1       2.323   2.953  21.491  0.00  0.00    +0.000 C 
ENDBRANCH  14  23
ENDBRANCH   1  20
BRANCH   1  24
ATOM     24  O   UNL     1       3.275   6.439  18.272  0.00  0.00    +0.000 OA
ATOM     25  H   UNL     1       2.359   6.218  18.505  0.00  0.00    +0.000 HD
ENDBRANCH   1  24
TORSDOF 5
ENDMDL
MODEL 4
REMARK VINA RESULT:      -6.6      6.221      9.231
REMARK  Name = 
REMARK  6 active torsions:
REMARK  status: ('A' for Active; 'I' for Inactive)
REMARK    1  A    between atoms: C_2  and  C_3
REMARK    2  A    between atoms: C_9  and  C_10
REMARK    3  A    between atoms: C_10  and  O_11
REMARK    4  A    between atoms: C_10  and  C_12
REMARK    5  A    between atoms: C_19  and  O_20
REMARK    6  A    between atoms: O_20  and  C_21
REMARK                            x       y       z     vdW  Elec       q    Type
REMARK                         _______ _______ _______ _____ _____    ______ ____
ROOT
ATOM      1  C   UNL     1      -2.103  12.003  18.447  0.00  0.00    +0.000 C 
ENDROOT
BRANCH   1   2
ATOM      2  C   UNL     1      -3.630  11.920  18.575  0.00  0.00    +0.000 A 
ATOM      3  C   UNL     1      -4.402  11.519  17.470  0.00  0.00    +0.000 A 
ATOM      4  C   UNL     1      -5.774  11.417  17.594  0.00  0.00    +0.000 A 
ATOM      5  N   UNL     1      -6.440  11.653  18.739  0.00  0.00    +0.000 NA
ATOM      6  C   UNL     1      -5.734  12.070  19.796  0.00  0.00    +0.000 A 
ATOM      7  C   UNL     1      -6.424  12.327  20.975  0.00  0.00    +0.000 A 
ATOM      8  C   UNL     1      -5.786  12.792  22.128  0.00  0.00    +0.000 A 
ATOM      9  C   UNL     1      -4.424  13.045  22.095  0.00  0.00    +0.000 A 
ATOM     10  C   UNL     1      -3.719  12.813  20.913  0.00  0.00    +0.000 A 
ATOM     11  C   UNL     1      -4.330  12.268  19.765  0.00  0.00    +0.000 A 
BRANCH   9  12
ATOM     12  O   UNL     1      -3.652  13.508  23.120  0.00  0.00    +0.000 OA
ATOM     13  C   UNL     1      -4.022  13.133  24.438  0.00  0.00    +0.000 C 
ENDBRANCH   9  12
ENDBRANCH   1   2
BRANCH   1  20
ATOM     14  C   UNL     1       1.034   9.849  18.658  0.00  0.00    +0.000 C 
ATOM     15  C   UNL     1       1.607  11.276  18.817  0.00  0.00    +0.000 C 
ATOM     16  C   UNL     1       0.763  12.067  19.825  0.00  0.00    +0.000 C 
ATOM     17  N   UNL     1      -0.407  11.292  20.286  0.00  0.00    +0.000 NA
ATOM     18  C   UNL     1       0.105  10.090  20.990  0.00  0.00    +0.000 C 
ATOM     19  C   UNL     1       1.000   9.235  20.077  0.00  0.00    +0.000 C 
ATOM     20  C   UNL     1      -1.265  10.845  19.140  0.00  0.00    +0.000 C 
ATOM     21  C   UNL     1      -0.431   9.989  18.162  0.00  0.00    +0.000 C 
BRANCH  14  23
ATOM     22  C   UNL     1       2.547   7.892  18.007  0.00  0.00    +0.000 C 
ATOM     23  C   UNL     1       1.928   9.046  17.731  0.00  0.00    +0.000 C 
ENDBRANCH  14  23
ENDBRANCH   1  20
BRANCH   1  24
ATOM     24  O   UNL     1      -1.774  12.121  17.053  0.00  0.00    +0.000 OA
ATOM     25  H   UNL     1      -2.297  11.458  16.576  0.00  0.00    +0.000 HD
ENDBRANCH   1  24
TORSDOF 5
ENDMDL
MODEL 5
REMARK VINA RESULT:      -6.5      1.237      2.208
REMARK  Name = 
REMARK  6 active torsions:
REMARK  status: ('A' for Active; 'I' for Inactive)
REMARK    1  A    between atoms: C_2  and  C_3
REMARK    2  A    between atoms: C_9  and  C_10
REMARK    3  A    between atoms: C_10  and  O_11
REMARK    4  A    between atoms: C_10  and  C_12
REMARK    5  A    between atoms: C_19  and  O_20
REMARK    6  A    between atoms: O_20  and  C_21
REMARK                            x       y       z     vdW  Elec       q    Type
REMARK                         _______ _______ _______ _____ _____    ______ ____
ROOT
ATOM      1  C   UNL     1       2.980   4.396  16.991  0.00  0.00    +0.000 C 
ENDROOT
BRANCH   1   2
ATOM      2  C   UNL     1       2.609   4.728  18.443  0.00  0.00    +0.000 A 
ATOM      3  C   UNL     1       2.546   3.699  19.399  0.00  0.00    +0.000 A 
ATOM      4  C   UNL     1       2.241   4.000  20.712  0.00  0.00    +0.000 A 
ATOM      5  N   UNL     1       2.023   5.250  21.159  0.00  0.00    +0.000 NA
ATOM      6  C   UNL     1       2.041   6.245  20.264  0.00  0.00    +0.000 A 
ATOM      7  C   UNL     1       1.801   7.534  20.724  0.00  0.00    +0.000 A 
ATOM      8  C   UNL     1       1.771   8.639  19.868  0.00  0.00    +0.000 A 
ATOM      9  C   UNL     1       1.950   8.448  18.508  0.00  0.00    +0.000 A 
ATOM     10  C   UNL     1       2.170   7.157  18.026  0.00  0.00    +0.000 A 
ATOM     11  C   UNL     1       2.283   6.043  18.881  0.00  0.00    +0.000 A 
BRANCH   9  12
ATOM     12  O   UNL     1       1.940   9.408  17.539  0.00  0.00    +0.000 OA
ATOM     13  C   UNL     1       1.999  10.763  17.959  0.00  0.00    +0.000 C 
ENDBRANCH   9  12
ENDBRANCH   1   2
BRANCH   1  20
ATOM     14  C   UNL     1       6.205   6.393  17.353  0.00  0.00    +0.000 C 
ATOM     15  C   UNL     1       6.034   5.790  18.767  0.00  0.00    +0.000 C 
ATOM     16  C   UNL     1       5.686   4.300  18.659  0.00  0.00    +0.000 C 
ATOM     17  N   UNL     1       5.515   3.878  17.255  0.00  0.00    +0.000 NA
ATOM     18  C   UNL     1       6.817   4.075  16.569  0.00  0.00    +0.000 C 
ATOM     19  C   UNL     1       7.283   5.538  16.645  0.00  0.00    +0.000 C 
ATOM     20  C   UNL     1       4.476   4.698  16.550  0.00  0.00    +0.000 C 
ATOM     21  C   UNL     1       4.864   6.192  16.597  0.00  0.00    +0.000 C 
BRANCH  14  23
ATOM     22  C   UNL     1       7.868   8.296  17.746  0.00  0.00    +0.000 C 
ATOM     23  C   UNL     1       6.640   7.843  17.471  0.00  0.00    +0.000 C 
ENDBRANCH  14  23
ENDBRANCH   1  20
BRANCH   1  24
ATOM     24  O   UNL     1       2.627   3.026  16.739  0.00  0.00    +0.000 OA
ATOM     25  H   UNL     1       1.757   2.874  17.140  0.00  0.00    +0.000 HD
ENDBRANCH   1  24
TORSDOF 5
ENDMDL
MODEL 6
REMARK VINA RESULT:      -6.4      2.323      6.057
REMARK  Name = 
REMARK  6 active torsions:
REMARK  status: ('A' for Active; 'I' for Inactive)
REMARK    1  A    between atoms: C_2  and  C_3
REMARK    2  A    between atoms: C_9  and  C_10
REMARK    3  A    between atoms: C_10  and  O_11
REMARK    4  A    between atoms: C_10  and  C_12
REMARK    5  A    between atoms: C_19  and  O_20
REMARK    6  A    between atoms: O_20  and  C_21
REMARK                            x       y       z     vdW  Elec       q    Type
REMARK                         _______ _______ _______ _____ _____    ______ ____
ROOT
ATOM      1  C   UNL     1       4.481   2.936  18.239  0.00  0.00    +0.000 C 
ENDROOT
BRANCH   1   2
ATOM      2  C   UNL     1       5.068   4.020  17.325  0.00  0.00    +0.000 A 
ATOM      3  C   UNL     1       4.617   4.133  15.998  0.00  0.00    +0.000 A 
ATOM      4  C   UNL     1       5.125   5.127  15.184  0.00  0.00    +0.000 A 
ATOM      5  N   UNL     1       6.025   6.040  15.593  0.00  0.00    +0.000 NA
ATOM      6  C   UNL     1       6.497   5.934  16.841  0.00  0.00    +0.000 A 
ATOM      7  C   UNL     1       7.438   6.869  17.258  0.00  0.00    +0.000 A 
ATOM      8  C   UNL     1       8.014   6.831  18.531  0.00  0.00    +0.000 A 
ATOM      9  C   UNL     1       7.670   5.810  19.401  0.00  0.00    +0.000 A 
ATOM     10  C   UNL     1       6.744   4.850  18.991  0.00  0.00    +0.000 A 
ATOM     11  C   UNL     1       6.093   4.917  17.742  0.00  0.00    +0.000 A 
BRANCH   9  12
ATOM     12  O   UNL     1       8.142   5.619  20.667  0.00  0.00    +0.000 OA
ATOM     13  C   UNL     1       9.179   4.664  20.842  0.00  0.00    +0.000 C 
ENDBRANCH   9  12
ENDBRANCH   1   2
BRANCH   1  20
ATOM     14  C   UNL     1       2.151   5.616  19.621  0.00  0.00    +0.000 C 
ATOM     15  C   UNL     1       1.700   5.522  18.145  0.00  0.00    +0.000 C 
ATOM     16  C   UNL     1       1.543   4.050  17.741  0.00  0.00    +0.000 C 
ATOM     17  N   UNL     1       1.955   3.138  18.827  0.00  0.00    +0.000 NA
ATOM     18  C   UNL     1       1.047   3.377  19.977  0.00  0.00    +0.000 C 
ATOM     19  C   UNL     1       1.097   4.840  20.446  0.00  0.00    +0.000 C 
ATOM     20  C   UNL     1       3.364   3.400  19.269  0.00  0.00    +0.000 C 
ATOM     21  C   UNL     1       3.503   4.863  19.743  0.00  0.00    +0.000 C 
BRANCH  14  23
ATOM     22  C   UNL     1       1.400   7.704  20.894  0.00  0.00    +0.000 C 
ATOM     23  C   UNL     1       2.213   7.075  20.038  0.00  0.00    +0.000 C 
ENDBRANCH  14  23
ENDBRANCH   1  20
BRANCH   1  24
ATOM     24  O   UNL     1       4.013   1.857  17.414  0.00  0.00    +0.000 OA
ATOM     25  H   UNL     1       4.439   1.045  17.732  0.00  0.00    +0.000 HD
ENDBRANCH   1  24
TORSDOF 5
ENDMDL
MODEL 7
REMARK VINA RESULT:      -6.4      3.412      5.229
REMARK  Name = 
REMARK  6 active torsions:
REMARK  status: ('A' for Active; 'I' for Inactive)
REMARK    1  A    between atoms: C_2  and  C_3
REMARK    2  A    between atoms: C_9  and  C_10
REMARK    3  A    between atoms: C_10  and  O_11
REMARK    4  A    between atoms: C_10  and  C_12
REMARK    5  A    between atoms: C_19  and  O_20
REMARK    6  A    between atoms: O_20  and  C_21
REMARK                            x       y       z     vdW  Elec       q    Type
REMARK                         _______ _______ _______ _____ _____    ______ ____
ROOT
ATOM      1  C   UNL     1       2.506   6.238  19.978  0.00  0.00    +0.000 C 
ENDROOT
BRANCH   1   2
ATOM      2  C   UNL     1       2.273   7.548  19.214  0.00  0.00    +0.000 A 
ATOM      3  C   UNL     1       2.897   7.750  17.970  0.00  0.00    +0.000 A 
ATOM      4  C   UNL     1       2.666   8.918  17.269  0.00  0.00    +0.000 A 
ATOM      5  N   UNL     1       1.837   9.890  17.691  0.00  0.00    +0.000 NA
ATOM      6  C   UNL     1       1.258   9.739  18.888  0.00  0.00    +0.000 A 
ATOM      7  C   UNL     1       0.413  10.751  19.330  0.00  0.00    +0.000 A 
ATOM      8  C   UNL     1      -0.219  10.705  20.575  0.00  0.00    +0.000 A 
ATOM      9  C   UNL     1       0.026   9.636  21.421  0.00  0.00    +0.000 A 
ATOM     10  C   UNL     1       0.888   8.622  21.003  0.00  0.00    +0.000 A 
ATOM     11  C   UNL     1       1.472   8.611  19.720  0.00  0.00    +0.000 A 
BRANCH   9  12
ATOM     12  O   UNL     1      -0.497   9.441  22.666  0.00  0.00    +0.000 OA
ATOM     13  C   UNL     1      -1.173  10.533  23.271  0.00  0.00    +0.000 C 
ENDBRANCH   9  12
ENDBRANCH   1   2
BRANCH   1  20
ATOM     14  C   UNL     1       2.460   2.565  18.963  0.00  0.00    +0.000 C 
ATOM     15  C   UNL     1       2.955   2.493  20.427  0.00  0.00    +0.000 C 
ATOM     16  C   UNL     1       2.080   3.384  21.317  0.00  0.00    +0.000 C 
ATOM     17  N   UNL     1       1.081   4.132  20.528  0.00  0.00    +0.000 NA
ATOM     18  C   UNL     1       0.184   3.138  19.887  0.00  0.00    +0.000 C 
ATOM     19  C   UNL     1       0.966   2.163  18.991  0.00  0.00    +0.000 C 
ATOM     20  C   UNL     1       1.724   4.958  19.454  0.00  0.00    +0.000 C 
ATOM     21  C   UNL     1       2.548   4.049  18.516  0.00  0.00    +0.000 C 
BRANCH  14  23
ATOM     22  C   UNL     1       4.357   0.920  18.477  0.00  0.00    +0.000 C 
ATOM     23  C   UNL     1       3.272   1.609  18.108  0.00  0.00    +0.000 C 
ENDBRANCH  14  23
ENDBRANCH   1  20
BRANCH   1  24
ATOM     24  O   UNL     1       3.921   5.996  20.038  0.00  0.00    +0.000 OA
ATOM     25  H   UNL     1       4.078   5.383  20.772  0.00  0.00    +0.000 HD
ENDBRANCH   1  24
TORSDOF 5
ENDMDL
MODEL 8
REMARK VINA RESULT:      -6.4      2.718      7.172
REMARK  Name = 
REMARK  6 active torsions:
REMARK  status: ('A' for Active; 'I' for Inactive)
REMARK    1  A    between atoms: C_2  and  C_3
REMARK    2  A    between atoms: C_9  and  C_10
REMARK    3  A    between atoms: C_10  and  O_11
REMARK    4  A    between atoms: C_10  and  C_12
REMARK    5  A    between atoms: C_19  and  O_20
REMARK    6  A    between atoms: O_20  and  C_21
REMARK                            x       y       z     vdW  Elec       q    Type
REMARK                         _______ _______ _______ _____ _____    ______ ____
ROOT
ATOM      1  C   UNL     1       1.838   8.003  20.259  0.00  0.00    +0.000 C 
ENDROOT
BRANCH   1   2
ATOM      2  C   UNL     1       1.911   6.498  19.966  0.00  0.00    +0.000 A 
ATOM      3  C   UNL     1       1.109   5.606  20.699  0.00  0.00    +0.000 A 
ATOM      4  C   UNL     1       1.153   4.254  20.417  0.00  0.00    +0.000 A 
ATOM      5  N   UNL     1       1.909   3.720  19.441  0.00  0.00    +0.000 NA
ATOM      6  C   UNL     1       2.709   4.542  18.751  0.00  0.00    +0.000 A 
ATOM      7  C   UNL     1       3.500   3.987  17.752  0.00  0.00    +0.000 A 
ATOM      8  C   UNL     1       4.390   4.753  16.993  0.00  0.00    +0.000 A 
ATOM      9  C   UNL     1       4.521   6.106  17.261  0.00  0.00    +0.000 A 
ATOM     10  C   UNL     1       3.749   6.675  18.275  0.00  0.00    +0.000 A 
ATOM     11  C   UNL     1       2.790   5.936  18.998  0.00  0.00    +0.000 A 
BRANCH   9  12
ATOM     12  O   UNL     1       5.343   6.990  16.627  0.00  0.00    +0.000 OA
ATOM     13  C   UNL     1       6.649   7.164  17.157  0.00  0.00    +0.000 C 
ENDBRANCH   9  12
ENDBRANCH   1   2
BRANCH   1  20
ATOM     14  C   UNL     1      -0.551  10.967  20.419  0.00  0.00    +0.000 C 
ATOM     15  C   UNL     1       0.802  11.655  20.128  0.00  0.00    +0.000 C 
ATOM     16  C   UNL     1       1.534  10.910  19.004  0.00  0.00    +0.000 C 
ATOM     17  N   UNL     1       0.800   9.700  18.583  0.00  0.00    +0.000 NA
ATOM     18  C   UNL     1      -0.508  10.139  18.038  0.00  0.00    +0.000 C 
ATOM     19  C   UNL     1      -1.318  10.933  19.076  0.00  0.00    +0.000 C 
ATOM     20  C   UNL     1       0.551   8.771  19.733  0.00  0.00    +0.000 C 
ATOM     21  C   UNL     1      -0.248   9.502  20.834  0.00  0.00    +0.000 C 
BRANCH  14  23
ATOM     22  C   UNL     1      -1.066  11.802  22.782  0.00  0.00    +0.000 C 
ATOM     23  C   UNL     1      -1.308  11.764  21.467  0.00  0.00    +0.000 C 
ENDBRANCH  14  23
ENDBRANCH   1  20
BRANCH   1  24
ATOM     24  O   UNL     1       2.021   8.196  21.671  0.00  0.00    +0.000 OA
ATOM     25  H   UNL     1       2.732   7.600  21.954  0.00  0.00    +0.000 HD
ENDBRANCH   1  24
TORSDOF 5
ENDMDL
MODEL 9
REMARK VINA RESULT:      -6.3      3.708      5.390
REMARK  Name = 
REMARK  6 active torsions:
REMARK  status: ('A' for Active; 'I' for Inactive)
REMARK    1  A    between atoms: C_2  and  C_3
REMARK    2  A    between atoms: C_9  and  C_10
REMARK    3  A    between atoms: C_10  and  O_11
REMARK    4  A    between atoms: C_10  and  C_12
REMARK    5  A    between atoms: C_19  and  O_20
REMARK    6  A    between atoms: O_20  and  C_21
REMARK                            x       y       z     vdW  Elec       q    Type
REMARK                         _______ _______ _______ _____ _____    ______ ____
ROOT
ATOM      1  C   UNL     1       1.642   6.068  20.267  0.00  0.00    +0.000 C 
ENDROOT
BRANCH   1   2
ATOM      2  C   UNL     1       1.784   7.368  19.464  0.00  0.00    +0.000 A 
ATOM      3  C   UNL     1       2.549   7.378  18.283  0.00  0.00    +0.000 A 
ATOM      4  C   UNL     1       2.654   8.541  17.545  0.00  0.00    +0.000 A 
ATOM      5  N   UNL     1       2.033   9.689  17.869  0.00  0.00    +0.000 NA
ATOM      6  C   UNL     1       1.327   9.717  19.006  0.00  0.00    +0.000 A 
ATOM      7  C   UNL     1       0.698  10.909  19.347  0.00  0.00    +0.000 A 
ATOM      8  C   UNL     1      -0.040  11.052  20.526  0.00  0.00    +0.000 A 
ATOM      9  C   UNL     1      -0.123   9.987  21.408  0.00  0.00    +0.000 A 
ATOM     10  C   UNL     1       0.522   8.791  21.092  0.00  0.00    +0.000 A 
ATOM     11  C   UNL     1       1.203   8.601  19.872  0.00  0.00    +0.000 A 
BRANCH   9  12
ATOM     12  O   UNL     1      -0.788   9.961  22.599  0.00  0.00    +0.000 OA
ATOM     13  C   UNL     1      -1.305  11.190  23.087  0.00  0.00    +0.000 C 
ENDBRANCH   9  12
ENDBRANCH   1   2
BRANCH   1  20
ATOM     14  C   UNL     1       3.271   2.645  19.877  0.00  0.00    +0.000 C 
ATOM     15  C   UNL     1       2.572   2.519  21.251  0.00  0.00    +0.000 C 
ATOM     16  C   UNL     1       1.138   3.055  21.156  0.00  0.00    +0.000 C 
ATOM     17  N   UNL     1       0.855   3.628  19.825  0.00  0.00    +0.000 NA
ATOM     18  C   UNL     1       0.979   2.531  18.833  0.00  0.00    +0.000 C 
ATOM     19  C   UNL     1       2.377   1.891  18.865  0.00  0.00    +0.000 C 
ATOM     20  C   UNL     1       1.830   4.709  19.465  0.00  0.00    +0.000 C 
ATOM     21  C   UNL     1       3.269   4.149  19.492  0.00  0.00    +0.000 C 
BRANCH  14  23
ATOM     22  C   UNL     1       5.151   1.284  20.954  0.00  0.00    +0.000 C 
ATOM     23  C   UNL     1       4.656   2.027  19.957  0.00  0.00    +0.000 C 
ENDBRANCH  14  23
ENDBRANCH   1  20
BRANCH   1  24
ATOM     24  O   UNL     1       2.531   6.136  21.394  0.00  0.00    +0.000 OA
ATOM     25  H   UNL     1       2.000   6.390  22.165  0.00  0.00    +0.000 HD
ENDBRANCH   1  24
TORSDOF 5
ENDMDL
