MODEL 1
REMARK VINA RESULT:      -8.7      0.000      0.000
REMARK  Name = 
REMARK  10 active torsions:
REMARK  status: ('A' for Active; 'I' for Inactive)
REMARK    1  A    between atoms: C_1  and  C_2
REMARK    2  A    between atoms: C_2  and  C_3
REMARK    3  A    between atoms: C_2  and  N_18
REMARK    4  A    between atoms: C_3  and  C_4
REMARK    5  A    between atoms: C_4  and  C_5
REMARK    6  A    between atoms: C_5  and  N_6
REMARK    7  A    between atoms: N_6  and  C_7
REMARK    8  A    between atoms: N_18  and  C_19
REMARK    9  A    between atoms: C_19  and  C_20
REMARK   10  A    between atoms: C_20  and  C_21
REMARK                            x       y       z     vdW  Elec       q    Type
REMARK                         _______ _______ _______ _____ _____    ______ ____
ROOT
ATOM      1  C   UNL     1       7.298   4.657  16.805  0.00  0.00    +0.000 C 
ATOM      2  C   UNL     1       6.386   5.794  17.272  0.00  0.00    +0.000 C 
ENDROOT
BRANCH   2   3
ATOM      3  N   UNL     1       5.088   5.818  16.585  0.00  0.00    +0.000 NA
ATOM      4  H   UNL     1       4.811   4.863  16.403  0.00  0.00    +0.000 HD
BRANCH   3   5
ATOM      5  C   UNL     1       3.946   6.304  17.351  0.00  0.00    +0.000 C 
BRANCH   5   6
ATOM      6  C   UNL     1       4.029   6.060  18.846  0.00  0.00    +0.000 C 
BRANCH   6   7
ATOM      7  C   UNL     1       3.241   4.815  19.295  0.00  0.00    +0.000 C 
ATOM      8  C   UNL     1       2.492   5.072  20.630  0.00  0.00    +0.000 C 
ATOM      9  C   UNL     1       1.662   3.847  21.032  0.00  0.00    +0.000 C 
ATOM     10  C   UNL     1       0.639   3.553  19.927  0.00  0.00    +0.000 C 
ATOM     11  C   UNL     1       1.361   3.264  18.601  0.00  0.00    +0.000 C 
ATOM     12  C   UNL     1       2.300   2.060  18.778  0.00  0.00    +0.000 C 
ATOM     13  C   UNL     1       3.333   2.350  19.878  0.00  0.00    +0.000 C 
ATOM     14  C   UNL     1       2.603   2.641  21.201  0.00  0.00    +0.000 C 
ATOM     15  C   UNL     1       4.161   3.581  19.479  0.00  0.00    +0.000 C 
ATOM     16  C   UNL     1       2.192   4.491  18.203  0.00  0.00    +0.000 C 
ENDBRANCH   6   7
ENDBRANCH   5   6
ENDBRANCH   3   5
ENDBRANCH   2   3
BRANCH   2  17
ATOM     17  C   UNL     1       7.098   7.166  17.137  0.00  0.00    +0.000 C 
BRANCH  17  18
ATOM     18  C   UNL     1       8.012   7.635  18.289  0.00  0.00    +0.000 C 
BRANCH  18  19
ATOM     19  C   UNL     1       8.437   9.092  18.164  0.00  0.00    +0.000 C 
BRANCH  19  20
ATOM     20  N   UNL     1       9.169   9.574  19.337  0.00  0.00    +0.000 N 
ATOM     21  H   UNL     1       9.911   8.921  19.572  0.00  0.00    +0.000 HD
BRANCH  20  22
ATOM     22  C   UNL     1       9.700  10.893  19.166  0.00  0.00    +0.000 A 
ATOM     23  C   UNL     1      10.234  11.288  17.931  0.00  0.00    +0.000 A 
ATOM     24  C   UNL     1      10.663  12.589  17.759  0.00  0.00    +0.000 A 
ATOM     25  N   UNL     1      10.561  13.538  18.705  0.00  0.00    +0.000 NA
ATOM     26  C   UNL     1      10.021  13.194  19.881  0.00  0.00    +0.000 A 
ATOM     27  C   UNL     1       9.883  14.197  20.825  0.00  0.00    +0.000 A 
ATOM     28  C   UNL     1       9.351  13.936  22.084  0.00  0.00    +0.000 A 
ATOM     29 CL   UNL     1       9.175  15.212  23.225  0.00  0.00    +0.000 Cl
ATOM     30  C   UNL     1       8.958  12.652  22.426  0.00  0.00    +0.000 A 
ATOM     31  C   UNL     1       9.070  11.630  21.485  0.00  0.00    +0.000 A 
ATOM     32  C   UNL     1       9.580  11.878  20.187  0.00  0.00    +0.000 A 
ENDBRANCH  20  22
ENDBRANCH  19  20
ENDBRANCH  18  19
ENDBRANCH  17  18
ENDBRANCH   2  17
TORSDOF 9
ENDMDL
MODEL 2
REMARK VINA RESULT:      -8.6      5.303      7.850
REMARK  Name = 
REMARK  10 active torsions:
REMARK  status: ('A' for Active; 'I' for Inactive)
REMARK    1  A    between atoms: C_1  and  C_2
REMARK    2  A    between atoms: C_2  and  C_3
REMARK    3  A    between atoms: C_2  and  N_18
REMARK    4  A    between atoms: C_3  and  C_4
REMARK    5  A    between atoms: C_4  and  C_5
REMARK    6  A    between atoms: C_5  and  N_6
REMARK    7  A    between atoms: N_6  and  C_7
REMARK    8  A    between atoms: N_18  and  C_19
REMARK    9  A    between atoms: C_19  and  C_20
REMARK   10  A    between atoms: C_20  and  C_21
REMARK                            x       y       z     vdW  Elec       q    Type
REMARK                         _______ _______ _______ _____ _____    ______ ____
ROOT
ATOM      1  C   UNL     1       2.063   2.531  21.656  0.00  0.00    +0.000 C 
ATOM      2  C   UNL     1       1.574   2.620  20.208  0.00  0.00    +0.000 C 
ENDROOT
BRANCH   2   3
ATOM      3  N   UNL     1       2.501   2.014  19.243  0.00  0.00    +0.000 NA
ATOM      4  H   UNL     1       1.962   1.444  18.605  0.00  0.00    +0.000 HD
BRANCH   3   5
ATOM      5  C   UNL     1       3.172   2.920  18.317  0.00  0.00    +0.000 C 
BRANCH   5   6
ATOM      6  C   UNL     1       4.491   3.480  18.815  0.00  0.00    +0.000 C 
BRANCH   6   7
ATOM      7  C   UNL     1       5.122   4.488  17.835  0.00  0.00    +0.000 C 
ATOM      8  C   UNL     1       4.603   5.927  18.094  0.00  0.00    +0.000 C 
ATOM      9  C   UNL     1       5.286   6.929  17.154  0.00  0.00    +0.000 C 
ATOM     10  C   UNL     1       6.800   6.887  17.396  0.00  0.00    +0.000 C 
ATOM     11  C   UNL     1       7.342   5.477  17.114  0.00  0.00    +0.000 C 
ATOM     12  C   UNL     1       7.033   5.088  15.659  0.00  0.00    +0.000 C 
ATOM     13  C   UNL     1       5.516   5.120  15.412  0.00  0.00    +0.000 C 
ATOM     14  C   UNL     1       4.981   6.534  15.699  0.00  0.00    +0.000 C 
ATOM     15  C   UNL     1       4.831   4.121  16.357  0.00  0.00    +0.000 C 
ATOM     16  C   UNL     1       6.655   4.476  18.054  0.00  0.00    +0.000 C 
ENDBRANCH   6   7
ENDBRANCH   5   6
ENDBRANCH   3   5
ENDBRANCH   2   3
BRANCH   2  17
ATOM     17  C   UNL     1       1.265   4.090  19.817  0.00  0.00    +0.000 C 
BRANCH  17  18
ATOM     18  C   UNL     1       1.912   5.221  20.645  0.00  0.00    +0.000 C 
BRANCH  18  19
ATOM     19  C   UNL     1       1.081   6.496  20.671  0.00  0.00    +0.000 C 
BRANCH  19  20
ATOM     20  N   UNL     1       1.890   7.699  20.875  0.00  0.00    +0.000 N 
ATOM     21  H   UNL     1       2.810   7.568  20.464  0.00  0.00    +0.000 HD
BRANCH  20  22
ATOM     22  C   UNL     1       1.276   8.885  20.358  0.00  0.00    +0.000 A 
ATOM     23  C   UNL     1       1.418   9.226  19.006  0.00  0.00    +0.000 A 
ATOM     24  C   UNL     1       0.749  10.325  18.506  0.00  0.00    +0.000 A 
ATOM     25  N   UNL     1      -0.084  11.086  19.236  0.00  0.00    +0.000 NA
ATOM     26  C   UNL     1      -0.265  10.758  20.523  0.00  0.00    +0.000 A 
ATOM     27  C   UNL     1      -1.161  11.526  21.245  0.00  0.00    +0.000 A 
ATOM     28  C   UNL     1      -1.404  11.278  22.592  0.00  0.00    +0.000 A 
ATOM     29 CL   UNL     1      -2.541  12.239  23.454  0.00  0.00    +0.000 Cl
ATOM     30  C   UNL     1      -0.735  10.257  23.248  0.00  0.00    +0.000 A 
ATOM     31  C   UNL     1       0.160   9.458  22.536  0.00  0.00    +0.000 A 
ATOM     32  C   UNL     1       0.399   9.673  21.156  0.00  0.00    +0.000 A 
ENDBRANCH  20  22
ENDBRANCH  19  20
ENDBRANCH  18  19
ENDBRANCH  17  18
ENDBRANCH   2  17
TORSDOF 9
ENDMDL
MODEL 3
REMARK VINA RESULT:      -8.6      0.874      1.731
REMARK  Name = 
REMARK  10 active torsions:
REMARK  status: ('A' for Active; 'I' for Inactive)
REMARK    1  A    between atoms: C_1  and  C_2
REMARK    2  A    between atoms: C_2  and  C_3
REMARK    3  A    between atoms: C_2  and  N_18
REMARK    4  A    between atoms: C_3  and  C_4
REMARK    5  A    between atoms: C_4  and  C_5
REMARK    6  A    between atoms: C_5  and  N_6
REMARK    7  A    between atoms: N_6  and  C_7
REMARK    8  A    between atoms: N_18  and  C_19
REMARK    9  A    between atoms: C_19  and  C_20
REMARK   10  A    between atoms: C_20  and  C_21
REMARK                            x       y       z     vdW  Elec       q    Type
REMARK                         _______ _______ _______ _____ _____    ______ ____
ROOT
ATOM      1  C   UNL     1       7.729   5.538  18.863  0.00  0.00    +0.000 C 
ATOM      2  C   UNL     1       6.580   6.028  17.978  0.00  0.00    +0.000 C 
ENDROOT
BRANCH   2   3
ATOM      3  N   UNL     1       6.395   5.220  16.765  0.00  0.00    +0.000 NA
ATOM      4  H   UNL     1       6.990   4.406  16.837  0.00  0.00    +0.000 HD
BRANCH   3   5
ATOM      5  C   UNL     1       5.087   4.601  16.579  0.00  0.00    +0.000 C 
BRANCH   5   6
ATOM      6  C   UNL     1       3.937   5.320  17.260  0.00  0.00    +0.000 C 
BRANCH   6   7
ATOM      7  C   UNL     1       3.154   4.414  18.228  0.00  0.00    +0.000 C 
ATOM      8  C   UNL     1       3.788   3.000  18.317  0.00  0.00    +0.000 C 
ATOM      9  C   UNL     1       3.036   2.130  19.332  0.00  0.00    +0.000 C 
ATOM     10  C   UNL     1       3.102   2.800  20.711  0.00  0.00    +0.000 C 
ATOM     11  C   UNL     1       2.450   4.191  20.653  0.00  0.00    +0.000 C 
ATOM     12  C   UNL     1       0.986   4.055  20.207  0.00  0.00    +0.000 C 
ATOM     13  C   UNL     1       0.912   3.391  18.823  0.00  0.00    +0.000 C 
ATOM     14  C   UNL     1       1.569   2.001  18.888  0.00  0.00    +0.000 C 
ATOM     15  C   UNL     1       1.670   4.260  17.808  0.00  0.00    +0.000 C 
ATOM     16  C   UNL     1       3.203   5.059  19.636  0.00  0.00    +0.000 C 
ENDBRANCH   6   7
ENDBRANCH   5   6
ENDBRANCH   3   5
ENDBRANCH   2   3
BRANCH   2  17
ATOM     17  C   UNL     1       6.762   7.525  17.612  0.00  0.00    +0.000 C 
BRANCH  17  18
ATOM     18  C   UNL     1       8.184   8.124  17.662  0.00  0.00    +0.000 C 
BRANCH  18  19
ATOM     19  C   UNL     1       8.203   9.595  18.053  0.00  0.00    +0.000 C 
BRANCH  19  20
ATOM     20  N   UNL     1       9.119   9.878  19.160  0.00  0.00    +0.000 N 
ATOM     21  H   UNL     1       9.754   9.097  19.288  0.00  0.00    +0.000 HD
BRANCH  20  22
ATOM     22  C   UNL     1       9.852  11.096  18.986  0.00  0.00    +0.000 A 
ATOM     23  C   UNL     1      10.479  11.379  17.764  0.00  0.00    +0.000 A 
ATOM     24  C   UNL     1      11.109  12.594  17.586  0.00  0.00    +0.000 A 
ATOM     25  N   UNL     1      11.125  13.568  18.513  0.00  0.00    +0.000 NA
ATOM     26  C   UNL     1      10.501  13.335  19.676  0.00  0.00    +0.000 A 
ATOM     27  C   UNL     1      10.490  14.367  20.598  0.00  0.00    +0.000 A 
ATOM     28  C   UNL     1       9.884  14.218  21.841  0.00  0.00    +0.000 A 
ATOM     29 CL   UNL     1       9.872  15.529  22.955  0.00  0.00    +0.000 Cl
ATOM     30  C   UNL     1       9.287  13.017  22.190  0.00  0.00    +0.000 A 
ATOM     31  C   UNL     1       9.270  11.970  21.270  0.00  0.00    +0.000 A 
ATOM     32  C   UNL     1       9.853  12.109  19.986  0.00  0.00    +0.000 A 
ENDBRANCH  20  22
ENDBRANCH  19  20
ENDBRANCH  18  19
ENDBRANCH  17  18
ENDBRANCH   2  17
TORSDOF 9
ENDMDL
MODEL 4
REMARK VINA RESULT:      -8.5      5.191      7.521
REMARK  Name = 
REMARK  10 active torsions:
REMARK  status: ('A' for Active; 'I' for Inactive)
REMARK    1  A    between atoms: C_1  and  C_2
REMARK    2  A    between atoms: C_2  and  C_3
REMARK    3  A    between atoms: C_2  and  N_18
REMARK    4  A    between atoms: C_3  and  C_4
REMARK    5  A    between atoms: C_4  and  C_5
REMARK    6  A    between atoms: C_5  and  N_6
REMARK    7  A    between atoms: N_6  and  C_7
REMARK    8  A    between atoms: N_18  and  C_19
REMARK    9  A    between atoms: C_19  and  C_20
REMARK   10  A    between atoms: C_20  and  C_21
REMARK                            x       y       z     vdW  Elec       q    Type
REMARK                         _______ _______ _______ _____ _____    ______ ____
ROOT
ATOM      1  C   UNL     1       1.042   4.222  17.235  0.00  0.00    +0.000 C 
ATOM      2  C   UNL     1       1.904   3.667  18.372  0.00  0.00    +0.000 C 
ENDROOT
BRANCH   2   3
ATOM      3  N   UNL     1       2.469   2.343  18.080  0.00  0.00    +0.000 NA
ATOM      4  H   UNL     1       2.169   2.071  17.154  0.00  0.00    +0.000 HD
BRANCH   3   5
ATOM      5  C   UNL     1       3.919   2.261  17.945  0.00  0.00    +0.000 C 
BRANCH   5   6
ATOM      6  C   UNL     1       4.691   3.350  18.668  0.00  0.00    +0.000 C 
BRANCH   6   7
ATOM      7  C   UNL     1       5.274   4.407  17.712  0.00  0.00    +0.000 C 
ATOM      8  C   UNL     1       4.771   5.831  18.069  0.00  0.00    +0.000 C 
ATOM      9  C   UNL     1       5.408   6.880  17.150  0.00  0.00    +0.000 C 
ATOM     10  C   UNL     1       6.933   6.826  17.314  0.00  0.00    +0.000 C 
ATOM     11  C   UNL     1       7.457   5.433  16.934  0.00  0.00    +0.000 C 
ATOM     12  C   UNL     1       7.077   5.119  15.478  0.00  0.00    +0.000 C 
ATOM     13  C   UNL     1       5.550   5.162  15.308  0.00  0.00    +0.000 C 
ATOM     14  C   UNL     1       5.033   6.559  15.693  0.00  0.00    +0.000 C 
ATOM     15  C   UNL     1       4.910   4.116  16.233  0.00  0.00    +0.000 C 
ATOM     16  C   UNL     1       6.816   4.385  17.854  0.00  0.00    +0.000 C 
ENDBRANCH   6   7
ENDBRANCH   5   6
ENDBRANCH   3   5
ENDBRANCH   2   3
BRANCH   2  17
ATOM     17  C   UNL     1       1.110   3.638  19.705  0.00  0.00    +0.000 C 
BRANCH  17  18
ATOM     18  C   UNL     1       1.665   4.433  20.907  0.00  0.00    +0.000 C 
BRANCH  18  19
ATOM     19  C   UNL     1       1.284   5.907  20.880  0.00  0.00    +0.000 C 
BRANCH  19  20
ATOM     20  N   UNL     1       2.359   6.763  20.374  0.00  0.00    +0.000 N 
ATOM     21  H   UNL     1       2.895   6.263  19.671  0.00  0.00    +0.000 HD
BRANCH  20  22
ATOM     22  C   UNL     1       1.886   8.009  19.849  0.00  0.00    +0.000 A 
ATOM     23  C   UNL     1       2.043   8.312  18.490  0.00  0.00    +0.000 A 
ATOM     24  C   UNL     1       1.505   9.479  17.985  0.00  0.00    +0.000 A 
ATOM     25  N   UNL     1       0.786  10.346  18.717  0.00  0.00    +0.000 NA
ATOM     26  C   UNL     1       0.592  10.060  20.012  0.00  0.00    +0.000 A 
ATOM     27  C   UNL     1      -0.189  10.943  20.738  0.00  0.00    +0.000 A 
ATOM     28  C   UNL     1      -0.434  10.744  22.093  0.00  0.00    +0.000 A 
ATOM     29 CL   UNL     1      -1.427  11.851  22.959  0.00  0.00    +0.000 Cl
ATOM     30  C   UNL     1       0.117   9.657  22.753  0.00  0.00    +0.000 A 
ATOM     31  C   UNL     1       0.891   8.745  22.038  0.00  0.00    +0.000 A 
ATOM     32  C   UNL     1       1.129   8.910  20.650  0.00  0.00    +0.000 A 
ENDBRANCH  20  22
ENDBRANCH  19  20
ENDBRANCH  18  19
ENDBRANCH  17  18
ENDBRANCH   2  17
TORSDOF 9
ENDMDL
MODEL 5
REMARK VINA RESULT:      -8.5      2.642      9.919
REMARK  Name = 
REMARK  10 active torsions:
REMARK  status: ('A' for Active; 'I' for Inactive)
REMARK    1  A    between atoms: C_1  and  C_2
REMARK    2  A    between atoms: C_2  and  C_3
REMARK    3  A    between atoms: C_2  and  N_18
REMARK    4  A    between atoms: C_3  and  C_4
REMARK    5  A    between atoms: C_4  and  C_5
REMARK    6  A    between atoms: C_5  and  N_6
REMARK    7  A    between atoms: N_6  and  C_7
REMARK    8  A    between atoms: N_18  and  C_19
REMARK    9  A    between atoms: C_19  and  C_20
REMARK   10  A    between atoms: C_20  and  C_21
REMARK                            x       y       z     vdW  Elec       q    Type
REMARK                         _______ _______ _______ _____ _____    ______ ____
ROOT
ATOM      1  C   UNL     1       7.722   5.659  19.445  0.00  0.00    +0.000 C 
ATOM      2  C   UNL     1       7.988   6.663  18.321  0.00  0.00    +0.000 C 
ENDROOT
BRANCH   2   3
ATOM      3  N   UNL     1       8.460   7.967  18.805  0.00  0.00    +0.000 NA
ATOM      4  H   UNL     1       9.431   7.869  19.074  0.00  0.00    +0.000 HD
BRANCH   3   5
ATOM      5  C   UNL     1       8.544   9.043  17.824  0.00  0.00    +0.000 C 
BRANCH   5   6
ATOM      6  C   UNL     1       8.088  10.401  18.325  0.00  0.00    +0.000 C 
BRANCH   6   7
ATOM      7  C   UNL     1       9.262  11.332  18.681  0.00  0.00    +0.000 C 
ATOM      8  C   UNL     1       9.740  11.105  20.140  0.00  0.00    +0.000 C 
ATOM      9  C   UNL     1      10.949  11.993  20.461  0.00  0.00    +0.000 C 
ATOM     10  C   UNL     1      12.091  11.649  19.496  0.00  0.00    +0.000 C 
ATOM     11  C   UNL     1      11.650  11.897  18.045  0.00  0.00    +0.000 C 
ATOM     12  C   UNL     1      11.247  13.371  17.874  0.00  0.00    +0.000 C 
ATOM     13  C   UNL     1      10.098  13.721  18.832  0.00  0.00    +0.000 C 
ATOM     14  C   UNL     1      10.546  13.467  20.283  0.00  0.00    +0.000 C 
ATOM     15  C   UNL     1       8.888  12.828  18.515  0.00  0.00    +0.000 C 
ATOM     16  C   UNL     1      10.439  11.009  17.727  0.00  0.00    +0.000 C 
ENDBRANCH   6   7
ENDBRANCH   5   6
ENDBRANCH   3   5
ENDBRANCH   2   3
BRANCH   2  17
ATOM     17  C   UNL     1       6.732   6.838  17.426  0.00  0.00    +0.000 C 
BRANCH  17  18
ATOM     18  C   UNL     1       6.564   5.907  16.207  0.00  0.00    +0.000 C 
BRANCH  18  19
ATOM     19  C   UNL     1       6.053   4.521  16.576  0.00  0.00    +0.000 C 
BRANCH  19  20
ATOM     20  N   UNL     1       4.627   4.344  16.289  0.00  0.00    +0.000 N 
ATOM     21  H   UNL     1       4.507   3.644  15.564  0.00  0.00    +0.000 HD
BRANCH  20  22
ATOM     22  C   UNL     1       3.858   4.001  17.448  0.00  0.00    +0.000 A 
ATOM     23  C   UNL     1       3.804   2.674  17.896  0.00  0.00    +0.000 A 
ATOM     24  C   UNL     1       3.128   2.376  19.062  0.00  0.00    +0.000 A 
ATOM     25  N   UNL     1       2.541   3.300  19.841  0.00  0.00    +0.000 NA
ATOM     26  C   UNL     1       2.612   4.581  19.452  0.00  0.00    +0.000 A 
ATOM     27  C   UNL     1       2.041   5.522  20.291  0.00  0.00    +0.000 A 
ATOM     28  C   UNL     1       2.046   6.875  19.968  0.00  0.00    +0.000 A 
ATOM     29 CL   UNL     1       1.345   8.020  21.045  0.00  0.00    +0.000 Cl
ATOM     30  C   UNL     1       2.614   7.310  18.781  0.00  0.00    +0.000 A 
ATOM     31  C   UNL     1       3.211   6.382  17.929  0.00  0.00    +0.000 A 
ATOM     32  C   UNL     1       3.246   5.003  18.253  0.00  0.00    +0.000 A 
ENDBRANCH  20  22
ENDBRANCH  19  20
ENDBRANCH  18  19
ENDBRANCH  17  18
ENDBRANCH   2  17
TORSDOF 9
ENDMDL
MODEL 6
REMARK VINA RESULT:      -8.4      5.790      7.760
REMARK  Name = 
REMARK  10 active torsions:
REMARK  status: ('A' for Active; 'I' for Inactive)
REMARK    1  A    between atoms: C_1  and  C_2
REMARK    2  A    between atoms: C_2  and  C_3
REMARK    3  A    between atoms: C_2  and  N_18
REMARK    4  A    between atoms: C_3  and  C_4
REMARK    5  A    between atoms: C_4  and  C_5
REMARK    6  A    between atoms: C_5  and  N_6
REMARK    7  A    between atoms: N_6  and  C_7
REMARK    8  A    between atoms: N_18  and  C_19
REMARK    9  A    between atoms: C_19  and  C_20
REMARK   10  A    between atoms: C_20  and  C_21
REMARK                            x       y       z     vdW  Elec       q    Type
REMARK                         _______ _______ _______ _____ _____    ______ ____
ROOT
ATOM      1  C   UNL     1       2.278   2.850  21.849  0.00  0.00    +0.000 C 
ATOM      2  C   UNL     1       1.224   2.876  20.739  0.00  0.00    +0.000 C 
ENDROOT
BRANCH   2   3
ATOM      3  N   UNL     1       1.597   2.080  19.563  0.00  0.00    +0.000 NA
ATOM      4  H   UNL     1       0.893   1.366  19.431  0.00  0.00    +0.000 HD
BRANCH   3   5
ATOM      5  C   UNL     1       1.562   2.756  18.271  0.00  0.00    +0.000 C 
BRANCH   5   6
ATOM      6  C   UNL     1       2.807   2.581  17.423  0.00  0.00    +0.000 C 
BRANCH   6   7
ATOM      7  C   UNL     1       3.833   3.712  17.624  0.00  0.00    +0.000 C 
ATOM      8  C   UNL     1       4.876   3.740  16.475  0.00  0.00    +0.000 C 
ATOM      9  C   UNL     1       5.852   4.909  16.653  0.00  0.00    +0.000 C 
ATOM     10  C   UNL     1       5.061   6.224  16.649  0.00  0.00    +0.000 C 
ATOM     11  C   UNL     1       4.042   6.232  17.800  0.00  0.00    +0.000 C 
ATOM     12  C   UNL     1       4.778   6.069  19.139  0.00  0.00    +0.000 C 
ATOM     13  C   UNL     1       5.566   4.750  19.155  0.00  0.00    +0.000 C 
ATOM     14  C   UNL     1       6.581   4.748  17.998  0.00  0.00    +0.000 C 
ATOM     15  C   UNL     1       4.590   3.578  18.970  0.00  0.00    +0.000 C 
ATOM     16  C   UNL     1       3.069   5.060  17.619  0.00  0.00    +0.000 C 
ENDBRANCH   6   7
ENDBRANCH   5   6
ENDBRANCH   3   5
ENDBRANCH   2   3
BRANCH   2  17
ATOM     17  C   UNL     1       0.892   4.334  20.326  0.00  0.00    +0.000 C 
BRANCH  17  18
ATOM     18  C   UNL     1       1.708   5.481  20.960  0.00  0.00    +0.000 C 
BRANCH  18  19
ATOM     19  C   UNL     1       1.298   6.859  20.459  0.00  0.00    +0.000 C 
BRANCH  19  20
ATOM     20  N   UNL     1       1.812   7.945  21.295  0.00  0.00    +0.000 N 
ATOM     21  H   UNL     1       2.616   8.373  20.846  0.00  0.00    +0.000 HD
BRANCH  20  22
ATOM     22  C   UNL     1       0.824   8.936  21.601  0.00  0.00    +0.000 A 
ATOM     23  C   UNL     1       0.180   8.934  22.846  0.00  0.00    +0.000 A 
ATOM     24  C   UNL     1      -0.707   9.947  23.156  0.00  0.00    +0.000 A 
ATOM     25  N   UNL     1      -0.968  10.983  22.342  0.00  0.00    +0.000 NA
ATOM     26  C   UNL     1      -0.335  11.026  21.161  0.00  0.00    +0.000 A 
ATOM     27  C   UNL     1      -0.584  12.125  20.357  0.00  0.00    +0.000 A 
ATOM     28  C   UNL     1       0.010  12.253  19.105  0.00  0.00    +0.000 A 
ATOM     29 CL   UNL     1      -0.305  13.643  18.142  0.00  0.00    +0.000 Cl
ATOM     30  C   UNL     1       0.857  11.266  18.627  0.00  0.00    +0.000 A 
ATOM     31  C   UNL     1       1.136  10.159  19.427  0.00  0.00    +0.000 A 
ATOM     32  C   UNL     1       0.567  10.023  20.718  0.00  0.00    +0.000 A 
ENDBRANCH  20  22
ENDBRANCH  19  20
ENDBRANCH  18  19
ENDBRANCH  17  18
ENDBRANCH   2  17
TORSDOF 9
ENDMDL
MODEL 7
REMARK VINA RESULT:      -8.4      1.840      2.705
REMARK  Name = 
REMARK  10 active torsions:
REMARK  status: ('A' for Active; 'I' for Inactive)
REMARK    1  A    between atoms: C_1  and  C_2
REMARK    2  A    between atoms: C_2  and  C_3
REMARK    3  A    between atoms: C_2  and  N_18
REMARK    4  A    between atoms: C_3  and  C_4
REMARK    5  A    between atoms: C_4  and  C_5
REMARK    6  A    between atoms: C_5  and  N_6
REMARK    7  A    between atoms: N_6  and  C_7
REMARK    8  A    between atoms: N_18  and  C_19
REMARK    9  A    between atoms: C_19  and  C_20
REMARK   10  A    between atoms: C_20  and  C_21
REMARK                            x       y       z     vdW  Elec       q    Type
REMARK                         _______ _______ _______ _____ _____    ______ ____
ROOT
ATOM      1  C   UNL     1       7.845   6.143  18.777  0.00  0.00    +0.000 C 
ATOM      2  C   UNL     1       7.026   6.884  17.716  0.00  0.00    +0.000 C 
ENDROOT
BRANCH   2   3
ATOM      3  N   UNL     1       6.798   6.092  16.500  0.00  0.00    +0.000 NA
ATOM      4  H   UNL     1       7.111   5.147  16.677  0.00  0.00    +0.000 HD
BRANCH   3   5
ATOM      5  C   UNL     1       5.410   5.864  16.113  0.00  0.00    +0.000 C 
BRANCH   5   6
ATOM      6  C   UNL     1       4.382   6.267  17.154  0.00  0.00    +0.000 C 
BRANCH   6   7
ATOM      7  C   UNL     1       3.724   5.057  17.845  0.00  0.00    +0.000 C 
ATOM      8  C   UNL     1       4.138   3.725  17.166  0.00  0.00    +0.000 C 
ATOM      9  C   UNL     1       3.528   2.526  17.902  0.00  0.00    +0.000 C 
ATOM     10  C   UNL     1       4.022   2.528  19.355  0.00  0.00    +0.000 C 
ATOM     11  C   UNL     1       3.594   3.826  20.057  0.00  0.00    +0.000 C 
ATOM     12  C   UNL     1       2.062   3.948  20.025  0.00  0.00    +0.000 C 
ATOM     13  C   UNL     1       1.561   3.955  18.573  0.00  0.00    +0.000 C 
ATOM     14  C   UNL     1       1.995   2.654  17.876  0.00  0.00    +0.000 C 
ATOM     15  C   UNL     1       2.177   5.152  17.833  0.00  0.00    +0.000 C 
ATOM     16  C   UNL     1       4.205   5.024  19.317  0.00  0.00    +0.000 C 
ENDBRANCH   6   7
ENDBRANCH   5   6
ENDBRANCH   3   5
ENDBRANCH   2   3
BRANCH   2  17
ATOM     17  C   UNL     1       7.680   8.246  17.364  0.00  0.00    +0.000 C 
BRANCH  17  18
ATOM     18  C   UNL     1       8.469   8.987  18.464  0.00  0.00    +0.000 C 
BRANCH  18  19
ATOM     19  C   UNL     1       9.014  10.334  18.008  0.00  0.00    +0.000 C 
BRANCH  19  20
ATOM     20  N   UNL     1       9.730  11.047  19.069  0.00  0.00    +0.000 N 
ATOM     21  H   UNL     1      10.380  10.416  19.528  0.00  0.00    +0.000 HD
BRANCH  20  22
ATOM     22  C   UNL     1      10.414  12.214  18.599  0.00  0.00    +0.000 A 
ATOM     23  C   UNL     1      11.626  12.095  17.904  0.00  0.00    +0.000 A 
ATOM     24  C   UNL     1      12.227  13.225  17.385  0.00  0.00    +0.000 A 
ATOM     25  N   UNL     1      11.695  14.456  17.465  0.00  0.00    +0.000 NA
ATOM     26  C   UNL     1      10.519  14.589  18.093  0.00  0.00    +0.000 A 
ATOM     27  C   UNL     1       9.966  15.858  18.124  0.00  0.00    +0.000 A 
ATOM     28  C   UNL     1       8.757  16.103  18.768  0.00  0.00    +0.000 A 
ATOM     29 CL   UNL     1       8.089  17.689  18.769  0.00  0.00    +0.000 Cl
ATOM     30  C   UNL     1       8.084  15.076  19.410  0.00  0.00    +0.000 A 
ATOM     31  C   UNL     1       8.613  13.786  19.376  0.00  0.00    +0.000 A 
ATOM     32  C   UNL     1       9.827  13.507  18.699  0.00  0.00    +0.000 A 
ENDBRANCH  20  22
ENDBRANCH  19  20
ENDBRANCH  18  19
ENDBRANCH  17  18
ENDBRANCH   2  17
TORSDOF 9
ENDMDL
MODEL 8
REMARK VINA RESULT:      -8.3      5.580      7.761
REMARK  Name = 
REMARK  10 active torsions:
REMARK  status: ('A' for Active; 'I' for Inactive)
REMARK    1  A    between atoms: C_1  and  C_2
REMARK    2  A    between atoms: C_2  and  C_3
REMARK    3  A    between atoms: C_2  and  N_18
REMARK    4  A    between atoms: C_3  and  C_4
REMARK    5  A    between atoms: C_4  and  C_5
REMARK    6  A    between atoms: C_5  and  N_6
REMARK    7  A    between atoms: N_6  and  C_7
REMARK    8  A    between atoms: N_18  and  C_19
REMARK    9  A    between atoms: C_19  and  C_20
REMARK   10  A    between atoms: C_20  and  C_21
REMARK                            x       y       z     vdW  Elec       q    Type
REMARK                         _______ _______ _______ _____ _____    ______ ____
ROOT
ATOM      1  C   UNL     1       0.247   2.574  18.962  0.00  0.00    +0.000 C 
ATOM      2  C   UNL     1       1.602   3.200  19.303  0.00  0.00    +0.000 C 
ENDROOT
BRANCH   2   3
ATOM      3  N   UNL     1       2.611   2.215  19.713  0.00  0.00    +0.000 NA
ATOM      4  H   UNL     1       2.317   1.307  19.379  0.00  0.00    +0.000 HD
BRANCH   3   5
ATOM      5  C   UNL     1       3.930   2.329  19.101  0.00  0.00    +0.000 C 
BRANCH   5   6
ATOM      6  C   UNL     1       3.921   2.650  17.618  0.00  0.00    +0.000 C 
BRANCH   6   7
ATOM      7  C   UNL     1       4.766   3.889  17.268  0.00  0.00    +0.000 C 
ATOM      8  C   UNL     1       5.405   3.757  15.860  0.00  0.00    +0.000 C 
ATOM      9  C   UNL     1       6.191   5.024  15.498  0.00  0.00    +0.000 C 
ATOM     10  C   UNL     1       5.234   6.224  15.508  0.00  0.00    +0.000 C 
ATOM     11  C   UNL     1       4.613   6.393  16.904  0.00  0.00    +0.000 C 
ATOM     12  C   UNL     1       5.727   6.603  17.941  0.00  0.00    +0.000 C 
ATOM     13  C   UNL     1       6.684   5.402  17.943  0.00  0.00    +0.000 C 
ATOM     14  C   UNL     1       7.300   5.237  16.542  0.00  0.00    +0.000 C 
ATOM     15  C   UNL     1       5.897   4.131  18.299  0.00  0.00    +0.000 C 
ATOM     16  C   UNL     1       3.830   5.123  17.264  0.00  0.00    +0.000 C 
ENDBRANCH   6   7
ENDBRANCH   5   6
ENDBRANCH   3   5
ENDBRANCH   2   3
BRANCH   2  17
ATOM     17  C   UNL     1       1.446   4.302  20.384  0.00  0.00    +0.000 C 
BRANCH  17  18
ATOM     18  C   UNL     1       2.543   5.382  20.494  0.00  0.00    +0.000 C 
BRANCH  18  19
ATOM     19  C   UNL     1       2.111   6.735  19.945  0.00  0.00    +0.000 C 
BRANCH  19  20
ATOM     20  N   UNL     1       1.556   7.616  20.975  0.00  0.00    +0.000 N 
ATOM     21  H   UNL     1       2.236   7.748  21.718  0.00  0.00    +0.000 HD
BRANCH  20  22
ATOM     22  C   UNL     1       1.126   8.882  20.461  0.00  0.00    +0.000 A 
ATOM     23  C   UNL     1       1.432   9.253  19.144  0.00  0.00    +0.000 A 
ATOM     24  C   UNL     1       0.937  10.439  18.638  0.00  0.00    +0.000 A 
ATOM     25  N   UNL     1       0.126  11.261  19.325  0.00  0.00    +0.000 NA
ATOM     26  C   UNL     1      -0.210  10.909  20.574  0.00  0.00    +0.000 A 
ATOM     27  C   UNL     1      -1.082  11.747  21.247  0.00  0.00    +0.000 A 
ATOM     28  C   UNL     1      -1.476  11.479  22.554  0.00  0.00    +0.000 A 
ATOM     29 CL   UNL     1      -2.578  12.531  23.353  0.00  0.00    +0.000 Cl
ATOM     30  C   UNL     1      -0.987  10.366  23.219  0.00  0.00    +0.000 A 
ATOM     31  C   UNL     1      -0.122   9.498  22.554  0.00  0.00    +0.000 A 
ATOM     32  C   UNL     1       0.269   9.734  21.212  0.00  0.00    +0.000 A 
ENDBRANCH  20  22
ENDBRANCH  19  20
ENDBRANCH  18  19
ENDBRANCH  17  18
ENDBRANCH   2  17
TORSDOF 9
ENDMDL
MODEL 9
REMARK VINA RESULT:      -8.2      1.170      1.728
REMARK  Name = 
REMARK  10 active torsions:
REMARK  status: ('A' for Active; 'I' for Inactive)
REMARK    1  A    between atoms: C_1  and  C_2
REMARK    2  A    between atoms: C_2  and  C_3
REMARK    3  A    between atoms: C_2  and  N_18
REMARK    4  A    between atoms: C_3  and  C_4
REMARK    5  A    between atoms: C_4  and  C_5
REMARK    6  A    between atoms: C_5  and  N_6
REMARK    7  A    between atoms: N_6  and  C_7
REMARK    8  A    between atoms: N_18  and  C_19
REMARK    9  A    between atoms: C_19  and  C_20
REMARK   10  A    between atoms: C_20  and  C_21
REMARK                            x       y       z     vdW  Elec       q    Type
REMARK                         _______ _______ _______ _____ _____    ______ ____
ROOT
ATOM      1  C   UNL     1       7.404   5.609  19.247  0.00  0.00    +0.000 C 
ATOM      2  C   UNL     1       6.728   6.125  17.974  0.00  0.00    +0.000 C 
ENDROOT
BRANCH   2   3
ATOM      3  N   UNL     1       6.760   5.161  16.866  0.00  0.00    +0.000 NA
ATOM      4  H   UNL     1       7.029   4.261  17.241  0.00  0.00    +0.000 HD
BRANCH   3   5
ATOM      5  C   UNL     1       5.485   4.838  16.236  0.00  0.00    +0.000 C 
BRANCH   5   6
ATOM      6  C   UNL     1       4.939   3.461  16.567  0.00  0.00    +0.000 C 
BRANCH   6   7
ATOM      7  C   UNL     1       3.842   3.496  17.647  0.00  0.00    +0.000 C 
ATOM      8  C   UNL     1       4.439   3.299  19.066  0.00  0.00    +0.000 C 
ATOM      9  C   UNL     1       3.344   3.399  20.136  0.00  0.00    +0.000 C 
ATOM     10  C   UNL     1       2.689   4.784  20.051  0.00  0.00    +0.000 C 
ATOM     11  C   UNL     1       2.062   4.988  18.663  0.00  0.00    +0.000 C 
ATOM     12  C   UNL     1       1.012   3.896  18.407  0.00  0.00    +0.000 C 
ATOM     13  C   UNL     1       1.662   2.506  18.481  0.00  0.00    +0.000 C 
ATOM     14  C   UNL     1       2.290   2.309  19.873  0.00  0.00    +0.000 C 
ATOM     15  C   UNL     1       2.763   2.407  17.414  0.00  0.00    +0.000 C 
ATOM     16  C   UNL     1       3.159   4.885  17.595  0.00  0.00    +0.000 C 
ENDBRANCH   6   7
ENDBRANCH   5   6
ENDBRANCH   3   5
ENDBRANCH   2   3
BRANCH   2  17
ATOM     17  C   UNL     1       7.339   7.481  17.533  0.00  0.00    +0.000 C 
BRANCH  17  18
ATOM     18  C   UNL     1       8.499   8.068  18.365  0.00  0.00    +0.000 C 
BRANCH  18  19
ATOM     19  C   UNL     1       8.542   9.590  18.346  0.00  0.00    +0.000 C 
BRANCH  19  20
ATOM     20  N   UNL     1       9.216  10.155  19.517  0.00  0.00    +0.000 N 
ATOM     21  H   UNL     1       9.783   9.442  19.965  0.00  0.00    +0.000 HD
BRANCH  20  22
ATOM     22  C   UNL     1      10.012  11.305  19.208  0.00  0.00    +0.000 A 
ATOM     23  C   UNL     1      10.641  11.418  17.960  0.00  0.00    +0.000 A 
ATOM     24  C   UNL     1      11.333  12.571  17.648  0.00  0.00    +0.000 A 
ATOM     25  N   UNL     1      11.411  13.637  18.462  0.00  0.00    +0.000 NA
ATOM     26  C   UNL     1      10.786  13.567  19.645  0.00  0.00    +0.000 A 
ATOM     27  C   UNL     1      10.840  14.693  20.449  0.00  0.00    +0.000 A 
ATOM     28  C   UNL     1      10.239  14.713  21.704  0.00  0.00    +0.000 A 
ATOM     29 CL   UNL     1      10.308  16.137  22.667  0.00  0.00    +0.000 Cl
ATOM     30  C   UNL     1       9.582  13.592  22.184  0.00  0.00    +0.000 A 
ATOM     31  C   UNL     1       9.499  12.453  21.385  0.00  0.00    +0.000 A 
ATOM     32  C   UNL     1      10.077  12.420  20.091  0.00  0.00    +0.000 A 
ENDBRANCH  20  22
ENDBRANCH  19  20
ENDBRANCH  18  19
ENDBRANCH  17  18
ENDBRANCH   2  17
TORSDOF 9
ENDMDL
