MODEL 1
REMARK VINA RESULT:      -8.3      0.000      0.000
REMARK  Name = 
REMARK  8 active torsions:
REMARK  status: ('A' for Active; 'I' for Inactive)
REMARK    1  A    between atoms: C_1  and  C_2
REMARK    2  A    between atoms: C_5  and  S_6
REMARK    3  A    between atoms: S_6  and  N_9
REMARK    4  A    between atoms: N_9  and  C_10
REMARK    5  A    between atoms: C_10  and  C_11
REMARK    6  A    between atoms: C_14  and  C_15
REMARK    7  A    between atoms: N_17  and  N_18
REMARK    8  A    between atoms: C_19  and  C_21
REMARK                            x       y       z     vdW  Elec       q    Type
REMARK                         _______ _______ _______ _____ _____    ______ ____
ROOT
ATOM      1  C   UNL     1       1.663   5.207  18.933  0.00  0.00    +0.000 C 
ATOM      2  C   UNL     1       1.971   5.547  20.401  0.00  0.00    +0.000 C 
ATOM      3  C   UNL     1       1.398   6.934  20.703  0.00  0.00    +0.000 C 
ATOM      4  C   UNL     1       1.944   8.032  19.760  0.00  0.00    +0.000 C 
ATOM      5  C   UNL     1       1.958   7.590  18.284  0.00  0.00    +0.000 C 
ATOM      6  C   UNL     1       2.491   6.166  18.073  0.00  0.00    +0.000 C 
ENDROOT
BRANCH   4   7
ATOM      7  C   UNL     1       1.174   9.353  19.938  0.00  0.00    +0.000 C 
ATOM      8  O   UNL     1       0.901  10.108  19.006  0.00  0.00    +0.000 OA
ATOM      9  N   UNL     1       0.727   9.596  21.229  0.00  0.00    +0.000 N 
ATOM     10  H   UNL     1       1.135   9.147  22.048  0.00  0.00    +0.000 HD
BRANCH   9  11
ATOM     11  N   UNL     1      -0.008  10.771  21.487  0.00  0.00    +0.000 N 
ATOM     12  C   UNL     1      -0.640  10.914  22.713  0.00  0.00    +0.000 C 
ATOM     13  O   UNL     1      -0.536  10.026  23.565  0.00  0.00    +0.000 OA
ATOM     14  H   UNL     1       0.036  11.516  20.795  0.00  0.00    +0.000 HD
BRANCH  12  15
ATOM     15  C   UNL     1      -1.423  12.126  22.932  0.00  0.00    +0.000 A 
ATOM     16  C   UNL     1      -2.749  12.177  23.336  0.00  0.00    +0.000 A 
ATOM     17  C   UNL     1      -3.271  13.512  23.437  0.00  0.00    +0.000 A 
ATOM     18  C   UNL     1      -4.560  13.971  23.813  0.00  0.00    +0.000 A 
ATOM     19  C   UNL     1      -4.852  15.337  23.812  0.00  0.00    +0.000 A 
ATOM     20  C   UNL     1      -3.886  16.259  23.437  0.00  0.00    +0.000 A 
ATOM     21  C   UNL     1      -2.605  15.837  23.068  0.00  0.00    +0.000 A 
ATOM     22  C   UNL     1      -2.308  14.454  23.082  0.00  0.00    +0.000 A 
ATOM     23  S   UNL     1      -0.809  13.700  22.686  0.00  0.00    +0.000 S 
ENDBRANCH  12  15
ENDBRANCH   9  11
ENDBRANCH   4   7
BRANCH   1  24
ATOM     24  C   UNL     1       1.837   3.723  18.579  0.00  0.00    +0.000 C 
BRANCH  24  25
ATOM     25  N   UNL     1       2.733   3.124  19.584  0.00  0.00    +0.000 NA
ATOM     26  H   UNL     1       2.912   3.693  20.408  0.00  0.00    +0.000 HD
BRANCH  25  27
ATOM     27  S   UNL     1       4.179   2.419  19.089  0.00  0.00    +0.000 S 
ATOM     28  O   UNL     1       3.905   1.548  17.965  0.00  0.00    +0.000 OA
ATOM     29  O   UNL     1       4.839   1.951  20.282  0.00  0.00    +0.000 OA
BRANCH  27  34
ATOM     30  C   UNL     1       7.450   7.166  17.177  0.00  0.00    +0.000 C 
ATOM     31  C   UNL     1       6.605   6.014  17.642  0.00  0.00    +0.000 A 
ATOM     32  C   UNL     1       6.397   5.795  19.009  0.00  0.00    +0.000 A 
ATOM     33  C   UNL     1       5.636   4.707  19.439  0.00  0.00    +0.000 A 
ATOM     34  C   UNL     1       5.078   3.835  18.500  0.00  0.00    +0.000 A 
ATOM     35  C   UNL     1       5.273   4.041  17.133  0.00  0.00    +0.000 A 
ATOM     36  C   UNL     1       6.036   5.133  16.709  0.00  0.00    +0.000 A 
ENDBRANCH  27  34
ENDBRANCH  25  27
ENDBRANCH  24  25
ENDBRANCH   1  24
TORSDOF 7
ENDMDL
MODEL 2
REMARK VINA RESULT:      -8.3      0.646      1.101
REMARK  Name = 
REMARK  8 active torsions:
REMARK  status: ('A' for Active; 'I' for Inactive)
REMARK    1  A    between atoms: C_1  and  C_2
REMARK    2  A    between atoms: C_5  and  S_6
REMARK    3  A    between atoms: S_6  and  N_9
REMARK    4  A    between atoms: N_9  and  C_10
REMARK    5  A    between atoms: C_10  and  C_11
REMARK    6  A    between atoms: C_14  and  C_15
REMARK    7  A    between atoms: N_17  and  N_18
REMARK    8  A    between atoms: C_19  and  C_21
REMARK                            x       y       z     vdW  Elec       q    Type
REMARK                         _______ _______ _______ _____ _____    ______ ____
ROOT
ATOM      1  C   UNL     1       1.591   5.180  18.972  0.00  0.00    +0.000 C 
ATOM      2  C   UNL     1       1.983   5.520  20.420  0.00  0.00    +0.000 C 
ATOM      3  C   UNL     1       1.450   6.918  20.746  0.00  0.00    +0.000 C 
ATOM      4  C   UNL     1       1.963   8.004  19.771  0.00  0.00    +0.000 C 
ATOM      5  C   UNL     1       1.890   7.556  18.298  0.00  0.00    +0.000 C 
ATOM      6  C   UNL     1       2.387   6.123  18.065  0.00  0.00    +0.000 C 
ENDROOT
BRANCH   4   7
ATOM      7  C   UNL     1       1.225   9.337  19.985  0.00  0.00    +0.000 C 
ATOM      8  O   UNL     1       1.314  10.291  19.212  0.00  0.00    +0.000 OA
ATOM      9  N   UNL     1       0.372   9.362  21.078  0.00  0.00    +0.000 N 
ATOM     10  H   UNL     1       0.460   8.714  21.861  0.00  0.00    +0.000 HD
BRANCH   9  11
ATOM     11  N   UNL     1      -0.365  10.534  21.344  0.00  0.00    +0.000 N 
ATOM     12  C   UNL     1      -0.573  10.915  22.661  0.00  0.00    +0.000 C 
ATOM     13  O   UNL     1      -0.096  10.239  23.579  0.00  0.00    +0.000 OA
ATOM     14  H   UNL     1      -0.635  11.111  20.550  0.00  0.00    +0.000 HD
BRANCH  12  15
ATOM     15  C   UNL     1      -1.372  12.113  22.900  0.00  0.00    +0.000 A 
ATOM     16  C   UNL     1      -0.937  13.422  22.762  0.00  0.00    +0.000 A 
ATOM     17  C   UNL     1      -1.935  14.400  23.098  0.00  0.00    +0.000 A 
ATOM     18  C   UNL     1      -1.876  15.818  23.084  0.00  0.00    +0.000 A 
ATOM     19  C   UNL     1      -2.979  16.575  23.485  0.00  0.00    +0.000 A 
ATOM     20  C   UNL     1      -4.142  15.948  23.907  0.00  0.00    +0.000 A 
ATOM     21  C   UNL     1      -4.231  14.553  23.926  0.00  0.00    +0.000 A 
ATOM     22  C   UNL     1      -3.118  13.789  23.507  0.00  0.00    +0.000 A 
ATOM     23  S   UNL     1      -2.995  12.071  23.428  0.00  0.00    +0.000 S 
ENDBRANCH  12  15
ENDBRANCH   9  11
ENDBRANCH   4   7
BRANCH   1  24
ATOM     24  C   UNL     1       1.722   3.693  18.616  0.00  0.00    +0.000 C 
BRANCH  24  25
ATOM     25  N   UNL     1       2.617   3.070  19.607  0.00  0.00    +0.000 NA
ATOM     26  H   UNL     1       2.806   3.626  20.438  0.00  0.00    +0.000 HD
BRANCH  25  27
ATOM     27  S   UNL     1       4.053   2.358  19.095  0.00  0.00    +0.000 S 
ATOM     28  O   UNL     1       3.761   1.493  17.970  0.00  0.00    +0.000 OA
ATOM     29  O   UNL     1       4.721   1.879  20.278  0.00  0.00    +0.000 OA
BRANCH  27  34
ATOM     30  C   UNL     1       7.339   7.092  17.178  0.00  0.00    +0.000 C 
ATOM     31  C   UNL     1       6.490   5.943  17.643  0.00  0.00    +0.000 A 
ATOM     32  C   UNL     1       6.273   5.731  19.010  0.00  0.00    +0.000 A 
ATOM     33  C   UNL     1       5.509   4.647  19.442  0.00  0.00    +0.000 A 
ATOM     34  C   UNL     1       4.957   3.770  18.504  0.00  0.00    +0.000 A 
ATOM     35  C   UNL     1       5.160   3.968  17.137  0.00  0.00    +0.000 A 
ATOM     36  C   UNL     1       5.926   5.057  16.711  0.00  0.00    +0.000 A 
ENDBRANCH  27  34
ENDBRANCH  25  27
ENDBRANCH  24  25
ENDBRANCH   1  24
TORSDOF 7
ENDMDL
MODEL 3
REMARK VINA RESULT:      -7.9      6.117      8.700
REMARK  Name = 
REMARK  8 active torsions:
REMARK  status: ('A' for Active; 'I' for Inactive)
REMARK    1  A    between atoms: C_1  and  C_2
REMARK    2  A    between atoms: C_5  and  S_6
REMARK    3  A    between atoms: S_6  and  N_9
REMARK    4  A    between atoms: N_9  and  C_10
REMARK    5  A    between atoms: C_10  and  C_11
REMARK    6  A    between atoms: C_14  and  C_15
REMARK    7  A    between atoms: N_17  and  N_18
REMARK    8  A    between atoms: C_19  and  C_21
REMARK                            x       y       z     vdW  Elec       q    Type
REMARK                         _______ _______ _______ _____ _____    ______ ____
ROOT
ATOM      1  C   UNL     1       6.135   5.355  18.797  0.00  0.00    +0.000 C 
ATOM      2  C   UNL     1       7.658   5.262  18.986  0.00  0.00    +0.000 C 
ATOM      3  C   UNL     1       8.220   6.683  19.064  0.00  0.00    +0.000 C 
ATOM      4  C   UNL     1       7.876   7.540  17.823  0.00  0.00    +0.000 C 
ATOM      5  C   UNL     1       6.401   7.396  17.399  0.00  0.00    +0.000 C 
ATOM      6  C   UNL     1       5.897   5.946  17.404  0.00  0.00    +0.000 C 
ENDROOT
BRANCH   4   7
ATOM      7  C   UNL     1       8.249   9.016  18.043  0.00  0.00    +0.000 C 
ATOM      8  O   UNL     1       7.712   9.947  17.444  0.00  0.00    +0.000 OA
ATOM      9  N   UNL     1       9.187   9.236  19.042  0.00  0.00    +0.000 N 
ATOM     10  H   UNL     1       9.822   8.510  19.371  0.00  0.00    +0.000 HD
BRANCH   9  11
ATOM     11  N   UNL     1       9.578  10.559  19.332  0.00  0.00    +0.000 N 
ATOM     12  C   UNL     1       9.347  11.066  20.603  0.00  0.00    +0.000 C 
ATOM     13  O   UNL     1       8.825  10.350  21.464  0.00  0.00    +0.000 OA
ATOM     14  H   UNL     1      10.106  11.062  18.622  0.00  0.00    +0.000 HD
BRANCH  12  15
ATOM     15  C   UNL     1       9.731  12.451  20.858  0.00  0.00    +0.000 A 
ATOM     16  C   UNL     1       9.391  13.196  21.976  0.00  0.00    +0.000 A 
ATOM     17  C   UNL     1       9.880  14.547  21.941  0.00  0.00    +0.000 A 
ATOM     18  C   UNL     1       9.745  15.601  22.881  0.00  0.00    +0.000 A 
ATOM     19  C   UNL     1      10.291  16.859  22.616  0.00  0.00    +0.000 A 
ATOM     20  C   UNL     1      10.966  17.093  21.426  0.00  0.00    +0.000 A 
ATOM     21  C   UNL     1      11.121  16.071  20.484  0.00  0.00    +0.000 A 
ATOM     22  C   UNL     1      10.578  14.795  20.761  0.00  0.00    +0.000 A 
ATOM     23  S   UNL     1      10.653  13.387  19.768  0.00  0.00    +0.000 S 
ENDBRANCH  12  15
ENDBRANCH   9  11
ENDBRANCH   4   7
BRANCH   1  24
ATOM     24  C   UNL     1       5.384   4.045  19.069  0.00  0.00    +0.000 C 
BRANCH  24  25
ATOM     25  N   UNL     1       4.597   3.719  17.867  0.00  0.00    +0.000 NA
ATOM     26  H   UNL     1       4.768   4.311  17.057  0.00  0.00    +0.000 HD
BRANCH  25  27
ATOM     27  S   UNL     1       2.941   3.455  18.005  0.00  0.00    +0.000 S 
ATOM     28  O   UNL     1       2.729   2.318  18.877  0.00  0.00    +0.000 OA
ATOM     29  O   UNL     1       2.401   3.511  16.670  0.00  0.00    +0.000 OA
BRANCH  27  34
ATOM     30  C   UNL     1       1.338   8.447  21.070  0.00  0.00    +0.000 C 
ATOM     31  C   UNL     1       1.696   7.213  20.292  0.00  0.00    +0.000 A 
ATOM     32  C   UNL     1       1.589   5.948  20.882  0.00  0.00    +0.000 A 
ATOM     33  C   UNL     1       1.951   4.805  20.167  0.00  0.00    +0.000 A 
ATOM     34  C   UNL     1       2.419   4.926  18.856  0.00  0.00    +0.000 A 
ATOM     35  C   UNL     1       2.529   6.179  18.251  0.00  0.00    +0.000 A 
ATOM     36  C   UNL     1       2.165   7.320  18.973  0.00  0.00    +0.000 A 
ENDBRANCH  27  34
ENDBRANCH  25  27
ENDBRANCH  24  25
ENDBRANCH   1  24
TORSDOF 7
ENDMDL
MODEL 4
REMARK VINA RESULT:      -7.8      0.940      1.286
REMARK  Name = 
REMARK  8 active torsions:
REMARK  status: ('A' for Active; 'I' for Inactive)
REMARK    1  A    between atoms: C_1  and  C_2
REMARK    2  A    between atoms: C_5  and  S_6
REMARK    3  A    between atoms: S_6  and  N_9
REMARK    4  A    between atoms: N_9  and  C_10
REMARK    5  A    between atoms: C_10  and  C_11
REMARK    6  A    between atoms: C_14  and  C_15
REMARK    7  A    between atoms: N_17  and  N_18
REMARK    8  A    between atoms: C_19  and  C_21
REMARK                            x       y       z     vdW  Elec       q    Type
REMARK                         _______ _______ _______ _____ _____    ______ ____
ROOT
ATOM      1  C   UNL     1       1.752   6.178  18.864  0.00  0.00    +0.000 C 
ATOM      2  C   UNL     1       2.123   6.454  20.331  0.00  0.00    +0.000 C 
ATOM      3  C   UNL     1       1.443   7.757  20.760  0.00  0.00    +0.000 C 
ATOM      4  C   UNL     1       1.820   8.960  19.865  0.00  0.00    +0.000 C 
ATOM      5  C   UNL     1       1.778   8.615  18.363  0.00  0.00    +0.000 C 
ATOM      6  C   UNL     1       2.428   7.267  18.024  0.00  0.00    +0.000 C 
ENDROOT
BRANCH   4   7
ATOM      7  C   UNL     1       0.942  10.185  20.179  0.00  0.00    +0.000 C 
ATOM      8  O   UNL     1       1.108  11.288  19.658  0.00  0.00    +0.000 OA
ATOM      9  N   UNL     1      -0.119   9.936  21.037  0.00  0.00    +0.000 N 
ATOM     10  H   UNL     1      -0.140   9.136  21.669  0.00  0.00    +0.000 HD
BRANCH   9  11
ATOM     11  N   UNL     1      -0.992  10.992  21.367  0.00  0.00    +0.000 N 
ATOM     12  C   UNL     1      -1.082  11.403  22.689  0.00  0.00    +0.000 C 
ATOM     13  O   UNL     1      -0.386  10.857  23.551  0.00  0.00    +0.000 OA
ATOM     14  H   UNL     1      -1.454  11.478  20.602  0.00  0.00    +0.000 HD
BRANCH  12  15
ATOM     15  C   UNL     1      -2.025  12.473  23.001  0.00  0.00    +0.000 A 
ATOM     16  C   UNL     1      -3.403  12.345  23.083  0.00  0.00    +0.000 A 
ATOM     17  C   UNL     1      -4.081  13.578  23.373  0.00  0.00    +0.000 A 
ATOM     18  C   UNL     1      -5.464  13.853  23.535  0.00  0.00    +0.000 A 
ATOM     19  C   UNL     1      -5.900  15.156  23.790  0.00  0.00    +0.000 A 
ATOM     20  C   UNL     1      -4.986  16.194  23.883  0.00  0.00    +0.000 A 
ATOM     21  C   UNL     1      -3.617  15.953  23.735  0.00  0.00    +0.000 A 
ATOM     22  C   UNL     1      -3.177  14.632  23.489  0.00  0.00    +0.000 A 
ATOM     23  S   UNL     1      -1.552  14.088  23.287  0.00  0.00    +0.000 S 
ENDBRANCH  12  15
ENDBRANCH   9  11
ENDBRANCH   4   7
BRANCH   1  24
ATOM     24  C   UNL     1       2.042   4.744  18.399  0.00  0.00    +0.000 C 
BRANCH  24  25
ATOM     25  N   UNL     1       3.023   4.159  19.330  0.00  0.00    +0.000 NA
ATOM     26  H   UNL     1       3.324   4.766  20.089  0.00  0.00    +0.000 HD
BRANCH  25  27
ATOM     27  S   UNL     1       4.367   3.352  18.718  0.00  0.00    +0.000 S 
ATOM     28  O   UNL     1       3.992   2.713  17.474  0.00  0.00    +0.000 OA
ATOM     29  O   UNL     1       4.941   2.617  19.816  0.00  0.00    +0.000 OA
BRANCH  27  34
ATOM     30  C   UNL     1       7.903   8.133  17.485  0.00  0.00    +0.000 C 
ATOM     31  C   UNL     1       7.060   6.924  17.776  0.00  0.00    +0.000 A 
ATOM     32  C   UNL     1       6.058   6.528  16.882  0.00  0.00    +0.000 A 
ATOM     33  C   UNL     1       5.256   5.423  17.169  0.00  0.00    +0.000 A 
ATOM     34  C   UNL     1       5.457   4.707  18.352  0.00  0.00    +0.000 A 
ATOM     35  C   UNL     1       6.454   5.086  19.253  0.00  0.00    +0.000 A 
ATOM     36  C   UNL     1       7.254   6.195  18.960  0.00  0.00    +0.000 A 
ENDBRANCH  27  34
ENDBRANCH  25  27
ENDBRANCH  24  25
ENDBRANCH   1  24
TORSDOF 7
ENDMDL
MODEL 5
REMARK VINA RESULT:      -7.7      2.372      2.958
REMARK  Name = 
REMARK  8 active torsions:
REMARK  status: ('A' for Active; 'I' for Inactive)
REMARK    1  A    between atoms: C_1  and  C_2
REMARK    2  A    between atoms: C_5  and  S_6
REMARK    3  A    between atoms: S_6  and  N_9
REMARK    4  A    between atoms: N_9  and  C_10
REMARK    5  A    between atoms: C_10  and  C_11
REMARK    6  A    between atoms: C_14  and  C_15
REMARK    7  A    between atoms: N_17  and  N_18
REMARK    8  A    between atoms: C_19  and  C_21
REMARK                            x       y       z     vdW  Elec       q    Type
REMARK                         _______ _______ _______ _____ _____    ______ ____
ROOT
ATOM      1  C   UNL     1       1.438   5.044  19.281  0.00  0.00    +0.000 C 
ATOM      2  C   UNL     1       2.100   5.847  20.413  0.00  0.00    +0.000 C 
ATOM      3  C   UNL     1       1.804   7.332  20.184  0.00  0.00    +0.000 C 
ATOM      4  C   UNL     1       2.282   7.838  18.803  0.00  0.00    +0.000 C 
ATOM      5  C   UNL     1       1.915   6.870  17.661  0.00  0.00    +0.000 C 
ATOM      6  C   UNL     1       2.186   5.396  17.992  0.00  0.00    +0.000 C 
ENDROOT
BRANCH   4   7
ATOM      7  C   UNL     1       1.760   9.257  18.518  0.00  0.00    +0.000 C 
ATOM      8  O   UNL     1       2.046   9.893  17.504  0.00  0.00    +0.000 OA
ATOM      9  N   UNL     1       0.863   9.746  19.457  0.00  0.00    +0.000 N 
ATOM     10  H   UNL     1       0.800   9.376  20.405  0.00  0.00    +0.000 HD
BRANCH   9  11
ATOM     11  N   UNL     1       0.312  11.030  19.271  0.00  0.00    +0.000 N 
ATOM     12  C   UNL     1       0.598  12.026  20.195  0.00  0.00    +0.000 C 
ATOM     13  O   UNL     1       1.341  11.781  21.150  0.00  0.00    +0.000 OA
ATOM     14  H   UNL     1      -0.198  11.205  18.408  0.00  0.00    +0.000 HD
BRANCH  12  15
ATOM     15  C   UNL     1      -0.019  13.333  19.992  0.00  0.00    +0.000 A 
ATOM     16  C   UNL     1       0.370  14.280  19.057  0.00  0.00    +0.000 A 
ATOM     17  C   UNL     1      -0.400  15.492  19.108  0.00  0.00    +0.000 A 
ATOM     18  C   UNL     1      -0.309  16.674  18.328  0.00  0.00    +0.000 A 
ATOM     19  C   UNL     1      -1.160  17.753  18.579  0.00  0.00    +0.000 A 
ATOM     20  C   UNL     1      -2.099  17.682  19.598  0.00  0.00    +0.000 A 
ATOM     21  C   UNL     1      -2.216  16.527  20.378  0.00  0.00    +0.000 A 
ATOM     22  C   UNL     1      -1.362  15.432  20.114  0.00  0.00    +0.000 A 
ATOM     23  S   UNL     1      -1.328  13.910  20.924  0.00  0.00    +0.000 S 
ENDBRANCH  12  15
ENDBRANCH   9  11
ENDBRANCH   4   7
BRANCH   1  24
ATOM     24  C   UNL     1       1.323   3.538  19.560  0.00  0.00    +0.000 C 
BRANCH  24  25
ATOM     25  N   UNL     1       2.204   2.837  18.609  0.00  0.00    +0.000 NA
ATOM     26  H   UNL     1       1.757   2.119  18.043  0.00  0.00    +0.000 HD
BRANCH  25  27
ATOM     27  S   UNL     1       3.697   2.263  19.131  0.00  0.00    +0.000 S 
ATOM     28  O   UNL     1       4.000   1.045  18.407  0.00  0.00    +0.000 OA
ATOM     29  O   UNL     1       3.679   2.315  20.571  0.00  0.00    +0.000 OA
BRANCH  27  34
ATOM     30  C   UNL     1       7.236   6.748  17.073  0.00  0.00    +0.000 C 
ATOM     31  C   UNL     1       6.397   5.616  17.593  0.00  0.00    +0.000 A 
ATOM     32  C   UNL     1       5.830   4.691  16.708  0.00  0.00    +0.000 A 
ATOM     33  C   UNL     1       5.026   3.657  17.190  0.00  0.00    +0.000 A 
ATOM     34  C   UNL     1       4.788   3.546  18.562  0.00  0.00    +0.000 A 
ATOM     35  C   UNL     1       5.347   4.458  19.459  0.00  0.00    +0.000 A 
ATOM     36  C   UNL     1       6.152   5.491  18.969  0.00  0.00    +0.000 A 
ENDBRANCH  27  34
ENDBRANCH  25  27
ENDBRANCH  24  25
ENDBRANCH   1  24
TORSDOF 7
ENDMDL
MODEL 6
REMARK VINA RESULT:      -7.6      5.457      8.787
REMARK  Name = 
REMARK  8 active torsions:
REMARK  status: ('A' for Active; 'I' for Inactive)
REMARK    1  A    between atoms: C_1  and  C_2
REMARK    2  A    between atoms: C_5  and  S_6
REMARK    3  A    between atoms: S_6  and  N_9
REMARK    4  A    between atoms: N_9  and  C_10
REMARK    5  A    between atoms: C_10  and  C_11
REMARK    6  A    between atoms: C_14  and  C_15
REMARK    7  A    between atoms: N_17  and  N_18
REMARK    8  A    between atoms: C_19  and  C_21
REMARK                            x       y       z     vdW  Elec       q    Type
REMARK                         _______ _______ _______ _____ _____    ______ ____
ROOT
ATOM      1  C   UNL     1       5.616   4.309  17.298  0.00  0.00    +0.000 C 
ATOM      2  C   UNL     1       5.842   4.778  18.745  0.00  0.00    +0.000 C 
ATOM      3  C   UNL     1       6.183   6.270  18.718  0.00  0.00    +0.000 C 
ATOM      4  C   UNL     1       7.414   6.594  17.840  0.00  0.00    +0.000 C 
ATOM      5  C   UNL     1       7.381   5.862  16.484  0.00  0.00    +0.000 C 
ATOM      6  C   UNL     1       6.973   4.387  16.591  0.00  0.00    +0.000 C 
ENDROOT
BRANCH   4   7
ATOM      7  C   UNL     1       7.579   8.112  17.649  0.00  0.00    +0.000 C 
ATOM      8  O   UNL     1       6.779   8.806  17.022  0.00  0.00    +0.000 OA
ATOM      9  N   UNL     1       8.662   8.668  18.314  0.00  0.00    +0.000 N 
ATOM     10  H   UNL     1       9.464   8.117  18.618  0.00  0.00    +0.000 HD
BRANCH   9  11
ATOM     11  N   UNL     1       8.883  10.057  18.217  0.00  0.00    +0.000 N 
ATOM     12  C   UNL     1       9.214  10.768  19.362  0.00  0.00    +0.000 C 
ATOM     13  O   UNL     1       9.330  10.176  20.440  0.00  0.00    +0.000 OA
ATOM     14  H   UNL     1       8.886  10.470  17.287  0.00  0.00    +0.000 HD
BRANCH  12  15
ATOM     15  C   UNL     1       9.400  12.210  19.232  0.00  0.00    +0.000 A 
ATOM     16  C   UNL     1       9.929  12.866  18.131  0.00  0.00    +0.000 A 
ATOM     17  C   UNL     1      10.024  14.290  18.298  0.00  0.00    +0.000 A 
ATOM     18  C   UNL     1      10.502  15.291  17.414  0.00  0.00    +0.000 A 
ATOM     19  C   UNL     1      10.525  16.631  17.809  0.00  0.00    +0.000 A 
ATOM     20  C   UNL     1      10.085  16.995  19.073  0.00  0.00    +0.000 A 
ATOM     21  C   UNL     1       9.602  16.031  19.964  0.00  0.00    +0.000 A 
ATOM     22  C   UNL     1       9.568  14.678  19.556  0.00  0.00    +0.000 A 
ATOM     23  S   UNL     1       9.007  13.323  20.465  0.00  0.00    +0.000 S 
ENDBRANCH  12  15
ENDBRANCH   9  11
ENDBRANCH   4   7
BRANCH   1  24
ATOM     24  C   UNL     1       4.913   2.950  17.178  0.00  0.00    +0.000 C 
BRANCH  24  25
ATOM     25  N   UNL     1       4.096   2.758  18.390  0.00  0.00    +0.000 NA
ATOM     26  H   UNL     1       4.298   1.917  18.927  0.00  0.00    +0.000 HD
BRANCH  25  27
ATOM     27  S   UNL     1       2.428   2.959  18.307  0.00  0.00    +0.000 S 
ATOM     28  O   UNL     1       1.803   1.972  19.163  0.00  0.00    +0.000 OA
ATOM     29  O   UNL     1       2.097   3.084  16.910  0.00  0.00    +0.000 OA
BRANCH  27  34
ATOM     30  C   UNL     1       1.565   8.476  20.695  0.00  0.00    +0.000 C 
ATOM     31  C   UNL     1       1.817   7.109  20.124  0.00  0.00    +0.000 A 
ATOM     32  C   UNL     1       2.268   6.964  18.807  0.00  0.00    +0.000 A 
ATOM     33  C   UNL     1       2.473   5.693  18.269  0.00  0.00    +0.000 A 
ATOM     34  C   UNL     1       2.228   4.561  19.050  0.00  0.00    +0.000 A 
ATOM     35  C   UNL     1       1.781   4.687  20.367  0.00  0.00    +0.000 A 
ATOM     36  C   UNL     1       1.578   5.964  20.900  0.00  0.00    +0.000 A 
ENDBRANCH  27  34
ENDBRANCH  25  27
ENDBRANCH  24  25
ENDBRANCH   1  24
TORSDOF 7
ENDMDL
MODEL 7
REMARK VINA RESULT:      -7.6      1.712      2.288
REMARK  Name = 
REMARK  8 active torsions:
REMARK  status: ('A' for Active; 'I' for Inactive)
REMARK    1  A    between atoms: C_1  and  C_2
REMARK    2  A    between atoms: C_5  and  S_6
REMARK    3  A    between atoms: S_6  and  N_9
REMARK    4  A    between atoms: N_9  and  C_10
REMARK    5  A    between atoms: C_10  and  C_11
REMARK    6  A    between atoms: C_14  and  C_15
REMARK    7  A    between atoms: N_17  and  N_18
REMARK    8  A    between atoms: C_19  and  C_21
REMARK                            x       y       z     vdW  Elec       q    Type
REMARK                         _______ _______ _______ _____ _____    ______ ____
ROOT
ATOM      1  C   UNL     1       1.925   6.873  18.567  0.00  0.00    +0.000 C 
ATOM      2  C   UNL     1       2.167   7.182  20.054  0.00  0.00    +0.000 C 
ATOM      3  C   UNL     1       1.295   8.379  20.443  0.00  0.00    +0.000 C 
ATOM      4  C   UNL     1       1.561   9.630  19.574  0.00  0.00    +0.000 C 
ATOM      5  C   UNL     1       1.655   9.296  18.072  0.00  0.00    +0.000 C 
ATOM      6  C   UNL     1       2.498   8.049  17.770  0.00  0.00    +0.000 C 
ENDROOT
BRANCH   4   7
ATOM      7  C   UNL     1       0.510  10.724  19.835  0.00  0.00    +0.000 C 
ATOM      8  O   UNL     1      -0.172  11.233  18.947  0.00  0.00    +0.000 OA
ATOM      9  N   UNL     1       0.321  11.041  21.173  0.00  0.00    +0.000 N 
ATOM     10  H   UNL     1       1.017  10.840  21.891  0.00  0.00    +0.000 HD
BRANCH   9  11
ATOM     11  N   UNL     1      -0.637  12.017  21.514  0.00  0.00    +0.000 N 
ATOM     12  C   UNL     1      -1.273  11.934  22.745  0.00  0.00    +0.000 C 
ATOM     13  O   UNL     1      -0.980  11.025  23.527  0.00  0.00    +0.000 OA
ATOM     14  H   UNL     1      -0.755  12.805  20.880  0.00  0.00    +0.000 HD
BRANCH  12  15
ATOM     15  C   UNL     1      -2.286  12.940  23.050  0.00  0.00    +0.000 A 
ATOM     16  C   UNL     1      -2.127  14.022  23.902  0.00  0.00    +0.000 A 
ATOM     17  C   UNL     1      -3.309  14.828  24.037  0.00  0.00    +0.000 A 
ATOM     18  C   UNL     1      -3.542  16.000  24.803  0.00  0.00    +0.000 A 
ATOM     19  C   UNL     1      -4.800  16.607  24.801  0.00  0.00    +0.000 A 
ATOM     20  C   UNL     1      -5.837  16.067  24.055  0.00  0.00    +0.000 A 
ATOM     21  C   UNL     1      -5.635  14.916  23.286  0.00  0.00    +0.000 A 
ATOM     22  C   UNL     1      -4.357  14.311  23.279  0.00  0.00    +0.000 A 
ATOM     23  S   UNL     1      -3.867  12.908  22.405  0.00  0.00    +0.000 S 
ENDBRANCH  12  15
ENDBRANCH   9  11
ENDBRANCH   4   7
BRANCH   1  24
ATOM     24  C   UNL     1       2.430   5.494  18.119  0.00  0.00    +0.000 C 
BRANCH  24  25
ATOM     25  N   UNL     1       3.879   5.439  18.383  0.00  0.00    +0.000 NA
ATOM     26  H   UNL     1       4.425   6.208  18.000  0.00  0.00    +0.000 HD
BRANCH  25  27
ATOM     27  S   UNL     1       4.715   4.001  18.127  0.00  0.00    +0.000 S 
ATOM     28  O   UNL     1       3.751   2.942  17.912  0.00  0.00    +0.000 OA
ATOM     29  O   UNL     1       5.726   3.924  19.150  0.00  0.00    +0.000 OA
BRANCH  27  34
ATOM     30  C   UNL     1       7.673   4.981  12.913  0.00  0.00    +0.000 C 
ATOM     31  C   UNL     1       6.922   4.777  14.198  0.00  0.00    +0.000 A 
ATOM     32  C   UNL     1       7.549   5.006  15.429  0.00  0.00    +0.000 A 
ATOM     33  C   UNL     1       6.859   4.788  16.622  0.00  0.00    +0.000 A 
ATOM     34  C   UNL     1       5.536   4.340  16.587  0.00  0.00    +0.000 A 
ATOM     35  C   UNL     1       4.893   4.110  15.369  0.00  0.00    +0.000 A 
ATOM     36  C   UNL     1       5.591   4.331  14.177  0.00  0.00    +0.000 A 
ENDBRANCH  27  34
ENDBRANCH  25  27
ENDBRANCH  24  25
ENDBRANCH   1  24
TORSDOF 7
ENDMDL
MODEL 8
REMARK VINA RESULT:      -7.5      1.660      2.247
REMARK  Name = 
REMARK  8 active torsions:
REMARK  status: ('A' for Active; 'I' for Inactive)
REMARK    1  A    between atoms: C_1  and  C_2
REMARK    2  A    between atoms: C_5  and  S_6
REMARK    3  A    between atoms: S_6  and  N_9
REMARK    4  A    between atoms: N_9  and  C_10
REMARK    5  A    between atoms: C_10  and  C_11
REMARK    6  A    between atoms: C_14  and  C_15
REMARK    7  A    between atoms: N_17  and  N_18
REMARK    8  A    between atoms: C_19  and  C_21
REMARK                            x       y       z     vdW  Elec       q    Type
REMARK                         _______ _______ _______ _____ _____    ______ ____
ROOT
ATOM      1  C   UNL     1       2.317   7.161  18.356  0.00  0.00    +0.000 C 
ATOM      2  C   UNL     1       2.381   7.316  19.884  0.00  0.00    +0.000 C 
ATOM      3  C   UNL     1       1.196   8.177  20.330  0.00  0.00    +0.000 C 
ATOM      4  C   UNL     1       1.162   9.562  19.641  0.00  0.00    +0.000 C 
ATOM      5  C   UNL     1       1.429   9.474  18.126  0.00  0.00    +0.000 C 
ATOM      6  C   UNL     1       2.594   8.545  17.759  0.00  0.00    +0.000 C 
ENDROOT
BRANCH   4   7
ATOM      7  C   UNL     1      -0.159  10.296  19.932  0.00  0.00    +0.000 C 
ATOM      8  O   UNL     1      -1.124  10.281  19.168  0.00  0.00    +0.000 OA
ATOM      9  N   UNL     1      -0.220  10.915  21.172  0.00  0.00    +0.000 N 
ATOM     10  H   UNL     1       0.612  11.163  21.706  0.00  0.00    +0.000 HD
BRANCH   9  11
ATOM     11  N   UNL     1      -1.399  11.596  21.538  0.00  0.00    +0.000 N 
ATOM     12  C   UNL     1      -1.327  12.603  22.490  0.00  0.00    +0.000 C 
ATOM     13  O   UNL     1      -0.236  12.902  22.986  0.00  0.00    +0.000 OA
ATOM     14  H   UNL     1      -2.247  11.386  21.016  0.00  0.00    +0.000 HD
BRANCH  12  15
ATOM     15  C   UNL     1      -2.572  13.261  22.873  0.00  0.00    +0.000 A 
ATOM     16  C   UNL     1      -3.788  12.634  23.097  0.00  0.00    +0.000 A 
ATOM     17  C   UNL     1      -4.853  13.540  23.429  0.00  0.00    +0.000 A 
ATOM     18  C   UNL     1      -6.218  13.288  23.723  0.00  0.00    +0.000 A 
ATOM     19  C   UNL     1      -7.089  14.346  23.995  0.00  0.00    +0.000 A 
ATOM     20  C   UNL     1      -6.629  15.655  23.972  0.00  0.00    +0.000 A 
ATOM     21  C   UNL     1      -5.287  15.933  23.691  0.00  0.00    +0.000 A 
ATOM     22  C   UNL     1      -4.405  14.859  23.430  0.00  0.00    +0.000 A 
ATOM     23  S   UNL     1      -2.720  14.950  23.076  0.00  0.00    +0.000 S 
ENDBRANCH  12  15
ENDBRANCH   9  11
ENDBRANCH   4   7
BRANCH   1  24
ATOM     24  C   UNL     1       3.202   6.038  17.797  0.00  0.00    +0.000 C 
BRANCH  24  25
ATOM     25  N   UNL     1       3.777   5.309  18.941  0.00  0.00    +0.000 NA
ATOM     26  H   UNL     1       4.268   5.881  19.625  0.00  0.00    +0.000 HD
BRANCH  25  27
ATOM     27  S   UNL     1       4.668   3.908  18.668  0.00  0.00    +0.000 S 
ATOM     28  O   UNL     1       3.745   2.809  18.467  0.00  0.00    +0.000 OA
ATOM     29  O   UNL     1       5.699   3.871  19.674  0.00  0.00    +0.000 OA
BRANCH  27  34
ATOM     30  C   UNL     1       7.512   5.043  13.423  0.00  0.00    +0.000 C 
ATOM     31  C   UNL     1       6.783   4.796  14.713  0.00  0.00    +0.000 A 
ATOM     32  C   UNL     1       7.339   5.208  15.930  0.00  0.00    +0.000 A 
ATOM     33  C   UNL     1       6.674   4.952  17.130  0.00  0.00    +0.000 A 
ATOM     34  C   UNL     1       5.447   4.283  17.115  0.00  0.00    +0.000 A 
ATOM     35  C   UNL     1       4.877   3.868  15.910  0.00  0.00    +0.000 A 
ATOM     36  C   UNL     1       5.548   4.129  14.712  0.00  0.00    +0.000 A 
ENDBRANCH  27  34
ENDBRANCH  25  27
ENDBRANCH  24  25
ENDBRANCH   1  24
TORSDOF 7
ENDMDL
MODEL 9
REMARK VINA RESULT:      -7.5      5.852      8.901
REMARK  Name = 
REMARK  8 active torsions:
REMARK  status: ('A' for Active; 'I' for Inactive)
REMARK    1  A    between atoms: C_1  and  C_2
REMARK    2  A    between atoms: C_5  and  S_6
REMARK    3  A    between atoms: S_6  and  N_9
REMARK    4  A    between atoms: N_9  and  C_10
REMARK    5  A    between atoms: C_10  and  C_11
REMARK    6  A    between atoms: C_14  and  C_15
REMARK    7  A    between atoms: N_17  and  N_18
REMARK    8  A    between atoms: C_19  and  C_21
REMARK                            x       y       z     vdW  Elec       q    Type
REMARK                         _______ _______ _______ _____ _____    ______ ____
ROOT
ATOM      1  C   UNL     1       5.944   4.898  17.100  0.00  0.00    +0.000 C 
ATOM      2  C   UNL     1       6.936   4.807  18.271  0.00  0.00    +0.000 C 
ATOM      3  C   UNL     1       7.275   6.230  18.724  0.00  0.00    +0.000 C 
ATOM      4  C   UNL     1       7.850   7.107  17.587  0.00  0.00    +0.000 C 
ATOM      5  C   UNL     1       7.057   6.964  16.273  0.00  0.00    +0.000 C 
ATOM      6  C   UNL     1       6.705   5.512  15.921  0.00  0.00    +0.000 C 
ENDROOT
BRANCH   4   7
ATOM      7  C   UNL     1       7.953   8.580  18.017  0.00  0.00    +0.000 C 
ATOM      8  O   UNL     1       7.176   9.454  17.633  0.00  0.00    +0.000 OA
ATOM      9  N   UNL     1       8.945   8.846  18.950  0.00  0.00    +0.000 N 
ATOM     10  H   UNL     1       9.745   8.231  19.095  0.00  0.00    +0.000 HD
BRANCH   9  11
ATOM     11  N   UNL     1       9.103  10.165  19.422  0.00  0.00    +0.000 N 
ATOM     12  C   UNL     1       9.872  11.056  18.687  0.00  0.00    +0.000 C 
ATOM     13  O   UNL     1      10.388  10.691  17.626  0.00  0.00    +0.000 OA
ATOM     14  H   UNL     1       8.564  10.441  20.240  0.00  0.00    +0.000 HD
BRANCH  12  15
ATOM     15  C   UNL     1      10.045  12.402  19.225  0.00  0.00    +0.000 A 
ATOM     16  C   UNL     1      10.026  12.750  20.566  0.00  0.00    +0.000 A 
ATOM     17  C   UNL     1      10.189  14.159  20.799  0.00  0.00    +0.000 A 
ATOM     18  C   UNL     1      10.225  14.894  22.012  0.00  0.00    +0.000 A 
ATOM     19  C   UNL     1      10.369  16.284  21.993  0.00  0.00    +0.000 A 
ATOM     20  C   UNL     1      10.473  16.959  20.786  0.00  0.00    +0.000 A 
ATOM     21  C   UNL     1      10.447  16.261  19.575  0.00  0.00    +0.000 A 
ATOM     22  C   UNL     1      10.315  14.854  19.598  0.00  0.00    +0.000 A 
ATOM     23  S   UNL     1      10.273  13.783  18.247  0.00  0.00    +0.000 S 
ENDBRANCH  12  15
ENDBRANCH   9  11
ENDBRANCH   4   7
BRANCH   1  24
ATOM     24  C   UNL     1       5.227   3.580  16.777  0.00  0.00    +0.000 C 
BRANCH  24  25
ATOM     25  N   UNL     1       4.587   3.101  18.015  0.00  0.00    +0.000 NA
ATOM     26  H   UNL     1       4.979   2.250  18.411  0.00  0.00    +0.000 HD
BRANCH  25  27
ATOM     27  S   UNL     1       2.909   3.016  18.101  0.00  0.00    +0.000 S 
ATOM     28  O   UNL     1       2.548   1.886  18.933  0.00  0.00    +0.000 OA
ATOM     29  O   UNL     1       2.418   3.167  16.755  0.00  0.00    +0.000 OA
BRANCH  27  34
ATOM     30  C   UNL     1       1.431   8.177  20.942  0.00  0.00    +0.000 C 
ATOM     31  C   UNL     1       1.833   6.898  20.263  0.00  0.00    +0.000 A 
ATOM     32  C   UNL     1       2.438   6.926  19.001  0.00  0.00    +0.000 A 
ATOM     33  C   UNL     1       2.782   5.736  18.359  0.00  0.00    +0.000 A 
ATOM     34  C   UNL     1       2.524   4.512  18.982  0.00  0.00    +0.000 A 
ATOM     35  C   UNL     1       1.925   4.465  20.242  0.00  0.00    +0.000 A 
ATOM     36  C   UNL     1       1.582   5.662  20.879  0.00  0.00    +0.000 A 
ENDBRANCH  27  34
ENDBRANCH  25  27
ENDBRANCH  24  25
ENDBRANCH   1  24
TORSDOF 7
ENDMDL
