MODEL 1
REMARK VINA RESULT:      -8.2      0.000      0.000
REMARK  Name = 
REMARK  6 active torsions:
REMARK  status: ('A' for Active; 'I' for Inactive)
REMARK    1  A    between atoms: C_1  and  C_2
REMARK    2  A    between atoms: C_2  and  C_3
REMARK    3  A    between atoms: C_3  and  N_4
REMARK    4  A    between atoms: C_6  and  N_7
REMARK    5  A    between atoms: N_7  and  C_8
REMARK    6  A    between atoms: N_11  and  C_12
REMARK                            x       y       z     vdW  Elec       q    Type
REMARK                         _______ _______ _______ _____ _____    ______ ____
ROOT
ATOM      1  C   UNL     1       6.785   4.753  16.825  0.00  0.00    +0.000 C 
ATOM      2  C   UNL     1       7.409   5.470  18.013  0.00  0.00    +0.000 C 
ATOM      3  C   UNL     1       6.563   5.007  19.178  0.00  0.00    +0.000 C 
ATOM      4  N   UNL     1       5.238   4.849  18.623  0.00  0.00    +0.000 N 
ATOM      5  C   UNL     1       5.295   4.783  17.216  0.00  0.00    +0.000 C 
ATOM      6  O   UNL     1       4.368   4.798  16.419  0.00  0.00    +0.000 OA
ENDROOT
BRANCH   4   7
ATOM      7  C   UNL     1       4.090   4.603  19.435  0.00  0.00    +0.000 A 
ATOM      8  C   UNL     1       3.124   5.589  19.687  0.00  0.00    +0.000 A 
ATOM      9  F   UNL     1       3.196   6.798  19.112  0.00  0.00    +0.000 F 
ATOM     10  C   UNL     1       1.975   5.326  20.444  0.00  0.00    +0.000 A 
ATOM     11  C   UNL     1       1.756   4.059  20.975  0.00  0.00    +0.000 A 
ATOM     12  C   UNL     1       2.693   3.061  20.744  0.00  0.00    +0.000 A 
ATOM     13  C   UNL     1       3.835   3.332  19.983  0.00  0.00    +0.000 A 
ATOM     14  F   UNL     1       4.705   2.323  19.833  0.00  0.00    +0.000 F 
ENDBRANCH   4   7
BRANCH   1  15
ATOM     15  N   UNL     1       7.057   5.460  15.579  0.00  0.00    +0.000 N 
ATOM     16  H   UNL     1       7.555   6.343  15.705  0.00  0.00    +0.000 HD
BRANCH  15  19
ATOM     17  N   UNL     1       6.265   3.759  12.612  0.00  0.00    +0.000 N 
ATOM     18  C   UNL     1       5.961   4.028  13.919  0.00  0.00    +0.000 A 
ATOM     19  C   UNL     1       6.925   4.901  14.356  0.00  0.00    +0.000 A 
ATOM     20  C   UNL     1       7.758   5.106  13.238  0.00  0.00    +0.000 A 
ATOM     21  N   UNL     1       7.363   4.405  12.171  0.00  0.00    +0.000 NA
BRANCH  17  22
ATOM     22  C   UNL     1       5.525   2.901  11.704  0.00  0.00    +0.000 C 
BRANCH  22  24
ATOM     23  C   UNL     1       3.573   3.581  10.217  0.00  0.00    +0.000 C 
ATOM     24  C   UNL     1       4.031   3.218  11.622  0.00  0.00    +0.000 C 
ENDBRANCH  22  24
ENDBRANCH  17  22
ENDBRANCH  15  19
ENDBRANCH   1  15
TORSDOF 5
ENDMDL
MODEL 2
REMARK VINA RESULT:      -8.2      0.819      2.104
REMARK  Name = 
REMARK  6 active torsions:
REMARK  status: ('A' for Active; 'I' for Inactive)
REMARK    1  A    between atoms: C_1  and  C_2
REMARK    2  A    between atoms: C_2  and  C_3
REMARK    3  A    between atoms: C_3  and  N_4
REMARK    4  A    between atoms: C_6  and  N_7
REMARK    5  A    between atoms: N_7  and  C_8
REMARK    6  A    between atoms: N_11  and  C_12
REMARK                            x       y       z     vdW  Elec       q    Type
REMARK                         _______ _______ _______ _____ _____    ______ ____
ROOT
ATOM      1  C   UNL     1       6.525   4.810  16.694  0.00  0.00    +0.000 C 
ATOM      2  C   UNL     1       7.067   5.698  17.803  0.00  0.00    +0.000 C 
ATOM      3  C   UNL     1       6.356   5.183  19.035  0.00  0.00    +0.000 C 
ATOM      4  N   UNL     1       5.056   4.771  18.558  0.00  0.00    +0.000 N 
ATOM      5  C   UNL     1       5.067   4.620  17.156  0.00  0.00    +0.000 C 
ATOM      6  O   UNL     1       4.120   4.429  16.407  0.00  0.00    +0.000 OA
ENDROOT
BRANCH   4   7
ATOM      7  C   UNL     1       3.998   4.396  19.440  0.00  0.00    +0.000 A 
ATOM      8  C   UNL     1       3.881   3.098  19.963  0.00  0.00    +0.000 A 
ATOM      9  F   UNL     1       4.807   2.161  19.714  0.00  0.00    +0.000 F 
ATOM     10  C   UNL     1       2.870   2.752  20.866  0.00  0.00    +0.000 A 
ATOM     11  C   UNL     1       1.937   3.699  21.279  0.00  0.00    +0.000 A 
ATOM     12  C   UNL     1       2.025   4.992  20.781  0.00  0.00    +0.000 A 
ATOM     13  C   UNL     1       3.042   5.330  19.882  0.00  0.00    +0.000 A 
ATOM     14  F   UNL     1       3.039   6.589  19.424  0.00  0.00    +0.000 F 
ENDBRANCH   4   7
BRANCH   1  15
ATOM     15  N   UNL     1       6.625   5.466  15.395  0.00  0.00    +0.000 N 
ATOM     16  H   UNL     1       6.889   6.451  15.449  0.00  0.00    +0.000 HD
BRANCH  15  19
ATOM     17  N   UNL     1       6.241   3.462  12.538  0.00  0.00    +0.000 N 
ATOM     18  C   UNL     1       5.809   3.802  13.791  0.00  0.00    +0.000 A 
ATOM     19  C   UNL     1       6.646   4.801  14.219  0.00  0.00    +0.000 A 
ATOM     20  C   UNL     1       7.543   5.000  13.151  0.00  0.00    +0.000 A 
ATOM     21  N   UNL     1       7.304   4.180  12.122  0.00  0.00    +0.000 NA
BRANCH  17  22
ATOM     22  C   UNL     1       5.662   2.464  11.657  0.00  0.00    +0.000 C 
BRANCH  22  24
ATOM     23  C   UNL     1       6.163  -0.004  11.276  0.00  0.00    +0.000 C 
ATOM     24  C   UNL     1       6.663   1.428  11.143  0.00  0.00    +0.000 C 
ENDBRANCH  22  24
ENDBRANCH  17  22
ENDBRANCH  15  19
ENDBRANCH   1  15
TORSDOF 5
ENDMDL
MODEL 3
REMARK VINA RESULT:      -7.9      1.426      1.632
REMARK  Name = 
REMARK  6 active torsions:
REMARK  status: ('A' for Active; 'I' for Inactive)
REMARK    1  A    between atoms: C_1  and  C_2
REMARK    2  A    between atoms: C_2  and  C_3
REMARK    3  A    between atoms: C_3  and  N_4
REMARK    4  A    between atoms: C_6  and  N_7
REMARK    5  A    between atoms: N_7  and  C_8
REMARK    6  A    between atoms: N_11  and  C_12
REMARK                            x       y       z     vdW  Elec       q    Type
REMARK                         _______ _______ _______ _____ _____    ______ ____
ROOT
ATOM      1  C   UNL     1       6.260   5.745  16.948  0.00  0.00    +0.000 C 
ATOM      2  C   UNL     1       5.205   6.442  16.102  0.00  0.00    +0.000 C 
ATOM      3  C   UNL     1       3.991   6.450  17.004  0.00  0.00    +0.000 C 
ATOM      4  N   UNL     1       4.091   5.222  17.758  0.00  0.00    +0.000 N 
ATOM      5  C   UNL     1       5.400   4.702  17.688  0.00  0.00    +0.000 C 
ATOM      6  O   UNL     1       5.806   3.617  18.078  0.00  0.00    +0.000 OA
ENDROOT
BRANCH   4   7
ATOM      7  C   UNL     1       3.037   4.748  18.597  0.00  0.00    +0.000 A 
ATOM      8  C   UNL     1       2.627   5.436  19.749  0.00  0.00    +0.000 A 
ATOM      9  F   UNL     1       3.161   6.621  20.080  0.00  0.00    +0.000 F 
ATOM     10  C   UNL     1       1.560   4.991  20.538  0.00  0.00    +0.000 A 
ATOM     11  C   UNL     1       0.864   3.835  20.197  0.00  0.00    +0.000 A 
ATOM     12  C   UNL     1       1.245   3.131  19.062  0.00  0.00    +0.000 A 
ATOM     13  C   UNL     1       2.309   3.586  18.277  0.00  0.00    +0.000 A 
ATOM     14  F   UNL     1       2.633   2.833  17.218  0.00  0.00    +0.000 F 
ENDBRANCH   4   7
BRANCH   1  15
ATOM     15  N   UNL     1       7.290   5.138  16.113  0.00  0.00    +0.000 N 
ATOM     16  H   UNL     1       8.107   4.815  16.634  0.00  0.00    +0.000 HD
BRANCH  15  19
ATOM     17  N   UNL     1       6.403   3.848  12.971  0.00  0.00    +0.000 N 
ATOM     18  C   UNL     1       6.225   3.841  14.328  0.00  0.00    +0.000 A 
ATOM     19  C   UNL     1       7.095   4.776  14.826  0.00  0.00    +0.000 A 
ATOM     20  C   UNL     1       7.746   5.301  13.692  0.00  0.00    +0.000 A 
ATOM     21  N   UNL     1       7.332   4.732  12.555  0.00  0.00    +0.000 NA
BRANCH  17  22
ATOM     22  C   UNL     1       5.693   3.042  11.994  0.00  0.00    +0.000 C 
BRANCH  22  24
ATOM     23  C   UNL     1       3.674   3.433  10.491  0.00  0.00    +0.000 C 
ATOM     24  C   UNL     1       4.193   3.329  11.919  0.00  0.00    +0.000 C 
ENDBRANCH  22  24
ENDBRANCH  17  22
ENDBRANCH  15  19
ENDBRANCH   1  15
TORSDOF 5
ENDMDL
MODEL 4
REMARK VINA RESULT:      -7.8      1.509      2.136
REMARK  Name = 
REMARK  6 active torsions:
REMARK  status: ('A' for Active; 'I' for Inactive)
REMARK    1  A    between atoms: C_1  and  C_2
REMARK    2  A    between atoms: C_2  and  C_3
REMARK    3  A    between atoms: C_3  and  N_4
REMARK    4  A    between atoms: C_6  and  N_7
REMARK    5  A    between atoms: N_7  and  C_8
REMARK    6  A    between atoms: N_11  and  C_12
REMARK                            x       y       z     vdW  Elec       q    Type
REMARK                         _______ _______ _______ _____ _____    ______ ____
ROOT
ATOM      1  C   UNL     1       6.229   5.806  16.995  0.00  0.00    +0.000 C 
ATOM      2  C   UNL     1       5.221   6.604  16.180  0.00  0.00    +0.000 C 
ATOM      3  C   UNL     1       3.989   6.599  17.057  0.00  0.00    +0.000 C 
ATOM      4  N   UNL     1       4.024   5.317  17.723  0.00  0.00    +0.000 N 
ATOM      5  C   UNL     1       5.312   4.750  17.642  0.00  0.00    +0.000 C 
ATOM      6  O   UNL     1       5.667   3.625  17.961  0.00  0.00    +0.000 OA
ENDROOT
BRANCH   4   7
ATOM      7  C   UNL     1       2.934   4.829  18.505  0.00  0.00    +0.000 A 
ATOM      8  C   UNL     1       2.192   3.696  18.136  0.00  0.00    +0.000 A 
ATOM      9  F   UNL     1       2.523   2.968  17.059  0.00  0.00    +0.000 F 
ATOM     10  C   UNL     1       1.157   3.194  18.934  0.00  0.00    +0.000 A 
ATOM     11  C   UNL     1       0.829   3.815  20.135  0.00  0.00    +0.000 A 
ATOM     12  C   UNL     1       1.543   4.938  20.530  0.00  0.00    +0.000 A 
ATOM     13  C   UNL     1       2.579   5.429  19.728  0.00  0.00    +0.000 A 
ATOM     14  F   UNL     1       3.198   6.535  20.165  0.00  0.00    +0.000 F 
ENDBRANCH   4   7
BRANCH   1  15
ATOM     15  N   UNL     1       7.253   5.218  16.139  0.00  0.00    +0.000 N 
ATOM     16  H   UNL     1       8.101   4.944  16.638  0.00  0.00    +0.000 HD
BRANCH  15  19
ATOM     17  N   UNL     1       6.295   3.812  13.068  0.00  0.00    +0.000 N 
ATOM     18  C   UNL     1       6.156   3.847  14.429  0.00  0.00    +0.000 A 
ATOM     19  C   UNL     1       7.026   4.811  14.871  0.00  0.00    +0.000 A 
ATOM     20  C   UNL     1       7.638   5.307  13.702  0.00  0.00    +0.000 A 
ATOM     21  N   UNL     1       7.199   4.694  12.597  0.00  0.00    +0.000 NA
BRANCH  17  22
ATOM     22  C   UNL     1       5.569   2.965  12.139  0.00  0.00    +0.000 C 
BRANCH  22  24
ATOM     23  C   UNL     1       3.377   2.990  10.843  0.00  0.00    +0.000 C 
ATOM     24  C   UNL     1       4.667   3.729  11.169  0.00  0.00    +0.000 C 
ENDBRANCH  22  24
ENDBRANCH  17  22
ENDBRANCH  15  19
ENDBRANCH   1  15
TORSDOF 5
ENDMDL
MODEL 5
REMARK VINA RESULT:      -7.7      1.612      1.987
REMARK  Name = 
REMARK  6 active torsions:
REMARK  status: ('A' for Active; 'I' for Inactive)
REMARK    1  A    between atoms: C_1  and  C_2
REMARK    2  A    between atoms: C_2  and  C_3
REMARK    3  A    between atoms: C_3  and  N_4
REMARK    4  A    between atoms: C_6  and  N_7
REMARK    5  A    between atoms: N_7  and  C_8
REMARK    6  A    between atoms: N_11  and  C_12
REMARK                            x       y       z     vdW  Elec       q    Type
REMARK                         _______ _______ _______ _____ _____    ______ ____
ROOT
ATOM      1  C   UNL     1       6.136   5.667  17.210  0.00  0.00    +0.000 C 
ATOM      2  C   UNL     1       5.095   6.389  16.369  0.00  0.00    +0.000 C 
ATOM      3  C   UNL     1       3.851   6.322  17.228  0.00  0.00    +0.000 C 
ATOM      4  N   UNL     1       3.954   5.055  17.915  0.00  0.00    +0.000 N 
ATOM      5  C   UNL     1       5.275   4.567  17.861  0.00  0.00    +0.000 C 
ATOM      6  O   UNL     1       5.692   3.470  18.203  0.00  0.00    +0.000 OA
ENDROOT
BRANCH   4   7
ATOM      7  C   UNL     1       2.884   4.514  18.689  0.00  0.00    +0.000 A 
ATOM      8  C   UNL     1       2.420   5.128  19.863  0.00  0.00    +0.000 A 
ATOM      9  F   UNL     1       2.917   6.302  20.278  0.00  0.00    +0.000 F 
ATOM     10  C   UNL     1       1.337   4.617  20.589  0.00  0.00    +0.000 A 
ATOM     11  C   UNL     1       0.679   3.469  20.160  0.00  0.00    +0.000 A 
ATOM     12  C   UNL     1       1.113   2.837  19.002  0.00  0.00    +0.000 A 
ATOM     13  C   UNL     1       2.192   3.358  18.281  0.00  0.00    +0.000 A 
ATOM     14  F   UNL     1       2.568   2.672  17.192  0.00  0.00    +0.000 F 
ENDBRANCH   4   7
BRANCH   1  15
ATOM     15  N   UNL     1       7.207   5.129  16.378  0.00  0.00    +0.000 N 
ATOM     16  H   UNL     1       8.032   4.838  16.905  0.00  0.00    +0.000 HD
BRANCH  15  19
ATOM     17  N   UNL     1       6.435   3.848  13.202  0.00  0.00    +0.000 N 
ATOM     18  C   UNL     1       6.249   3.799  14.557  0.00  0.00    +0.000 A 
ATOM     19  C   UNL     1       7.046   4.783  15.083  0.00  0.00    +0.000 A 
ATOM     20  C   UNL     1       7.667   5.378  13.966  0.00  0.00    +0.000 A 
ATOM     21  N   UNL     1       7.301   4.806  12.813  0.00  0.00    +0.000 NA
BRANCH  17  22
ATOM     22  C   UNL     1       5.791   3.016  12.202  0.00  0.00    +0.000 C 
BRANCH  22  24
ATOM     23  C   UNL     1       6.207   0.785  11.046  0.00  0.00    +0.000 C 
ATOM     24  C   UNL     1       6.759   2.164  11.380  0.00  0.00    +0.000 C 
ENDBRANCH  22  24
ENDBRANCH  17  22
ENDBRANCH  15  19
ENDBRANCH   1  15
TORSDOF 5
ENDMDL
MODEL 6
REMARK VINA RESULT:      -7.7      0.389      1.766
REMARK  Name = 
REMARK  6 active torsions:
REMARK  status: ('A' for Active; 'I' for Inactive)
REMARK    1  A    between atoms: C_1  and  C_2
REMARK    2  A    between atoms: C_2  and  C_3
REMARK    3  A    between atoms: C_3  and  N_4
REMARK    4  A    between atoms: C_6  and  N_7
REMARK    5  A    between atoms: N_7  and  C_8
REMARK    6  A    between atoms: N_11  and  C_12
REMARK                            x       y       z     vdW  Elec       q    Type
REMARK                         _______ _______ _______ _____ _____    ______ ____
ROOT
ATOM      1  C   UNL     1       6.626   4.799  16.929  0.00  0.00    +0.000 C 
ATOM      2  C   UNL     1       7.165   5.607  18.100  0.00  0.00    +0.000 C 
ATOM      3  C   UNL     1       6.376   5.076  19.276  0.00  0.00    +0.000 C 
ATOM      4  N   UNL     1       5.078   4.755  18.727  0.00  0.00    +0.000 N 
ATOM      5  C   UNL     1       5.143   4.666  17.322  0.00  0.00    +0.000 C 
ATOM      6  O   UNL     1       4.220   4.558  16.526  0.00  0.00    +0.000 OA
ENDROOT
BRANCH   4   7
ATOM      7  C   UNL     1       3.966   4.398  19.547  0.00  0.00    +0.000 A 
ATOM      8  C   UNL     1       3.793   3.101  20.056  0.00  0.00    +0.000 A 
ATOM      9  F   UNL     1       4.714   2.146  19.855  0.00  0.00    +0.000 F 
ATOM     10  C   UNL     1       2.726   2.772  20.900  0.00  0.00    +0.000 A 
ATOM     11  C   UNL     1       1.791   3.735  21.264  0.00  0.00    +0.000 A 
ATOM     12  C   UNL     1       1.932   5.028  20.778  0.00  0.00    +0.000 A 
ATOM     13  C   UNL     1       3.005   5.349  19.939  0.00  0.00    +0.000 A 
ATOM     14  F   UNL     1       3.052   6.610  19.488  0.00  0.00    +0.000 F 
ENDBRANCH   4   7
BRANCH   1  15
ATOM     15  N   UNL     1       6.817   5.505  15.667  0.00  0.00    +0.000 N 
ATOM     16  H   UNL     1       7.216   6.439  15.773  0.00  0.00    +0.000 HD
BRANCH  15  19
ATOM     17  N   UNL     1       6.154   3.733  12.710  0.00  0.00    +0.000 N 
ATOM     18  C   UNL     1       5.778   4.056  13.986  0.00  0.00    +0.000 A 
ATOM     19  C   UNL     1       6.743   4.910  14.457  0.00  0.00    +0.000 A 
ATOM     20  C   UNL     1       7.652   5.049  13.389  0.00  0.00    +0.000 A 
ATOM     21  N   UNL     1       7.300   4.326  12.321  0.00  0.00    +0.000 NA
BRANCH  17  22
ATOM     22  C   UNL     1       5.443   2.870  11.784  0.00  0.00    +0.000 C 
BRANCH  22  24
ATOM     23  C   UNL     1       3.126   2.749  10.734  0.00  0.00    +0.000 C 
ATOM     24  C   UNL     1       4.377   3.587  10.955  0.00  0.00    +0.000 C 
ENDBRANCH  22  24
ENDBRANCH  17  22
ENDBRANCH  15  19
ENDBRANCH   1  15
TORSDOF 5
ENDMDL
MODEL 7
REMARK VINA RESULT:      -7.5      0.676      1.095
REMARK  Name = 
REMARK  6 active torsions:
REMARK  status: ('A' for Active; 'I' for Inactive)
REMARK    1  A    between atoms: C_1  and  C_2
REMARK    2  A    between atoms: C_2  and  C_3
REMARK    3  A    between atoms: C_3  and  N_4
REMARK    4  A    between atoms: C_6  and  N_7
REMARK    5  A    between atoms: N_7  and  C_8
REMARK    6  A    between atoms: N_11  and  C_12
REMARK                            x       y       z     vdW  Elec       q    Type
REMARK                         _______ _______ _______ _____ _____    ______ ____
ROOT
ATOM      1  C   UNL     1       6.481   4.752  16.847  0.00  0.00    +0.000 C 
ATOM      2  C   UNL     1       7.106   5.520  18.001  0.00  0.00    +0.000 C 
ATOM      3  C   UNL     1       6.363   4.993  19.208  0.00  0.00    +0.000 C 
ATOM      4  N   UNL     1       5.028   4.725  18.724  0.00  0.00    +0.000 N 
ATOM      5  C   UNL     1       5.016   4.660  17.315  0.00  0.00    +0.000 C 
ATOM      6  O   UNL     1       4.050   4.597  16.568  0.00  0.00    +0.000 OA
ENDROOT
BRANCH   4   7
ATOM      7  C   UNL     1       3.949   4.388  19.595  0.00  0.00    +0.000 A 
ATOM      8  C   UNL     1       2.961   5.316  19.961  0.00  0.00    +0.000 A 
ATOM      9  F   UNL     1       2.945   6.554  19.447  0.00  0.00    +0.000 F 
ATOM     10  C   UNL     1       1.878   4.964  20.775  0.00  0.00    +0.000 A 
ATOM     11  C   UNL     1       1.748   3.663  21.252  0.00  0.00    +0.000 A 
ATOM     12  C   UNL     1       2.707   2.720  20.908  0.00  0.00    +0.000 A 
ATOM     13  C   UNL     1       3.783   3.080  20.090  0.00  0.00    +0.000 A 
ATOM     14  F   UNL     1       4.682   2.121  19.830  0.00  0.00    +0.000 F 
ENDBRANCH   4   7
BRANCH   1  15
ATOM     15  N   UNL     1       6.628   5.476  15.589  0.00  0.00    +0.000 N 
ATOM     16  H   UNL     1       6.979   6.429  15.700  0.00  0.00    +0.000 HD
BRANCH  15  19
ATOM     17  N   UNL     1       6.020   3.727  12.606  0.00  0.00    +0.000 N 
ATOM     18  C   UNL     1       5.611   4.056  13.870  0.00  0.00    +0.000 A 
ATOM     19  C   UNL     1       6.580   4.886  14.375  0.00  0.00    +0.000 A 
ATOM     20  C   UNL     1       7.526   5.006  13.338  0.00  0.00    +0.000 A 
ATOM     21  N   UNL     1       7.192   4.295  12.256  0.00  0.00    +0.000 NA
BRANCH  17  22
ATOM     22  C   UNL     1       5.320   2.885  11.654  0.00  0.00    +0.000 C 
BRANCH  22  24
ATOM     23  C   UNL     1       7.289   1.495  10.831  0.00  0.00    +0.000 C 
ATOM     24  C   UNL     1       5.920   1.487  11.496  0.00  0.00    +0.000 C 
ENDBRANCH  22  24
ENDBRANCH  17  22
ENDBRANCH  15  19
ENDBRANCH   1  15
TORSDOF 5
ENDMDL
MODEL 8
REMARK VINA RESULT:      -7.4      2.898      5.168
REMARK  Name = 
REMARK  6 active torsions:
REMARK  status: ('A' for Active; 'I' for Inactive)
REMARK    1  A    between atoms: C_1  and  C_2
REMARK    2  A    between atoms: C_2  and  C_3
REMARK    3  A    between atoms: C_3  and  N_4
REMARK    4  A    between atoms: C_6  and  N_7
REMARK    5  A    between atoms: N_7  and  C_8
REMARK    6  A    between atoms: N_11  and  C_12
REMARK                            x       y       z     vdW  Elec       q    Type
REMARK                         _______ _______ _______ _____ _____    ______ ____
ROOT
ATOM      1  C   UNL     1       4.963   5.299  16.193  0.00  0.00    +0.000 C 
ATOM      2  C   UNL     1       5.530   3.891  16.295  0.00  0.00    +0.000 C 
ATOM      3  C   UNL     1       4.468   3.149  17.078  0.00  0.00    +0.000 C 
ATOM      4  N   UNL     1       3.933   4.136  17.987  0.00  0.00    +0.000 N 
ATOM      5  C   UNL     1       4.272   5.437  17.563  0.00  0.00    +0.000 C 
ATOM      6  O   UNL     1       4.116   6.493  18.159  0.00  0.00    +0.000 OA
ENDROOT
BRANCH   4   7
ATOM      7  C   UNL     1       3.030   3.798  19.040  0.00  0.00    +0.000 A 
ATOM      8  C   UNL     1       1.661   4.103  18.983  0.00  0.00    +0.000 A 
ATOM      9  F   UNL     1       1.118   4.665  17.894  0.00  0.00    +0.000 F 
ATOM     10  C   UNL     1       0.775   3.724  19.998  0.00  0.00    +0.000 A 
ATOM     11  C   UNL     1       1.232   3.023  21.110  0.00  0.00    +0.000 A 
ATOM     12  C   UNL     1       2.581   2.706  21.197  0.00  0.00    +0.000 A 
ATOM     13  C   UNL     1       3.459   3.084  20.176  0.00  0.00    +0.000 A 
ATOM     14  F   UNL     1       4.749   2.768  20.350  0.00  0.00    +0.000 F 
ENDBRANCH   4   7
BRANCH   1  15
ATOM     15  N   UNL     1       6.023   6.281  15.993  0.00  0.00    +0.000 N 
ATOM     16  H   UNL     1       5.952   6.790  15.111  0.00  0.00    +0.000 HD
BRANCH  15  19
ATOM     17  N   UNL     1       8.117   7.856  18.330  0.00  0.00    +0.000 N 
ATOM     18  C   UNL     1       7.290   7.965  17.245  0.00  0.00    +0.000 A 
ATOM     19  C   UNL     1       6.859   6.692  16.972  0.00  0.00    +0.000 A 
ATOM     20  C   UNL     1       7.472   5.886  17.952  0.00  0.00    +0.000 A 
ATOM     21  N   UNL     1       8.248   6.593  18.782  0.00  0.00    +0.000 NA
BRANCH  17  22
ATOM     22  C   UNL     1       8.806   8.936  19.012  0.00  0.00    +0.000 C 
BRANCH  22  24
ATOM     23  C   UNL     1       9.683  11.325  18.911  0.00  0.00    +0.000 C 
ATOM     24  C   UNL     1       8.897  10.230  18.203  0.00  0.00    +0.000 C 
ENDBRANCH  22  24
ENDBRANCH  17  22
ENDBRANCH  15  19
ENDBRANCH   1  15
TORSDOF 5
ENDMDL
MODEL 9
REMARK VINA RESULT:      -7.4      2.913      5.372
REMARK  Name = 
REMARK  6 active torsions:
REMARK  status: ('A' for Active; 'I' for Inactive)
REMARK    1  A    between atoms: C_1  and  C_2
REMARK    2  A    between atoms: C_2  and  C_3
REMARK    3  A    between atoms: C_3  and  N_4
REMARK    4  A    between atoms: C_6  and  N_7
REMARK    5  A    between atoms: N_7  and  C_8
REMARK    6  A    between atoms: N_11  and  C_12
REMARK                            x       y       z     vdW  Elec       q    Type
REMARK                         _______ _______ _______ _____ _____    ______ ____
ROOT
ATOM      1  C   UNL     1       4.885   5.445  16.133  0.00  0.00    +0.000 C 
ATOM      2  C   UNL     1       5.550   4.079  16.202  0.00  0.00    +0.000 C 
ATOM      3  C   UNL     1       4.538   3.241  16.952  0.00  0.00    +0.000 C 
ATOM      4  N   UNL     1       3.925   4.161  17.882  0.00  0.00    +0.000 N 
ATOM      5  C   UNL     1       4.174   5.495  17.499  0.00  0.00    +0.000 C 
ATOM      6  O   UNL     1       3.937   6.519  18.122  0.00  0.00    +0.000 OA
ENDROOT
BRANCH   4   7
ATOM      7  C   UNL     1       3.040   3.730  18.917  0.00  0.00    +0.000 A 
ATOM      8  C   UNL     1       3.498   3.092  20.080  0.00  0.00    +0.000 A 
ATOM      9  F   UNL     1       4.809   2.921  20.310  0.00  0.00    +0.000 F 
ATOM     10  C   UNL     1       2.629   2.718  21.112  0.00  0.00    +0.000 A 
ATOM     11  C   UNL     1       1.265   2.972  21.012  0.00  0.00    +0.000 A 
ATOM     12  C   UNL     1       0.779   3.602  19.874  0.00  0.00    +0.000 A 
ATOM     13  C   UNL     1       1.656   3.977  18.851  0.00  0.00    +0.000 A 
ATOM     14  F   UNL     1       1.103   4.552  17.773  0.00  0.00    +0.000 F 
ENDBRANCH   4   7
BRANCH   1  15
ATOM     15  N   UNL     1       5.873   6.506  15.971  0.00  0.00    +0.000 N 
ATOM     16  H   UNL     1       5.715   7.096  15.153  0.00  0.00    +0.000 HD
BRANCH  15  19
ATOM     17  N   UNL     1       8.073   7.960  18.290  0.00  0.00    +0.000 N 
ATOM     18  C   UNL     1       7.208   8.122  17.241  0.00  0.00    +0.000 A 
ATOM     19  C   UNL     1       6.750   6.866  16.934  0.00  0.00    +0.000 A 
ATOM     20  C   UNL     1       7.387   6.015  17.858  0.00  0.00    +0.000 A 
ATOM     21  N   UNL     1       8.202   6.678  18.686  0.00  0.00    +0.000 NA
BRANCH  17  22
ATOM     22  C   UNL     1       8.802   9.003  18.988  0.00  0.00    +0.000 C 
BRANCH  22  24
ATOM     23  C   UNL     1      10.039  11.214  18.733  0.00  0.00    +0.000 C 
ATOM     24  C   UNL     1       8.943  10.304  18.198  0.00  0.00    +0.000 C 
ENDBRANCH  22  24
ENDBRANCH  17  22
ENDBRANCH  15  19
ENDBRANCH   1  15
TORSDOF 5
ENDMDL
