MODEL 1
REMARK VINA RESULT:      -7.5      0.000      0.000
REMARK  Name = 
REMARK  11 active torsions:
REMARK  status: ('A' for Active; 'I' for Inactive)
REMARK    1  A    between atoms: C_1  and  C_2
REMARK    2  A    between atoms: N_4  and  C_5
REMARK    3  A    between atoms: C_6  and  N_7
REMARK    4  A    between atoms: C_12  and  C_13
REMARK    5  A    between atoms: C_13  and  O_15
REMARK    6  A    between atoms: C_17  and  C_18
REMARK    7  A    between atoms: C_18  and  O_19
REMARK    8  A    between atoms: C_18  and  C_20
REMARK    9  A    between atoms: C_20  and  O_21
REMARK   10  A    between atoms: C_20  and  C_22
REMARK   11  A    between atoms: C_22  and  O_23
REMARK                            x       y       z     vdW  Elec       q    Type
REMARK                         _______ _______ _______ _____ _____    ______ ____
ROOT
ATOM      1  C   UNL     1       4.625   4.409  18.508  0.00  0.00    +0.000 C 
ATOM      2  C   UNL     1       5.884   5.313  18.344  0.00  0.00    +0.000 C 
ATOM      3  C   UNL     1       6.547   5.156  17.017  0.00  0.00    +0.000 C 
ATOM      4  C   UNL     1       6.031   4.429  16.016  0.00  0.00    +0.000 C 
ATOM      5  O   UNL     1       4.866   3.696  16.119  0.00  0.00    +0.000 OA
ATOM      6  C   UNL     1       3.945   4.163  17.134  0.00  0.00    +0.000 C 
ENDROOT
BRANCH   2   7
ATOM      7  N   UNL     1       6.853   5.005  19.389  0.00  0.00    +0.000 N 
ATOM      8  C   UNL     1       7.962   5.732  19.643  0.00  0.00    +0.000 C 
ATOM      9  N   UNL     1       8.356   6.833  19.112  0.00  0.00    +0.000 NA
ATOM     10  N   UNL     1       8.719   5.176  20.607  0.00  0.00    +0.000 N 
ATOM     11  H   UNL     1       6.988   4.021  19.585  0.00  0.00    +0.000 HD
ATOM     12  H   UNL     1       7.699   7.129  18.393  0.00  0.00    +0.000 HD
ATOM     13  H   UNL     1       8.200   5.004  21.454  0.00  0.00    +0.000 HD
ATOM     14  H   UNL     1       9.496   5.800  20.804  0.00  0.00    +0.000 HD
ENDBRANCH   2   7
BRANCH   1  18
ATOM     15  C   UNL     1       2.082   6.453  20.504  0.00  0.00    +0.000 C 
ATOM     16  C   UNL     1       3.034   6.132  19.385  0.00  0.00    +0.000 C 
ATOM     17  O   UNL     1       3.224   6.891  18.441  0.00  0.00    +0.000 OA
ATOM     18  N   UNL     1       3.698   4.935  19.530  0.00  0.00    +0.000 N 
ATOM     19  H   UNL     1       3.247   4.241  20.117  0.00  0.00    +0.000 HD
ENDBRANCH   1  18
BRANCH   4  20
ATOM     20  C   UNL     1       6.751   4.448  14.703  0.00  0.00    +0.000 C 
ATOM     21  O   UNL     1       7.589   5.270  14.379  0.00  0.00    +0.000 OA
BRANCH  20  22
ATOM     22  O   UNL     1       6.337   3.446  13.901  0.00  0.00    +0.000 OA
ATOM     23  H   UNL     1       5.845   2.765  14.403  0.00  0.00    +0.000 HD
ENDBRANCH  20  22
ENDBRANCH   4  20
BRANCH   6  24
ATOM     24  C   UNL     1       2.809   3.106  17.226  0.00  0.00    +0.000 C 
BRANCH  24  25
ATOM     25  O   UNL     1       3.265   1.850  17.765  0.00  0.00    +0.000 OA
ATOM     26  H   UNL     1       4.126   2.042  18.205  0.00  0.00    +0.000 HD
ENDBRANCH  24  25
BRANCH  24  27
ATOM     27  C   UNL     1       1.593   3.592  18.057  0.00  0.00    +0.000 C 
BRANCH  27  28
ATOM     28  O   UNL     1       0.684   4.256  17.163  0.00  0.00    +0.000 OA
ATOM     29  H   UNL     1       1.215   4.506  16.380  0.00  0.00    +0.000 HD
ENDBRANCH  27  28
BRANCH  27  30
ATOM     30  C   UNL     1       0.832   2.453  18.756  0.00  0.00    +0.000 C 
BRANCH  30  31
ATOM     31  O   UNL     1       1.483   2.123  19.989  0.00  0.00    +0.000 OA
ATOM     32  H   UNL     1       1.465   1.149  20.062  0.00  0.00    +0.000 HD
ENDBRANCH  30  31
ENDBRANCH  27  30
ENDBRANCH  24  27
ENDBRANCH   6  24
TORSDOF 10
ENDMDL
MODEL 2
REMARK VINA RESULT:      -7.4      2.631      6.065
REMARK  Name = 
REMARK  11 active torsions:
REMARK  status: ('A' for Active; 'I' for Inactive)
REMARK    1  A    between atoms: C_1  and  C_2
REMARK    2  A    between atoms: N_4  and  C_5
REMARK    3  A    between atoms: C_6  and  N_7
REMARK    4  A    between atoms: C_12  and  C_13
REMARK    5  A    between atoms: C_13  and  O_15
REMARK    6  A    between atoms: C_17  and  C_18
REMARK    7  A    between atoms: C_18  and  O_19
REMARK    8  A    between atoms: C_18  and  C_20
REMARK    9  A    between atoms: C_20  and  O_21
REMARK   10  A    between atoms: C_20  and  C_22
REMARK   11  A    between atoms: C_22  and  O_23
REMARK                            x       y       z     vdW  Elec       q    Type
REMARK                         _______ _______ _______ _____ _____    ______ ____
ROOT
ATOM      1  C   UNL     1       5.312   4.150  17.599  0.00  0.00    +0.000 C 
ATOM      2  C   UNL     1       3.823   3.705  17.489  0.00  0.00    +0.000 C 
ATOM      3  C   UNL     1       2.923   4.437  18.427  0.00  0.00    +0.000 C 
ATOM      4  C   UNL     1       3.325   5.472  19.177  0.00  0.00    +0.000 C 
ATOM      5  O   UNL     1       4.625   5.936  19.215  0.00  0.00    +0.000 OA
ATOM      6  C   UNL     1       5.408   5.638  18.034  0.00  0.00    +0.000 C 
ENDROOT
BRANCH   2   7
ATOM      7  N   UNL     1       3.713   2.276  17.758  0.00  0.00    +0.000 N 
ATOM      8  C   UNL     1       4.225   1.659  18.845  0.00  0.00    +0.000 C 
ATOM      9  N   UNL     1       4.823   2.164  19.863  0.00  0.00    +0.000 NA
ATOM     10  N   UNL     1       4.046   0.326  18.798  0.00  0.00    +0.000 N 
ATOM     11  H   UNL     1       3.711   1.676  16.943  0.00  0.00    +0.000 HD
ATOM     12  H   UNL     1       4.900   3.174  19.759  0.00  0.00    +0.000 HD
ATOM     13  H   UNL     1       3.080   0.071  18.663  0.00  0.00    +0.000 HD
ATOM     14  H   UNL     1       4.385  -0.072  19.670  0.00  0.00    +0.000 HD
ENDBRANCH   2   7
BRANCH   1  18
ATOM     15  C   UNL     1       6.789   4.138  14.071  0.00  0.00    +0.000 C 
ATOM     16  C   UNL     1       5.870   4.542  15.190  0.00  0.00    +0.000 C 
ATOM     17  O   UNL     1       4.995   5.391  15.052  0.00  0.00    +0.000 OA
ATOM     18  N   UNL     1       6.068   3.854  16.365  0.00  0.00    +0.000 N 
ATOM     19  H   UNL     1       6.990   3.451  16.498  0.00  0.00    +0.000 HD
ENDBRANCH   1  18
BRANCH   4  20
ATOM     20  C   UNL     1       2.289   6.182  19.993  0.00  0.00    +0.000 C 
ATOM     21  O   UNL     1       1.522   5.641  20.768  0.00  0.00    +0.000 OA
BRANCH  20  22
ATOM     22  O   UNL     1       2.291   7.507  19.745  0.00  0.00    +0.000 OA
ATOM     23  H   UNL     1       1.401   7.896  19.869  0.00  0.00    +0.000 HD
ENDBRANCH  20  22
ENDBRANCH   4  20
BRANCH   6  24
ATOM     24  C   UNL     1       6.871   6.060  18.350  0.00  0.00    +0.000 C 
BRANCH  24  25
ATOM     25  O   UNL     1       7.762   4.933  18.451  0.00  0.00    +0.000 OA
ATOM     26  H   UNL     1       7.446   4.406  19.222  0.00  0.00    +0.000 HD
ENDBRANCH  24  25
BRANCH  24  27
ATOM     27  C   UNL     1       7.450   7.063  17.318  0.00  0.00    +0.000 C 
BRANCH  27  28
ATOM     28  O   UNL     1       6.368   7.516  16.487  0.00  0.00    +0.000 OA
ATOM     29  H   UNL     1       6.553   8.458  16.301  0.00  0.00    +0.000 HD
ENDBRANCH  27  28
BRANCH  27  30
ATOM     30  C   UNL     1       8.108   8.294  17.963  0.00  0.00    +0.000 C 
BRANCH  30  31
ATOM     31  O   UNL     1       8.801   7.903  19.155  0.00  0.00    +0.000 OA
ATOM     32  H   UNL     1       9.487   8.579  19.313  0.00  0.00    +0.000 HD
ENDBRANCH  30  31
ENDBRANCH  27  30
ENDBRANCH  24  27
ENDBRANCH   6  24
TORSDOF 10
ENDMDL
MODEL 3
REMARK VINA RESULT:      -7.4      2.092      5.354
REMARK  Name = 
REMARK  11 active torsions:
REMARK  status: ('A' for Active; 'I' for Inactive)
REMARK    1  A    between atoms: C_1  and  C_2
REMARK    2  A    between atoms: N_4  and  C_5
REMARK    3  A    between atoms: C_6  and  N_7
REMARK    4  A    between atoms: C_12  and  C_13
REMARK    5  A    between atoms: C_13  and  O_15
REMARK    6  A    between atoms: C_17  and  C_18
REMARK    7  A    between atoms: C_18  and  O_19
REMARK    8  A    between atoms: C_18  and  C_20
REMARK    9  A    between atoms: C_20  and  O_21
REMARK   10  A    between atoms: C_20  and  C_22
REMARK   11  A    between atoms: C_22  and  O_23
REMARK                            x       y       z     vdW  Elec       q    Type
REMARK                         _______ _______ _______ _____ _____    ______ ____
ROOT
ATOM      1  C   UNL     1       4.882   5.890  17.758  0.00  0.00    +0.000 C 
ATOM      2  C   UNL     1       4.634   5.268  19.165  0.00  0.00    +0.000 C 
ATOM      3  C   UNL     1       4.054   3.895  19.104  0.00  0.00    +0.000 C 
ATOM      4  C   UNL     1       3.902   3.209  17.963  0.00  0.00    +0.000 C 
ATOM      5  O   UNL     1       4.205   3.715  16.715  0.00  0.00    +0.000 OA
ATOM      6  C   UNL     1       5.187   4.780  16.715  0.00  0.00    +0.000 C 
ENDROOT
BRANCH   2   7
ATOM      7  N   UNL     1       3.732   6.121  19.930  0.00  0.00    +0.000 N 
ATOM      8  C   UNL     1       2.640   6.733  19.422  0.00  0.00    +0.000 C 
ATOM      9  N   UNL     1       2.133   6.651  18.245  0.00  0.00    +0.000 NA
ATOM     10  N   UNL     1       2.037   7.522  20.329  0.00  0.00    +0.000 N 
ATOM     11  H   UNL     1       4.162   6.660  20.671  0.00  0.00    +0.000 HD
ATOM     12  H   UNL     1       2.697   6.034  17.663  0.00  0.00    +0.000 HD
ATOM     13  H   UNL     1       1.809   7.029  21.179  0.00  0.00    +0.000 HD
ATOM     14  H   UNL     1       1.187   7.896  19.914  0.00  0.00    +0.000 HD
ENDBRANCH   2   7
BRANCH   1  18
ATOM     15  C   UNL     1       8.133   7.893  17.961  0.00  0.00    +0.000 C 
ATOM     16  C   UNL     1       7.239   6.687  18.034  0.00  0.00    +0.000 C 
ATOM     17  O   UNL     1       7.659   5.569  18.315  0.00  0.00    +0.000 OA
ATOM     18  N   UNL     1       5.909   6.950  17.797  0.00  0.00    +0.000 N 
ATOM     19  H   UNL     1       5.708   7.781  17.250  0.00  0.00    +0.000 HD
ENDBRANCH   1  18
BRANCH   4  20
ATOM     20  C   UNL     1       3.407   1.799  18.062  0.00  0.00    +0.000 C 
ATOM     21  O   UNL     1       4.051   0.863  18.500  0.00  0.00    +0.000 OA
BRANCH  20  22
ATOM     22  O   UNL     1       2.154   1.683  17.579  0.00  0.00    +0.000 OA
ATOM     23  H   UNL     1       1.494   2.050  18.202  0.00  0.00    +0.000 HD
ENDBRANCH  20  22
ENDBRANCH   4  20
BRANCH   6  24
ATOM     24  C   UNL     1       5.240   5.339  15.266  0.00  0.00    +0.000 C 
BRANCH  24  25
ATOM     25  O   UNL     1       5.122   6.774  15.222  0.00  0.00    +0.000 OA
ATOM     26  H   UNL     1       4.677   6.982  14.368  0.00  0.00    +0.000 HD
ENDBRANCH  24  25
BRANCH  24  27
ATOM     27  C   UNL     1       6.522   4.921  14.500  0.00  0.00    +0.000 C 
BRANCH  27  28
ATOM     28  O   UNL     1       7.519   4.560  15.470  0.00  0.00    +0.000 OA
ATOM     29  H   UNL     1       8.342   5.003  15.183  0.00  0.00    +0.000 HD
ENDBRANCH  27  28
BRANCH  27  30
ATOM     30  C   UNL     1       6.310   3.722  13.560  0.00  0.00    +0.000 C 
BRANCH  30  31
ATOM     31  O   UNL     1       6.879   4.008  12.277  0.00  0.00    +0.000 OA
ATOM     32  H   UNL     1       7.624   4.619  12.431  0.00  0.00    +0.000 HD
ENDBRANCH  30  31
ENDBRANCH  27  30
ENDBRANCH  24  27
ENDBRANCH   6  24
TORSDOF 10
ENDMDL
MODEL 4
REMARK VINA RESULT:      -7.3      1.239      1.562
REMARK  Name = 
REMARK  11 active torsions:
REMARK  status: ('A' for Active; 'I' for Inactive)
REMARK    1  A    between atoms: C_1  and  C_2
REMARK    2  A    between atoms: N_4  and  C_5
REMARK    3  A    between atoms: C_6  and  N_7
REMARK    4  A    between atoms: C_12  and  C_13
REMARK    5  A    between atoms: C_13  and  O_15
REMARK    6  A    between atoms: C_17  and  C_18
REMARK    7  A    between atoms: C_18  and  O_19
REMARK    8  A    between atoms: C_18  and  C_20
REMARK    9  A    between atoms: C_20  and  O_21
REMARK   10  A    between atoms: C_20  and  C_22
REMARK   11  A    between atoms: C_22  and  O_23
REMARK                            x       y       z     vdW  Elec       q    Type
REMARK                         _______ _______ _______ _____ _____    ______ ____
ROOT
ATOM      1  C   UNL     1       4.835   5.076  18.197  0.00  0.00    +0.000 C 
ATOM      2  C   UNL     1       5.414   6.257  17.360  0.00  0.00    +0.000 C 
ATOM      3  C   UNL     1       5.835   5.849  15.988  0.00  0.00    +0.000 C 
ATOM      4  C   UNL     1       5.602   4.633  15.475  0.00  0.00    +0.000 C 
ATOM      5  O   UNL     1       5.005   3.604  16.177  0.00  0.00    +0.000 OA
ATOM      6  C   UNL     1       4.157   4.030  17.271  0.00  0.00    +0.000 C 
ENDROOT
BRANCH   2   7
ATOM      7  N   UNL     1       6.563   6.833  18.048  0.00  0.00    +0.000 N 
ATOM      8  C   UNL     1       7.599   6.119  18.540  0.00  0.00    +0.000 C 
ATOM      9  N   UNL     1       7.834   4.859  18.457  0.00  0.00    +0.000 NA
ATOM     10  N   UNL     1       8.480   6.897  19.196  0.00  0.00    +0.000 N 
ATOM     11  H   UNL     1       6.374   7.662  18.597  0.00  0.00    +0.000 HD
ATOM     12  H   UNL     1       7.082   4.396  17.951  0.00  0.00    +0.000 HD
ATOM     13  H   UNL     1       8.809   7.666  18.632  0.00  0.00    +0.000 HD
ATOM     14  H   UNL     1       9.267   6.320  19.479  0.00  0.00    +0.000 HD
ENDBRANCH   2   7
BRANCH   1  18
ATOM     15  C   UNL     1       1.997   6.569  20.280  0.00  0.00    +0.000 C 
ATOM     16  C   UNL     1       2.786   6.239  19.044  0.00  0.00    +0.000 C 
ATOM     17  O   UNL     1       2.432   6.585  17.922  0.00  0.00    +0.000 OA
ATOM     18  N   UNL     1       3.954   5.550  19.282  0.00  0.00    +0.000 N 
ATOM     19  H   UNL     1       3.992   5.019  20.146  0.00  0.00    +0.000 HD
ENDBRANCH   1  18
BRANCH   4  20
ATOM     20  C   UNL     1       5.983   4.397  14.046  0.00  0.00    +0.000 C 
ATOM     21  O   UNL     1       5.378   3.678  13.273  0.00  0.00    +0.000 OA
BRANCH  20  22
ATOM     22  O   UNL     1       7.106   5.068  13.720  0.00  0.00    +0.000 OA
ATOM     23  H   UNL     1       7.871   4.464  13.630  0.00  0.00    +0.000 HD
ENDBRANCH  20  22
ENDBRANCH   4  20
BRANCH   6  24
ATOM     24  C   UNL     1       3.748   2.745  18.044  0.00  0.00    +0.000 C 
BRANCH  24  25
ATOM     25  O   UNL     1       4.534   2.542  19.234  0.00  0.00    +0.000 OA
ATOM     26  H   UNL     1       4.458   3.377  19.753  0.00  0.00    +0.000 HD
ENDBRANCH  24  25
BRANCH  24  27
ATOM     27  C   UNL     1       2.245   2.720  18.428  0.00  0.00    +0.000 C 
BRANCH  27  28
ATOM     28  O   UNL     1       1.631   1.619  17.739  0.00  0.00    +0.000 OA
ATOM     29  H   UNL     1       0.772   1.955  17.413  0.00  0.00    +0.000 HD
ENDBRANCH  27  28
BRANCH  27  30
ATOM     30  C   UNL     1       2.001   2.540  19.936  0.00  0.00    +0.000 C 
BRANCH  30  31
ATOM     31  O   UNL     1       0.707   3.048  20.281  0.00  0.00    +0.000 OA
ATOM     32  H   UNL     1       0.062   2.360  20.031  0.00  0.00    +0.000 HD
ENDBRANCH  30  31
ENDBRANCH  27  30
ENDBRANCH  24  27
ENDBRANCH   6  24
TORSDOF 10
ENDMDL
MODEL 5
REMARK VINA RESULT:      -7.3      2.821      4.579
REMARK  Name = 
REMARK  11 active torsions:
REMARK  status: ('A' for Active; 'I' for Inactive)
REMARK    1  A    between atoms: C_1  and  C_2
REMARK    2  A    between atoms: N_4  and  C_5
REMARK    3  A    between atoms: C_6  and  N_7
REMARK    4  A    between atoms: C_12  and  C_13
REMARK    5  A    between atoms: C_13  and  O_15
REMARK    6  A    between atoms: C_17  and  C_18
REMARK    7  A    between atoms: C_18  and  O_19
REMARK    8  A    between atoms: C_18  and  C_20
REMARK    9  A    between atoms: C_20  and  O_21
REMARK   10  A    between atoms: C_20  and  C_22
REMARK   11  A    between atoms: C_22  and  O_23
REMARK                            x       y       z     vdW  Elec       q    Type
REMARK                         _______ _______ _______ _____ _____    ______ ____
ROOT
ATOM      1  C   UNL     1       3.160   4.810  19.378  0.00  0.00    +0.000 C 
ATOM      2  C   UNL     1       4.488   4.116  18.949  0.00  0.00    +0.000 C 
ATOM      3  C   UNL     1       5.284   4.925  17.979  0.00  0.00    +0.000 C 
ATOM      4  C   UNL     1       4.966   6.179  17.629  0.00  0.00    +0.000 C 
ATOM      5  O   UNL     1       3.839   6.840  18.075  0.00  0.00    +0.000 OA
ATOM      6  C   UNL     1       3.312   6.355  19.335  0.00  0.00    +0.000 C 
ENDROOT
BRANCH   2   7
ATOM      7  N   UNL     1       4.197   2.821  18.346  0.00  0.00    +0.000 N 
ATOM      8  C   UNL     1       4.479   1.630  18.916  0.00  0.00    +0.000 C 
ATOM      9  N   UNL     1       4.969   1.376  20.076  0.00  0.00    +0.000 NA
ATOM     10  N   UNL     1       4.176   0.599  18.105  0.00  0.00    +0.000 N 
ATOM     11  H   UNL     1       4.254   2.785  17.336  0.00  0.00    +0.000 HD
ATOM     12  H   UNL     1       5.162   2.244  20.571  0.00  0.00    +0.000 HD
ATOM     13  H   UNL     1       3.219   0.627  17.787  0.00  0.00    +0.000 HD
ATOM     14  H   UNL     1       4.342  -0.266  18.612  0.00  0.00    +0.000 HD
ENDBRANCH   2   7
BRANCH   1  18
ATOM     15  C   UNL     1       1.486   2.848  22.201  0.00  0.00    +0.000 C 
ATOM     16  C   UNL     1       1.804   3.248  20.787  0.00  0.00    +0.000 C 
ATOM     17  O   UNL     1       1.303   2.692  19.816  0.00  0.00    +0.000 OA
ATOM     18  N   UNL     1       2.673   4.310  20.679  0.00  0.00    +0.000 N 
ATOM     19  H   UNL     1       3.285   4.470  21.472  0.00  0.00    +0.000 HD
ENDBRANCH   1  18
BRANCH   4  20
ATOM     20  C   UNL     1       5.914   6.909  16.729  0.00  0.00    +0.000 C 
ATOM     21  O   UNL     1       6.890   7.534  17.104  0.00  0.00    +0.000 OA
BRANCH  20  22
ATOM     22  O   UNL     1       5.540   6.811  15.438  0.00  0.00    +0.000 OA
ATOM     23  H   UNL     1       4.911   7.520  15.192  0.00  0.00    +0.000 HD
ENDBRANCH  20  22
ENDBRANCH   4  20
BRANCH   6  24
ATOM     24  C   UNL     1       1.955   7.081  19.559  0.00  0.00    +0.000 C 
BRANCH  24  25
ATOM     25  O   UNL     1       1.547   7.076  20.940  0.00  0.00    +0.000 OA
ATOM     26  H   UNL     1       2.240   6.569  21.424  0.00  0.00    +0.000 HD
ENDBRANCH  24  25
BRANCH  24  27
ATOM     27  C   UNL     1       1.957   8.544  19.044  0.00  0.00    +0.000 C 
BRANCH  27  28
ATOM     28  O   UNL     1       1.761   8.512  17.621  0.00  0.00    +0.000 OA
ATOM     29  H   UNL     1       0.824   8.266  17.486  0.00  0.00    +0.000 HD
ENDBRANCH  27  28
BRANCH  27  30
ATOM     30  C   UNL     1       0.849   9.412  19.662  0.00  0.00    +0.000 C 
BRANCH  30  31
ATOM     31  O   UNL     1       1.214   9.785  20.996  0.00  0.00    +0.000 OA
ATOM     32  H   UNL     1       0.587   9.334  21.594  0.00  0.00    +0.000 HD
ENDBRANCH  30  31
ENDBRANCH  27  30
ENDBRANCH  24  27
ENDBRANCH   6  24
TORSDOF 10
ENDMDL
MODEL 6
REMARK VINA RESULT:      -7.3      1.343      1.478
REMARK  Name = 
REMARK  11 active torsions:
REMARK  status: ('A' for Active; 'I' for Inactive)
REMARK    1  A    between atoms: C_1  and  C_2
REMARK    2  A    between atoms: N_4  and  C_5
REMARK    3  A    between atoms: C_6  and  N_7
REMARK    4  A    between atoms: C_12  and  C_13
REMARK    5  A    between atoms: C_13  and  O_15
REMARK    6  A    between atoms: C_17  and  C_18
REMARK    7  A    between atoms: C_18  and  O_19
REMARK    8  A    between atoms: C_18  and  C_20
REMARK    9  A    between atoms: C_20  and  O_21
REMARK   10  A    between atoms: C_20  and  C_22
REMARK   11  A    between atoms: C_22  and  O_23
REMARK                            x       y       z     vdW  Elec       q    Type
REMARK                         _______ _______ _______ _____ _____    ______ ____
ROOT
ATOM      1  C   UNL     1       5.158   4.921  18.308  0.00  0.00    +0.000 C 
ATOM      2  C   UNL     1       5.897   6.090  17.589  0.00  0.00    +0.000 C 
ATOM      3  C   UNL     1       6.407   5.716  16.238  0.00  0.00    +0.000 C 
ATOM      4  C   UNL     1       6.129   4.548  15.642  0.00  0.00    +0.000 C 
ATOM      5  O   UNL     1       5.396   3.538  16.233  0.00  0.00    +0.000 OA
ATOM      6  C   UNL     1       4.488   3.978  17.272  0.00  0.00    +0.000 C 
ENDROOT
BRANCH   2   7
ATOM      7  N   UNL     1       7.021   6.539  18.403  0.00  0.00    +0.000 N 
ATOM      8  C   UNL     1       7.749   7.650  18.157  0.00  0.00    +0.000 C 
ATOM      9  N   UNL     1       7.585   8.550  17.256  0.00  0.00    +0.000 NA
ATOM     10  N   UNL     1       8.774   7.780  19.019  0.00  0.00    +0.000 N 
ATOM     11  H   UNL     1       7.573   5.806  18.829  0.00  0.00    +0.000 HD
ATOM     12  H   UNL     1       6.786   8.317  16.670  0.00  0.00    +0.000 HD
ATOM     13  H   UNL     1       8.475   7.752  19.982  0.00  0.00    +0.000 HD
ATOM     14  H   UNL     1       9.238   8.665  18.832  0.00  0.00    +0.000 HD
ENDBRANCH   2   7
BRANCH   1  18
ATOM     15  C   UNL     1       2.247   6.506  20.217  0.00  0.00    +0.000 C 
ATOM     16  C   UNL     1       3.110   6.166  19.034  0.00  0.00    +0.000 C 
ATOM     17  O   UNL     1       2.859   6.558  17.899  0.00  0.00    +0.000 OA
ATOM     18  N   UNL     1       4.221   5.413  19.338  0.00  0.00    +0.000 N 
ATOM     19  H   UNL     1       4.168   4.860  20.188  0.00  0.00    +0.000 HD
ENDBRANCH   1  18
BRANCH   4  20
ATOM     20  C   UNL     1       6.618   4.350  14.241  0.00  0.00    +0.000 C 
ATOM     21  O   UNL     1       7.301   5.146  13.622  0.00  0.00    +0.000 OA
BRANCH  20  22
ATOM     22  O   UNL     1       6.185   3.180  13.729  0.00  0.00    +0.000 OA
ATOM     23  H   UNL     1       6.882   2.494  13.765  0.00  0.00    +0.000 HD
ENDBRANCH  20  22
ENDBRANCH   4  20
BRANCH   6  24
ATOM     24  C   UNL     1       3.915   2.695  17.937  0.00  0.00    +0.000 C 
BRANCH  24  25
ATOM     25  O   UNL     1       4.554   2.389  19.191  0.00  0.00    +0.000 OA
ATOM     26  H   UNL     1       3.905   2.632  19.892  0.00  0.00    +0.000 HD
ENDBRANCH  24  25
BRANCH  24  27
ATOM     27  C   UNL     1       2.382   2.760  18.162  0.00  0.00    +0.000 C 
BRANCH  27  28
ATOM     28  O   UNL     1       1.782   1.672  17.441  0.00  0.00    +0.000 OA
ATOM     29  H   UNL     1       1.116   2.079  16.850  0.00  0.00    +0.000 HD
ENDBRANCH  27  28
BRANCH  27  30
ATOM     30  C   UNL     1       1.974   2.640  19.640  0.00  0.00    +0.000 C 
BRANCH  30  31
ATOM     31  O   UNL     1       0.580   2.938  19.783  0.00  0.00    +0.000 OA
ATOM     32  H   UNL     1       0.322   3.451  18.993  0.00  0.00    +0.000 HD
ENDBRANCH  30  31
ENDBRANCH  27  30
ENDBRANCH  24  27
ENDBRANCH   6  24
TORSDOF 10
ENDMDL
MODEL 7
REMARK VINA RESULT:      -7.2      2.036      5.407
REMARK  Name = 
REMARK  11 active torsions:
REMARK  status: ('A' for Active; 'I' for Inactive)
REMARK    1  A    between atoms: C_1  and  C_2
REMARK    2  A    between atoms: N_4  and  C_5
REMARK    3  A    between atoms: C_6  and  N_7
REMARK    4  A    between atoms: C_12  and  C_13
REMARK    5  A    between atoms: C_13  and  O_15
REMARK    6  A    between atoms: C_17  and  C_18
REMARK    7  A    between atoms: C_18  and  O_19
REMARK    8  A    between atoms: C_18  and  C_20
REMARK    9  A    between atoms: C_20  and  O_21
REMARK   10  A    between atoms: C_20  and  C_22
REMARK   11  A    between atoms: C_22  and  O_23
REMARK                            x       y       z     vdW  Elec       q    Type
REMARK                         _______ _______ _______ _____ _____    ______ ____
ROOT
ATOM      1  C   UNL     1       4.742   5.668  17.390  0.00  0.00    +0.000 C 
ATOM      2  C   UNL     1       3.670   5.910  18.496  0.00  0.00    +0.000 C 
ATOM      3  C   UNL     1       2.698   4.786  18.624  0.00  0.00    +0.000 C 
ATOM      4  C   UNL     1       2.821   3.626  17.965  0.00  0.00    +0.000 C 
ATOM      5  O   UNL     1       3.820   3.363  17.049  0.00  0.00    +0.000 OA
ATOM      6  C   UNL     1       5.024   4.149  17.225  0.00  0.00    +0.000 C 
ENDROOT
BRANCH   2   7
ATOM      7  N   UNL     1       2.932   7.134  18.208  0.00  0.00    +0.000 N 
ATOM      8  C   UNL     1       2.210   7.825  19.117  0.00  0.00    +0.000 C 
ATOM      9  N   UNL     1       2.077   7.621  20.378  0.00  0.00    +0.000 NA
ATOM     10  N   UNL     1       1.568   8.869  18.562  0.00  0.00    +0.000 N 
ATOM     11  H   UNL     1       2.539   7.200  17.278  0.00  0.00    +0.000 HD
ATOM     12  H   UNL     1       2.603   6.796  20.657  0.00  0.00    +0.000 HD
ATOM     13  H   UNL     1       2.190   9.481  18.057  0.00  0.00    +0.000 HD
ATOM     14  H   UNL     1       1.104   9.389  19.302  0.00  0.00    +0.000 HD
ENDBRANCH   2   7
BRANCH   1  18
ATOM     15  C   UNL     1       8.110   7.022  18.593  0.00  0.00    +0.000 C 
ATOM     16  C   UNL     1       6.906   6.122  18.563  0.00  0.00    +0.000 C 
ATOM     17  O   UNL     1       6.766   5.181  19.338  0.00  0.00    +0.000 OA
ATOM     18  N   UNL     1       5.963   6.465  17.622  0.00  0.00    +0.000 N 
ATOM     19  H   UNL     1       6.297   7.002  16.828  0.00  0.00    +0.000 HD
ENDBRANCH   1  18
BRANCH   4  20
ATOM     20  C   UNL     1       1.831   2.545  18.272  0.00  0.00    +0.000 C 
ATOM     21  O   UNL     1       0.625   2.702  18.336  0.00  0.00    +0.000 OA
BRANCH  20  22
ATOM     22  O   UNL     1       2.445   1.365  18.496  0.00  0.00    +0.000 OA
ATOM     23  H   UNL     1       2.705   1.269  19.435  0.00  0.00    +0.000 HD
ENDBRANCH  20  22
ENDBRANCH   4  20
BRANCH   6  24
ATOM     24  C   UNL     1       5.932   3.855  15.998  0.00  0.00    +0.000 C 
BRANCH  24  25
ATOM     25  O   UNL     1       5.860   2.481  15.574  0.00  0.00    +0.000 OA
ATOM     26  H   UNL     1       6.636   2.340  14.983  0.00  0.00    +0.000 HD
ENDBRANCH  24  25
BRANCH  24  27
ATOM     27  C   UNL     1       5.626   4.769  14.783  0.00  0.00    +0.000 C 
BRANCH  27  28
ATOM     28  O   UNL     1       6.765   5.619  14.570  0.00  0.00    +0.000 OA
ATOM     29  H   UNL     1       6.861   5.697  13.600  0.00  0.00    +0.000 HD
ENDBRANCH  27  28
BRANCH  27  30
ATOM     30  C   UNL     1       5.357   3.991  13.484  0.00  0.00    +0.000 C 
BRANCH  30  31
ATOM     31  O   UNL     1       6.560   3.349  13.047  0.00  0.00    +0.000 OA
ATOM     32  H   UNL     1       6.378   2.990  12.157  0.00  0.00    +0.000 HD
ENDBRANCH  30  31
ENDBRANCH  27  30
ENDBRANCH  24  27
ENDBRANCH   6  24
TORSDOF 10
ENDMDL
MODEL 8
REMARK VINA RESULT:      -7.2      2.947      5.944
REMARK  Name = 
REMARK  11 active torsions:
REMARK  status: ('A' for Active; 'I' for Inactive)
REMARK    1  A    between atoms: C_1  and  C_2
REMARK    2  A    between atoms: N_4  and  C_5
REMARK    3  A    between atoms: C_6  and  N_7
REMARK    4  A    between atoms: C_12  and  C_13
REMARK    5  A    between atoms: C_13  and  O_15
REMARK    6  A    between atoms: C_17  and  C_18
REMARK    7  A    between atoms: C_18  and  O_19
REMARK    8  A    between atoms: C_18  and  C_20
REMARK    9  A    between atoms: C_20  and  O_21
REMARK   10  A    between atoms: C_20  and  C_22
REMARK   11  A    between atoms: C_22  and  O_23
REMARK                            x       y       z     vdW  Elec       q    Type
REMARK                         _______ _______ _______ _____ _____    ______ ____
ROOT
ATOM      1  C   UNL     1       3.517   4.790  18.475  0.00  0.00    +0.000 C 
ATOM      2  C   UNL     1       2.187   5.097  19.228  0.00  0.00    +0.000 C 
ATOM      3  C   UNL     1       1.830   6.545  19.217  0.00  0.00    +0.000 C 
ATOM      4  C   UNL     1       2.498   7.465  18.508  0.00  0.00    +0.000 C 
ATOM      5  O   UNL     1       3.626   7.189  17.760  0.00  0.00    +0.000 OA
ATOM      6  C   UNL     1       3.743   5.812  17.327  0.00  0.00    +0.000 C 
ENDROOT
BRANCH   2   7
ATOM      7  N   UNL     1       2.291   4.653  20.613  0.00  0.00    +0.000 N 
ATOM      8  C   UNL     1       1.825   3.473  21.077  0.00  0.00    +0.000 C 
ATOM      9  N   UNL     1       1.286   2.500  20.436  0.00  0.00    +0.000 NA
ATOM     10  N   UNL     1       1.983   3.358  22.408  0.00  0.00    +0.000 N 
ATOM     11  H   UNL     1       2.243   5.385  21.312  0.00  0.00    +0.000 HD
ATOM     12  H   UNL     1       1.217   2.729  19.446  0.00  0.00    +0.000 HD
ATOM     13  H   UNL     1       2.937   3.506  22.698  0.00  0.00    +0.000 HD
ATOM     14  H   UNL     1       1.682   2.428  22.687  0.00  0.00    +0.000 HD
ENDBRANCH   2   7
BRANCH   1  18
ATOM     15  C   UNL     1       4.109   1.025  18.157  0.00  0.00    +0.000 C 
ATOM     16  C   UNL     1       4.216   2.402  18.751  0.00  0.00    +0.000 C 
ATOM     17  O   UNL     1       4.844   2.630  19.780  0.00  0.00    +0.000 OA
ATOM     18  N   UNL     1       3.583   3.385  18.025  0.00  0.00    +0.000 N 
ATOM     19  H   UNL     1       2.829   3.079  17.419  0.00  0.00    +0.000 HD
ENDBRANCH   1  18
BRANCH   4  20
ATOM     20  C   UNL     1       1.963   8.863  18.504  0.00  0.00    +0.000 C 
ATOM     21  O   UNL     1       1.427   9.406  19.453  0.00  0.00    +0.000 OA
BRANCH  20  22
ATOM     22  O   UNL     1       2.126   9.449  17.301  0.00  0.00    +0.000 OA
ATOM     23  H   UNL     1       2.071  10.424  17.367  0.00  0.00    +0.000 HD
ENDBRANCH  20  22
ENDBRANCH   4  20
BRANCH   6  24
ATOM     24  C   UNL     1       5.151   5.664  16.685  0.00  0.00    +0.000 C 
BRANCH  24  25
ATOM     25  O   UNL     1       5.398   6.648  15.662  0.00  0.00    +0.000 OA
ATOM     26  H   UNL     1       6.269   6.411  15.265  0.00  0.00    +0.000 HD
ENDBRANCH  24  25
BRANCH  24  27
ATOM     27  C   UNL     1       6.301   5.725  17.723  0.00  0.00    +0.000 C 
BRANCH  27  28
ATOM     28  O   UNL     1       6.744   4.380  17.973  0.00  0.00    +0.000 OA
ATOM     29  H   UNL     1       6.740   4.275  18.945  0.00  0.00    +0.000 HD
ENDBRANCH  27  28
BRANCH  27  30
ATOM     30  C   UNL     1       7.511   6.549  17.251  0.00  0.00    +0.000 C 
BRANCH  30  31
ATOM     31  O   UNL     1       7.192   7.945  17.296  0.00  0.00    +0.000 OA
ATOM     32  H   UNL     1       7.889   8.373  17.829  0.00  0.00    +0.000 HD
ENDBRANCH  30  31
ENDBRANCH  27  30
ENDBRANCH  24  27
ENDBRANCH   6  24
TORSDOF 10
ENDMDL
MODEL 9
REMARK VINA RESULT:      -7.2      2.285      5.479
REMARK  Name = 
REMARK  11 active torsions:
REMARK  status: ('A' for Active; 'I' for Inactive)
REMARK    1  A    between atoms: C_1  and  C_2
REMARK    2  A    between atoms: N_4  and  C_5
REMARK    3  A    between atoms: C_6  and  N_7
REMARK    4  A    between atoms: C_12  and  C_13
REMARK    5  A    between atoms: C_13  and  O_15
REMARK    6  A    between atoms: C_17  and  C_18
REMARK    7  A    between atoms: C_18  and  O_19
REMARK    8  A    between atoms: C_18  and  C_20
REMARK    9  A    between atoms: C_20  and  O_21
REMARK   10  A    between atoms: C_20  and  C_22
REMARK   11  A    between atoms: C_22  and  O_23
REMARK                            x       y       z     vdW  Elec       q    Type
REMARK                         _______ _______ _______ _____ _____    ______ ____
ROOT
ATOM      1  C   UNL     1       5.097   6.352  16.670  0.00  0.00    +0.000 C 
ATOM      2  C   UNL     1       4.266   6.162  17.974  0.00  0.00    +0.000 C 
ATOM      3  C   UNL     1       3.620   4.821  18.065  0.00  0.00    +0.000 C 
ATOM      4  C   UNL     1       3.851   3.830  17.193  0.00  0.00    +0.000 C 
ATOM      5  O   UNL     1       4.659   3.957  16.081  0.00  0.00    +0.000 OA
ATOM      6  C   UNL     1       5.667   4.993  16.181  0.00  0.00    +0.000 C 
ENDROOT
BRANCH   2   7
ATOM      7  N   UNL     1       3.229   7.185  18.053  0.00  0.00    +0.000 N 
ATOM      8  C   UNL     1       2.465   7.419  19.142  0.00  0.00    +0.000 C 
ATOM      9  N   UNL     1       2.521   6.884  20.308  0.00  0.00    +0.000 NA
ATOM     10  N   UNL     1       1.536   8.364  18.911  0.00  0.00    +0.000 N 
ATOM     11  H   UNL     1       2.734   7.374  17.191  0.00  0.00    +0.000 HD
ATOM     12  H   UNL     1       3.256   6.180  20.335  0.00  0.00    +0.000 HD
ATOM     13  H   UNL     1       1.936   9.222  18.562  0.00  0.00    +0.000 HD
ATOM     14  H   UNL     1       1.043   8.547  19.781  0.00  0.00    +0.000 HD
ENDBRANCH   2   7
BRANCH   1  18
ATOM     15  C   UNL     1       8.167   8.411  17.650  0.00  0.00    +0.000 C 
ATOM     16  C   UNL     1       7.186   7.273  17.698  0.00  0.00    +0.000 C 
ATOM     17  O   UNL     1       7.303   6.333  18.476  0.00  0.00    +0.000 OA
ATOM     18  N   UNL     1       6.131   7.396  16.823  0.00  0.00    +0.000 N 
ATOM     19  H   UNL     1       6.289   7.984  16.011  0.00  0.00    +0.000 HD
ENDBRANCH   1  18
BRANCH   4  20
ATOM     20  C   UNL     1       3.217   2.501  17.468  0.00  0.00    +0.000 C 
ATOM     21  O   UNL     1       2.029   2.260  17.359  0.00  0.00    +0.000 OA
BRANCH  20  22
ATOM     22  O   UNL     1       4.129   1.598  17.880  0.00  0.00    +0.000 OA
ATOM     23  H   UNL     1       4.904   2.032  18.289  0.00  0.00    +0.000 HD
ENDBRANCH  20  22
ENDBRANCH   4  20
BRANCH   6  24
ATOM     24  C   UNL     1       6.329   5.108  14.779  0.00  0.00    +0.000 C 
BRANCH  24  25
ATOM     25  O   UNL     1       7.746   5.351  14.855  0.00  0.00    +0.000 OA
ATOM     26  H   UNL     1       8.125   5.006  14.012  0.00  0.00    +0.000 HD
ENDBRANCH  24  25
BRANCH  24  27
ATOM     27  C   UNL     1       6.083   3.863  13.888  0.00  0.00    +0.000 C 
BRANCH  27  28
ATOM     28  O   UNL     1       4.742   3.941  13.378  0.00  0.00    +0.000 OA
ATOM     29  H   UNL     1       4.157   3.917  14.162  0.00  0.00    +0.000 HD
ENDBRANCH  27  28
BRANCH  27  30
ATOM     30  C   UNL     1       7.046   3.764  12.693  0.00  0.00    +0.000 C 
BRANCH  30  31
ATOM     31  O   UNL     1       6.719   2.616  11.901  0.00  0.00    +0.000 OA
ATOM     32  H   UNL     1       7.439   2.511  11.251  0.00  0.00    +0.000 HD
ENDBRANCH  30  31
ENDBRANCH  27  30
ENDBRANCH  24  27
ENDBRANCH   6  24
TORSDOF 10
ENDMDL
