MODEL 1
REMARK VINA RESULT:      -9.3      0.000      0.000
REMARK  Name = 
REMARK  10 active torsions:
REMARK  status: ('A' for Active; 'I' for Inactive)
REMARK    1  A    between atoms: C_1  and  C_2
REMARK    2  A    between atoms: C_2  and  C_3
REMARK    3  A    between atoms: C_3  and  C_4
REMARK    4  A    between atoms: C_4  and  C_5
REMARK    5  A    between atoms: C_5  and  S_6
REMARK    6  A    between atoms: S_6  and  N_9
REMARK    7  A    between atoms: N_9  and  C_10
REMARK    8  A    between atoms: C_13  and  N_14
REMARK    9  A    between atoms: N_14  and  C_15
REMARK   10  A    between atoms: C_25  and  N_26
REMARK                            x       y       z     vdW  Elec       q    Type
REMARK                         _______ _______ _______ _____ _____    ______ ____
ROOT
ATOM      1  N   UNL     1       2.765   6.656  18.327  0.00  0.00    +0.000 N 
ATOM      2  H   UNL     1       2.568   6.616  17.323  0.00  0.00    +0.000 HD
ENDROOT
BRANCH   1   3
ATOM      3  C   UNL     1       4.008   5.942  18.537  0.00  0.00    +0.000 A 
ATOM      4  C   UNL     1       5.023   5.660  17.527  0.00  0.00    +0.000 A 
ATOM      5  C   UNL     1       4.971   5.779  16.113  0.00  0.00    +0.000 A 
ATOM      6  C   UNL     1       6.006   5.270  15.298  0.00  0.00    +0.000 A 
ATOM      7  C   UNL     1       7.171   4.753  15.864  0.00  0.00    +0.000 A 
ATOM      8  C   UNL     1       7.234   4.596  17.232  0.00  0.00    +0.000 A 
ATOM      9  C   UNL     1       6.122   4.899  17.992  0.00  0.00    +0.000 A 
ATOM     10  N   UNL     1       6.011   4.163  19.081  0.00  0.00    +0.000 NA
ATOM     11  C   UNL     1       4.765   3.978  19.444  0.00  0.00    +0.000 A 
ATOM     12  C   UNL     1       3.999   2.979  18.812  0.00  0.00    +0.000 A 
ATOM     13  C   UNL     1       2.596   3.095  18.821  0.00  0.00    +0.000 A 
ATOM     14  C   UNL     1       2.049   3.808  19.885  0.00  0.00    +0.000 A 
ATOM     15  C   UNL     1       2.866   4.778  20.440  0.00  0.00    +0.000 A 
ATOM     16  C   UNL     1       4.015   5.083  19.707  0.00  0.00    +0.000 A 
BRANCH  13  17
ATOM     17  N   UNL     1       1.981   3.326  17.481  0.00  0.00    +0.000 N 
ATOM     18  O   UNL     1       2.508   2.775  16.500  0.00  0.00    +0.000 OA
ATOM     19  O   UNL     1       1.037   4.140  17.418  0.00  0.00    +0.000 OA
ENDBRANCH  13  17
ENDBRANCH   1   3
BRANCH   1  23
ATOM     20  C   UNL     1       1.023  10.352  19.480  0.00  0.00    +0.000 A 
ATOM     21  C   UNL     1       1.427  10.143  18.168  0.00  0.00    +0.000 A 
ATOM     22  C   UNL     1       1.985   8.900  17.813  0.00  0.00    +0.000 A 
ATOM     23  C   UNL     1       2.171   7.862  18.763  0.00  0.00    +0.000 A 
ATOM     24  C   UNL     1       1.637   8.052  20.029  0.00  0.00    +0.000 A 
ATOM     25  C   UNL     1       1.087   9.296  20.388  0.00  0.00    +0.000 A 
BRANCH  20  26
ATOM     26  N   UNL     1       0.493  11.625  19.879  0.00  0.00    +0.000 N 
ATOM     27  H   UNL     1       1.154  12.385  19.717  0.00  0.00    +0.000 HD
BRANCH  26  28
ATOM     28  S   UNL     1      -0.992  12.056  19.179  0.00  0.00    +0.000 S 
ATOM     29  O   UNL     1      -0.783  12.791  17.961  0.00  0.00    +0.000 OA
ATOM     30  O   UNL     1      -1.816  12.582  20.275  0.00  0.00    +0.000 OA
BRANCH  28  31
ATOM     31  C   UNL     1      -1.638  10.435  18.763  0.00  0.00    +0.000 C 
BRANCH  31  32
ATOM     32  C   UNL     1      -2.797  10.525  17.768  0.00  0.00    +0.000 C 
BRANCH  32  33
ATOM     33  C   UNL     1      -2.371  10.061  16.373  0.00  0.00    +0.000 C 
BRANCH  33  35
ATOM     34  C   UNL     1      -3.102   9.964  13.964  0.00  0.00    +0.000 C 
ATOM     35  C   UNL     1      -3.214  10.718  15.280  0.00  0.00    +0.000 C 
ENDBRANCH  33  35
ENDBRANCH  32  33
ENDBRANCH  31  32
ENDBRANCH  28  31
ENDBRANCH  26  28
ENDBRANCH  20  26
ENDBRANCH   1  23
TORSDOF 9
ENDMDL
MODEL 2
REMARK VINA RESULT:      -9.2      1.892      2.878
REMARK  Name = 
REMARK  10 active torsions:
REMARK  status: ('A' for Active; 'I' for Inactive)
REMARK    1  A    between atoms: C_1  and  C_2
REMARK    2  A    between atoms: C_2  and  C_3
REMARK    3  A    between atoms: C_3  and  C_4
REMARK    4  A    between atoms: C_4  and  C_5
REMARK    5  A    between atoms: C_5  and  S_6
REMARK    6  A    between atoms: S_6  and  N_9
REMARK    7  A    between atoms: N_9  and  C_10
REMARK    8  A    between atoms: C_13  and  N_14
REMARK    9  A    between atoms: N_14  and  C_15
REMARK   10  A    between atoms: C_25  and  N_26
REMARK                            x       y       z     vdW  Elec       q    Type
REMARK                         _______ _______ _______ _____ _____    ______ ____
ROOT
ATOM      1  N   UNL     1       2.699   6.655  18.454  0.00  0.00    +0.000 N 
ATOM      2  H   UNL     1       2.474   6.574  17.459  0.00  0.00    +0.000 HD
ENDROOT
BRANCH   1   3
ATOM      3  C   UNL     1       3.937   5.933  18.662  0.00  0.00    +0.000 A 
ATOM      4  C   UNL     1       4.970   5.683  17.662  0.00  0.00    +0.000 A 
ATOM      5  C   UNL     1       4.944   5.850  16.252  0.00  0.00    +0.000 A 
ATOM      6  C   UNL     1       5.993   5.367  15.440  0.00  0.00    +0.000 A 
ATOM      7  C   UNL     1       7.147   4.830  16.009  0.00  0.00    +0.000 A 
ATOM      8  C   UNL     1       7.185   4.627  17.371  0.00  0.00    +0.000 A 
ATOM      9  C   UNL     1       6.060   4.906  18.121  0.00  0.00    +0.000 A 
ATOM     10  N   UNL     1       5.929   4.133  19.183  0.00  0.00    +0.000 NA
ATOM     11  C   UNL     1       4.676   3.938  19.517  0.00  0.00    +0.000 A 
ATOM     12  C   UNL     1       3.921   2.963  18.837  0.00  0.00    +0.000 A 
ATOM     13  C   UNL     1       2.518   3.080  18.826  0.00  0.00    +0.000 A 
ATOM     14  C   UNL     1       1.952   3.757  19.903  0.00  0.00    +0.000 A 
ATOM     15  C   UNL     1       2.760   4.708  20.504  0.00  0.00    +0.000 A 
ATOM     16  C   UNL     1       3.923   5.035  19.803  0.00  0.00    +0.000 A 
BRANCH  13  17
ATOM     17  N   UNL     1       1.928   3.357  17.483  0.00  0.00    +0.000 N 
ATOM     18  O   UNL     1       2.459   2.821  16.496  0.00  0.00    +0.000 OA
ATOM     19  O   UNL     1       1.000   4.191  17.427  0.00  0.00    +0.000 OA
ENDBRANCH  13  17
ENDBRANCH   1   3
BRANCH   1  23
ATOM     20  C   UNL     1       1.056  10.430  19.493  0.00  0.00    +0.000 A 
ATOM     21  C   UNL     1       1.525  10.196  18.208  0.00  0.00    +0.000 A 
ATOM     22  C   UNL     1       2.048   8.928  17.890  0.00  0.00    +0.000 A 
ATOM     23  C   UNL     1       2.134   7.889  18.851  0.00  0.00    +0.000 A 
ATOM     24  C   UNL     1       1.537   8.109  20.084  0.00  0.00    +0.000 A 
ATOM     25  C   UNL     1       1.022   9.377  20.407  0.00  0.00    +0.000 A 
BRANCH  20  26
ATOM     26  N   UNL     1       0.560  11.726  19.858  0.00  0.00    +0.000 N 
ATOM     27  H   UNL     1       1.171  12.477  19.535  0.00  0.00    +0.000 HD
BRANCH  26  28
ATOM     28  S   UNL     1      -1.022  12.078  19.352  0.00  0.00    +0.000 S 
ATOM     29  O   UNL     1      -1.729  10.871  19.024  0.00  0.00    +0.000 OA
ATOM     30  O   UNL     1      -0.903  13.193  18.404  0.00  0.00    +0.000 OA
BRANCH  28  31
ATOM     31  C   UNL     1      -1.708  12.745  20.869  0.00  0.00    +0.000 C 
BRANCH  31  32
ATOM     32  C   UNL     1      -1.007  12.180  22.105  0.00  0.00    +0.000 C 
BRANCH  32  33
ATOM     33  C   UNL     1      -2.018  11.690  23.145  0.00  0.00    +0.000 C 
BRANCH  33  35
ATOM     34  C   UNL     1      -4.052  12.503  24.388  0.00  0.00    +0.000 C 
ATOM     35  C   UNL     1      -3.341  12.450  23.045  0.00  0.00    +0.000 C 
ENDBRANCH  33  35
ENDBRANCH  32  33
ENDBRANCH  31  32
ENDBRANCH  28  31
ENDBRANCH  26  28
ENDBRANCH  20  26
ENDBRANCH   1  23
TORSDOF 9
ENDMDL
MODEL 3
REMARK VINA RESULT:      -9.2      0.611      1.264
REMARK  Name = 
REMARK  10 active torsions:
REMARK  status: ('A' for Active; 'I' for Inactive)
REMARK    1  A    between atoms: C_1  and  C_2
REMARK    2  A    between atoms: C_2  and  C_3
REMARK    3  A    between atoms: C_3  and  C_4
REMARK    4  A    between atoms: C_4  and  C_5
REMARK    5  A    between atoms: C_5  and  S_6
REMARK    6  A    between atoms: S_6  and  N_9
REMARK    7  A    between atoms: N_9  and  C_10
REMARK    8  A    between atoms: C_13  and  N_14
REMARK    9  A    between atoms: N_14  and  C_15
REMARK   10  A    between atoms: C_25  and  N_26
REMARK                            x       y       z     vdW  Elec       q    Type
REMARK                         _______ _______ _______ _____ _____    ______ ____
ROOT
ATOM      1  N   UNL     1       2.664   6.655  18.417  0.00  0.00    +0.000 N 
ATOM      2  H   UNL     1       2.398   6.469  17.446  0.00  0.00    +0.000 HD
ENDROOT
BRANCH   1   3
ATOM      3  C   UNL     1       3.907   5.950  18.652  0.00  0.00    +0.000 A 
ATOM      4  C   UNL     1       4.955   5.695  17.668  0.00  0.00    +0.000 A 
ATOM      5  C   UNL     1       4.945   5.840  16.256  0.00  0.00    +0.000 A 
ATOM      6  C   UNL     1       6.010   5.355  15.465  0.00  0.00    +0.000 A 
ATOM      7  C   UNL     1       7.162   4.839  16.057  0.00  0.00    +0.000 A 
ATOM      8  C   UNL     1       7.184   4.658  17.423  0.00  0.00    +0.000 A 
ATOM      9  C   UNL     1       6.047   4.937  18.153  0.00  0.00    +0.000 A 
ATOM     10  N   UNL     1       5.910   4.179  19.226  0.00  0.00    +0.000 NA
ATOM     11  C   UNL     1       4.655   3.976  19.547  0.00  0.00    +0.000 A 
ATOM     12  C   UNL     1       3.920   2.982  18.873  0.00  0.00    +0.000 A 
ATOM     13  C   UNL     1       2.516   3.084  18.841  0.00  0.00    +0.000 A 
ATOM     14  C   UNL     1       1.929   3.772  19.900  0.00  0.00    +0.000 A 
ATOM     15  C   UNL     1       2.718   4.740  20.497  0.00  0.00    +0.000 A 
ATOM     16  C   UNL     1       3.887   5.069  19.806  0.00  0.00    +0.000 A 
BRANCH  13  17
ATOM     17  N   UNL     1       1.940   3.334  17.487  0.00  0.00    +0.000 N 
ATOM     18  O   UNL     1       2.536   2.856  16.508  0.00  0.00    +0.000 OA
ATOM     19  O   UNL     1       0.951   4.094  17.418  0.00  0.00    +0.000 OA
ENDBRANCH  13  17
ENDBRANCH   1   3
BRANCH   1  23
ATOM     20  C   UNL     1       0.963  10.415  19.418  0.00  0.00    +0.000 A 
ATOM     21  C   UNL     1       0.952   9.371  20.333  0.00  0.00    +0.000 A 
ATOM     22  C   UNL     1       1.539   8.142  19.977  0.00  0.00    +0.000 A 
ATOM     23  C   UNL     1       2.121   7.929  18.700  0.00  0.00    +0.000 A 
ATOM     24  C   UNL     1       2.236   9.028  17.861  0.00  0.00    +0.000 A 
ATOM     25  C   UNL     1       1.642  10.254  18.210  0.00  0.00    +0.000 A 
BRANCH  20  26
ATOM     26  N   UNL     1       0.331  11.663  19.737  0.00  0.00    +0.000 N 
ATOM     27  H   UNL     1       0.945  12.461  19.563  0.00  0.00    +0.000 HD
BRANCH  26  28
ATOM     28  S   UNL     1      -1.150  11.957  18.961  0.00  0.00    +0.000 S 
ATOM     29  O   UNL     1      -0.943  12.650  17.719  0.00  0.00    +0.000 OA
ATOM     30  O   UNL     1      -2.052  12.470  19.999  0.00  0.00    +0.000 OA
BRANCH  28  31
ATOM     31  C   UNL     1      -1.665  10.277  18.598  0.00  0.00    +0.000 C 
BRANCH  31  32
ATOM     32  C   UNL     1      -1.765  10.028  17.092  0.00  0.00    +0.000 C 
BRANCH  32  33
ATOM     33  C   UNL     1      -3.193  10.243  16.584  0.00  0.00    +0.000 C 
BRANCH  33  35
ATOM     34  C   UNL     1      -5.059  11.650  17.524  0.00  0.00    +0.000 C 
ATOM     35  C   UNL     1      -4.178  10.429  17.738  0.00  0.00    +0.000 C 
ENDBRANCH  33  35
ENDBRANCH  32  33
ENDBRANCH  31  32
ENDBRANCH  28  31
ENDBRANCH  26  28
ENDBRANCH  20  26
ENDBRANCH   1  23
TORSDOF 9
ENDMDL
MODEL 4
REMARK VINA RESULT:      -9.0      1.729      2.750
REMARK  Name = 
REMARK  10 active torsions:
REMARK  status: ('A' for Active; 'I' for Inactive)
REMARK    1  A    between atoms: C_1  and  C_2
REMARK    2  A    between atoms: C_2  and  C_3
REMARK    3  A    between atoms: C_3  and  C_4
REMARK    4  A    between atoms: C_4  and  C_5
REMARK    5  A    between atoms: C_5  and  S_6
REMARK    6  A    between atoms: S_6  and  N_9
REMARK    7  A    between atoms: N_9  and  C_10
REMARK    8  A    between atoms: C_13  and  N_14
REMARK    9  A    between atoms: N_14  and  C_15
REMARK   10  A    between atoms: C_25  and  N_26
REMARK                            x       y       z     vdW  Elec       q    Type
REMARK                         _______ _______ _______ _____ _____    ______ ____
ROOT
ATOM      1  N   UNL     1       2.641   6.590  18.400  0.00  0.00    +0.000 N 
ATOM      2  H   UNL     1       2.350   6.363  17.446  0.00  0.00    +0.000 HD
ENDROOT
BRANCH   1   3
ATOM      3  C   UNL     1       3.897   5.904  18.627  0.00  0.00    +0.000 A 
ATOM      4  C   UNL     1       4.926   5.632  17.628  0.00  0.00    +0.000 A 
ATOM      5  C   UNL     1       4.882   5.736  16.213  0.00  0.00    +0.000 A 
ATOM      6  C   UNL     1       5.934   5.239  15.412  0.00  0.00    +0.000 A 
ATOM      7  C   UNL     1       7.105   4.752  15.992  0.00  0.00    +0.000 A 
ATOM      8  C   UNL     1       7.160   4.612  17.362  0.00  0.00    +0.000 A 
ATOM      9  C   UNL     1       6.037   4.900  18.110  0.00  0.00    +0.000 A 
ATOM     10  N   UNL     1       5.933   4.173  19.206  0.00  0.00    +0.000 NA
ATOM     11  C   UNL     1       4.688   3.966  19.562  0.00  0.00    +0.000 A 
ATOM     12  C   UNL     1       3.948   2.945  18.934  0.00  0.00    +0.000 A 
ATOM     13  C   UNL     1       2.543   3.031  18.932  0.00  0.00    +0.000 A 
ATOM     14  C   UNL     1       1.972   3.744  19.984  0.00  0.00    +0.000 A 
ATOM     15  C   UNL     1       2.765   4.737  20.534  0.00  0.00    +0.000 A 
ATOM     16  C   UNL     1       3.913   5.058  19.807  0.00  0.00    +0.000 A 
BRANCH  13  17
ATOM     17  N   UNL     1       1.934   3.235  17.585  0.00  0.00    +0.000 N 
ATOM     18  O   UNL     1       2.416   2.603  16.630  0.00  0.00    +0.000 OA
ATOM     19  O   UNL     1       1.043   4.105  17.486  0.00  0.00    +0.000 OA
ENDBRANCH  13  17
ENDBRANCH   1   3
BRANCH   1  23
ATOM     20  C   UNL     1       0.924  10.367  19.297  0.00  0.00    +0.000 A 
ATOM     21  C   UNL     1       0.877   9.335  20.224  0.00  0.00    +0.000 A 
ATOM     22  C   UNL     1       1.471   8.100  19.903  0.00  0.00    +0.000 A 
ATOM     23  C   UNL     1       2.094   7.869  18.650  0.00  0.00    +0.000 A 
ATOM     24  C   UNL     1       2.243   8.956  17.801  0.00  0.00    +0.000 A 
ATOM     25  C   UNL     1       1.643  10.189  18.115  0.00  0.00    +0.000 A 
BRANCH  20  26
ATOM     26  N   UNL     1       0.287  11.622  19.579  0.00  0.00    +0.000 N 
ATOM     27  H   UNL     1       0.951  12.397  19.590  0.00  0.00    +0.000 HD
BRANCH  26  28
ATOM     28  S   UNL     1      -0.998  12.042  18.551  0.00  0.00    +0.000 S 
ATOM     29  O   UNL     1      -1.327  10.948  17.679  0.00  0.00    +0.000 OA
ATOM     30  O   UNL     1      -0.681  13.380  18.037  0.00  0.00    +0.000 OA
BRANCH  28  31
ATOM     31  C   UNL     1      -2.321  12.235  19.747  0.00  0.00    +0.000 C 
BRANCH  31  32
ATOM     32  C   UNL     1      -1.869  13.037  20.968  0.00  0.00    +0.000 C 
BRANCH  32  33
ATOM     33  C   UNL     1      -2.119  12.265  22.266  0.00  0.00    +0.000 C 
BRANCH  33  35
ATOM     34  C   UNL     1      -0.966  10.219  23.176  0.00  0.00    +0.000 C 
ATOM     35  C   UNL     1      -0.823  11.696  22.842  0.00  0.00    +0.000 C 
ENDBRANCH  33  35
ENDBRANCH  32  33
ENDBRANCH  31  32
ENDBRANCH  28  31
ENDBRANCH  26  28
ENDBRANCH  20  26
ENDBRANCH   1  23
TORSDOF 9
ENDMDL
MODEL 5
REMARK VINA RESULT:      -9.0      2.065      3.023
REMARK  Name = 
REMARK  10 active torsions:
REMARK  status: ('A' for Active; 'I' for Inactive)
REMARK    1  A    between atoms: C_1  and  C_2
REMARK    2  A    between atoms: C_2  and  C_3
REMARK    3  A    between atoms: C_3  and  C_4
REMARK    4  A    between atoms: C_4  and  C_5
REMARK    5  A    between atoms: C_5  and  S_6
REMARK    6  A    between atoms: S_6  and  N_9
REMARK    7  A    between atoms: N_9  and  C_10
REMARK    8  A    between atoms: C_13  and  N_14
REMARK    9  A    between atoms: N_14  and  C_15
REMARK   10  A    between atoms: C_25  and  N_26
REMARK                            x       y       z     vdW  Elec       q    Type
REMARK                         _______ _______ _______ _____ _____    ______ ____
ROOT
ATOM      1  N   UNL     1       2.687   6.645  18.282  0.00  0.00    +0.000 N 
ATOM      2  H   UNL     1       2.447   6.465  17.303  0.00  0.00    +0.000 HD
ENDROOT
BRANCH   1   3
ATOM      3  C   UNL     1       3.942   5.967  18.535  0.00  0.00    +0.000 A 
ATOM      4  C   UNL     1       4.980   5.675  17.552  0.00  0.00    +0.000 A 
ATOM      5  C   UNL     1       4.948   5.747  16.134  0.00  0.00    +0.000 A 
ATOM      6  C   UNL     1       6.008   5.235  15.353  0.00  0.00    +0.000 A 
ATOM      7  C   UNL     1       7.175   4.764  15.955  0.00  0.00    +0.000 A 
ATOM      8  C   UNL     1       7.218   4.653  17.327  0.00  0.00    +0.000 A 
ATOM      9  C   UNL     1       6.088   4.955  18.059  0.00  0.00    +0.000 A 
ATOM     10  N   UNL     1       5.974   4.252  19.170  0.00  0.00    +0.000 NA
ATOM     11  C   UNL     1       4.727   4.051  19.519  0.00  0.00    +0.000 A 
ATOM     12  C   UNL     1       3.994   3.015  18.907  0.00  0.00    +0.000 A 
ATOM     13  C   UNL     1       2.589   3.099  18.891  0.00  0.00    +0.000 A 
ATOM     14  C   UNL     1       2.008   3.833  19.921  0.00  0.00    +0.000 A 
ATOM     15  C   UNL     1       2.794   4.840  20.457  0.00  0.00    +0.000 A 
ATOM     16  C   UNL     1       3.948   5.147  19.733  0.00  0.00    +0.000 A 
BRANCH  13  17
ATOM     17  N   UNL     1       1.992   3.272  17.534  0.00  0.00    +0.000 N 
ATOM     18  O   UNL     1       2.498   2.637  16.593  0.00  0.00    +0.000 OA
ATOM     19  O   UNL     1       1.086   4.123  17.412  0.00  0.00    +0.000 OA
ENDBRANCH  13  17
ENDBRANCH   1   3
BRANCH   1  23
ATOM     20  C   UNL     1       0.881  10.351  19.300  0.00  0.00    +0.000 A 
ATOM     21  C   UNL     1       0.938   9.318  20.225  0.00  0.00    +0.000 A 
ATOM     22  C   UNL     1       1.559   8.107  19.863  0.00  0.00    +0.000 A 
ATOM     23  C   UNL     1       2.106   7.901  18.570  0.00  0.00    +0.000 A 
ATOM     24  C   UNL     1       2.154   8.994  17.716  0.00  0.00    +0.000 A 
ATOM     25  C   UNL     1       1.526  10.201  18.072  0.00  0.00    +0.000 A 
BRANCH  20  26
ATOM     26  N   UNL     1       0.214  11.579  19.626  0.00  0.00    +0.000 N 
ATOM     27  H   UNL     1      -0.529  11.442  20.313  0.00  0.00    +0.000 HD
BRANCH  26  28
ATOM     28  S   UNL     1       1.215  12.836  20.173  0.00  0.00    +0.000 S 
ATOM     29  O   UNL     1       1.854  13.493  19.066  0.00  0.00    +0.000 OA
ATOM     30  O   UNL     1       1.980  12.282  21.297  0.00  0.00    +0.000 OA
BRANCH  28  31
ATOM     31  C   UNL     1      -0.010  13.949  20.865  0.00  0.00    +0.000 C 
BRANCH  31  32
ATOM     32  C   UNL     1      -0.482  13.486  22.245  0.00  0.00    +0.000 C 
BRANCH  32  33
ATOM     33  C   UNL     1      -1.892  12.893  22.182  0.00  0.00    +0.000 C 
BRANCH  33  35
ATOM     34  C   UNL     1      -1.021  10.682  23.018  0.00  0.00    +0.000 C 
ATOM     35  C   UNL     1      -2.074  11.765  23.198  0.00  0.00    +0.000 C 
ENDBRANCH  33  35
ENDBRANCH  32  33
ENDBRANCH  31  32
ENDBRANCH  28  31
ENDBRANCH  26  28
ENDBRANCH  20  26
ENDBRANCH   1  23
TORSDOF 9
ENDMDL
MODEL 6
REMARK VINA RESULT:      -8.9      0.779      1.009
REMARK  Name = 
REMARK  10 active torsions:
REMARK  status: ('A' for Active; 'I' for Inactive)
REMARK    1  A    between atoms: C_1  and  C_2
REMARK    2  A    between atoms: C_2  and  C_3
REMARK    3  A    between atoms: C_3  and  C_4
REMARK    4  A    between atoms: C_4  and  C_5
REMARK    5  A    between atoms: C_5  and  S_6
REMARK    6  A    between atoms: S_6  and  N_9
REMARK    7  A    between atoms: N_9  and  C_10
REMARK    8  A    between atoms: C_13  and  N_14
REMARK    9  A    between atoms: N_14  and  C_15
REMARK   10  A    between atoms: C_25  and  N_26
REMARK                            x       y       z     vdW  Elec       q    Type
REMARK                         _______ _______ _______ _____ _____    ______ ____
ROOT
ATOM      1  N   UNL     1       2.693   6.684  18.446  0.00  0.00    +0.000 N 
ATOM      2  H   UNL     1       2.427   6.525  17.471  0.00  0.00    +0.000 HD
ENDROOT
BRANCH   1   3
ATOM      3  C   UNL     1       3.924   5.952  18.668  0.00  0.00    +0.000 A 
ATOM      4  C   UNL     1       4.961   5.687  17.676  0.00  0.00    +0.000 A 
ATOM      5  C   UNL     1       4.946   5.845  16.265  0.00  0.00    +0.000 A 
ATOM      6  C   UNL     1       5.996   5.347  15.463  0.00  0.00    +0.000 A 
ATOM      7  C   UNL     1       7.142   4.803  16.044  0.00  0.00    +0.000 A 
ATOM      8  C   UNL     1       7.169   4.609  17.408  0.00  0.00    +0.000 A 
ATOM      9  C   UNL     1       6.042   4.903  18.148  0.00  0.00    +0.000 A 
ATOM     10  N   UNL     1       5.896   4.139  19.214  0.00  0.00    +0.000 NA
ATOM     11  C   UNL     1       4.639   3.957  19.541  0.00  0.00    +0.000 A 
ATOM     12  C   UNL     1       3.880   2.984  18.862  0.00  0.00    +0.000 A 
ATOM     13  C   UNL     1       2.479   3.113  18.840  0.00  0.00    +0.000 A 
ATOM     14  C   UNL     1       1.911   3.803  19.909  0.00  0.00    +0.000 A 
ATOM     15  C   UNL     1       2.723   4.750  20.510  0.00  0.00    +0.000 A 
ATOM     16  C   UNL     1       3.893   5.063  19.814  0.00  0.00    +0.000 A 
BRANCH  13  17
ATOM     17  N   UNL     1       1.900   3.386  17.491  0.00  0.00    +0.000 N 
ATOM     18  O   UNL     1       2.410   2.810  16.516  0.00  0.00    +0.000 OA
ATOM     19  O   UNL     1       1.006   4.254  17.418  0.00  0.00    +0.000 OA
ENDBRANCH  13  17
ENDBRANCH   1   3
BRANCH   1  23
ATOM     20  C   UNL     1       1.190  10.577  19.229  0.00  0.00    +0.000 A 
ATOM     21  C   UNL     1       1.725  10.266  17.987  0.00  0.00    +0.000 A 
ATOM     22  C   UNL     1       2.199   8.961  17.753  0.00  0.00    +0.000 A 
ATOM     23  C   UNL     1       2.171   7.960  18.758  0.00  0.00    +0.000 A 
ATOM     24  C   UNL     1       1.510   8.262  19.940  0.00  0.00    +0.000 A 
ATOM     25  C   UNL     1       1.044   9.566  20.180  0.00  0.00    +0.000 A 
BRANCH  20  26
ATOM     26  N   UNL     1       0.741  11.911  19.511  0.00  0.00    +0.000 N 
ATOM     27  H   UNL     1       1.127  12.593  18.856  0.00  0.00    +0.000 HD
BRANCH  26  28
ATOM     28  S   UNL     1      -0.942  12.124  19.565  0.00  0.00    +0.000 S 
ATOM     29  O   UNL     1      -1.275  13.521  19.615  0.00  0.00    +0.000 OA
ATOM     30  O   UNL     1      -1.436  11.169  20.566  0.00  0.00    +0.000 OA
BRANCH  28  31
ATOM     31  C   UNL     1      -1.403  11.486  17.954  0.00  0.00    +0.000 C 
BRANCH  31  32
ATOM     32  C   UNL     1      -2.185  10.176  18.064  0.00  0.00    +0.000 C 
BRANCH  32  33
ATOM     33  C   UNL     1      -3.096   9.965  16.852  0.00  0.00    +0.000 C 
BRANCH  33  35
ATOM     34  C   UNL     1      -5.113  11.106  17.839  0.00  0.00    +0.000 C 
ATOM     35  C   UNL     1      -4.104  11.104  16.701  0.00  0.00    +0.000 C 
ENDBRANCH  33  35
ENDBRANCH  32  33
ENDBRANCH  31  32
ENDBRANCH  28  31
ENDBRANCH  26  28
ENDBRANCH  20  26
ENDBRANCH   1  23
TORSDOF 9
ENDMDL
MODEL 7
REMARK VINA RESULT:      -8.8      2.200      3.091
REMARK  Name = 
REMARK  10 active torsions:
REMARK  status: ('A' for Active; 'I' for Inactive)
REMARK    1  A    between atoms: C_1  and  C_2
REMARK    2  A    between atoms: C_2  and  C_3
REMARK    3  A    between atoms: C_3  and  C_4
REMARK    4  A    between atoms: C_4  and  C_5
REMARK    5  A    between atoms: C_5  and  S_6
REMARK    6  A    between atoms: S_6  and  N_9
REMARK    7  A    between atoms: N_9  and  C_10
REMARK    8  A    between atoms: C_13  and  N_14
REMARK    9  A    between atoms: N_14  and  C_15
REMARK   10  A    between atoms: C_25  and  N_26
REMARK                            x       y       z     vdW  Elec       q    Type
REMARK                         _______ _______ _______ _____ _____    ______ ____
ROOT
ATOM      1  N   UNL     1       2.624   6.709  18.398  0.00  0.00    +0.000 N 
ATOM      2  H   UNL     1       2.350   6.490  17.436  0.00  0.00    +0.000 HD
ENDROOT
BRANCH   1   3
ATOM      3  C   UNL     1       3.875   6.022  18.643  0.00  0.00    +0.000 A 
ATOM      4  C   UNL     1       4.926   5.764  17.663  0.00  0.00    +0.000 A 
ATOM      5  C   UNL     1       4.913   5.886  16.248  0.00  0.00    +0.000 A 
ATOM      6  C   UNL     1       5.982   5.401  15.464  0.00  0.00    +0.000 A 
ATOM      7  C   UNL     1       7.141   4.908  16.063  0.00  0.00    +0.000 A 
ATOM      8  C   UNL     1       7.167   4.749  17.431  0.00  0.00    +0.000 A 
ATOM      9  C   UNL     1       6.027   5.026  18.159  0.00  0.00    +0.000 A 
ATOM     10  N   UNL     1       5.900   4.285  19.243  0.00  0.00    +0.000 NA
ATOM     11  C   UNL     1       4.648   4.072  19.569  0.00  0.00    +0.000 A 
ATOM     12  C   UNL     1       3.923   3.059  18.912  0.00  0.00    +0.000 A 
ATOM     13  C   UNL     1       2.518   3.144  18.880  0.00  0.00    +0.000 A 
ATOM     14  C   UNL     1       1.924   3.842  19.929  0.00  0.00    +0.000 A 
ATOM     15  C   UNL     1       2.703   4.829  20.509  0.00  0.00    +0.000 A 
ATOM     16  C   UNL     1       3.867   5.160  19.811  0.00  0.00    +0.000 A 
BRANCH  13  17
ATOM     17  N   UNL     1       1.938   3.365  17.523  0.00  0.00    +0.000 N 
ATOM     18  O   UNL     1       2.472   2.783  16.564  0.00  0.00    +0.000 OA
ATOM     19  O   UNL     1       1.016   4.201  17.424  0.00  0.00    +0.000 OA
ENDBRANCH  13  17
ENDBRANCH   1   3
BRANCH   1  23
ATOM     20  C   UNL     1       0.897  10.483  19.294  0.00  0.00    +0.000 A 
ATOM     21  C   UNL     1       0.878   9.460  20.232  0.00  0.00    +0.000 A 
ATOM     22  C   UNL     1       1.475   8.226  19.911  0.00  0.00    +0.000 A 
ATOM     23  C   UNL     1       2.073   7.987  18.646  0.00  0.00    +0.000 A 
ATOM     24  C   UNL     1       2.193   9.067  17.783  0.00  0.00    +0.000 A 
ATOM     25  C   UNL     1       1.591  10.297  18.098  0.00  0.00    +0.000 A 
BRANCH  20  26
ATOM     26  N   UNL     1       0.256  11.735  19.577  0.00  0.00    +0.000 N 
ATOM     27  H   UNL     1      -0.754  11.635  19.687  0.00  0.00    +0.000 HD
BRANCH  26  28
ATOM     28  S   UNL     1       0.854  12.579  20.923  0.00  0.00    +0.000 S 
ATOM     29  O   UNL     1       2.291  12.554  20.941  0.00  0.00    +0.000 OA
ATOM     30  O   UNL     1       0.052  12.129  22.068  0.00  0.00    +0.000 OA
BRANCH  28  31
ATOM     31  C   UNL     1       0.318  14.245  20.527  0.00  0.00    +0.000 C 
BRANCH  31  32
ATOM     32  C   UNL     1       0.466  14.548  19.035  0.00  0.00    +0.000 C 
BRANCH  32  33
ATOM     33  C   UNL     1       1.412  15.728  18.797  0.00  0.00    +0.000 C 
BRANCH  33  35
ATOM     34  C   UNL     1       3.501  15.637  17.392  0.00  0.00    +0.000 C 
ATOM     35  C   UNL     1       2.870  15.275  18.728  0.00  0.00    +0.000 C 
ENDBRANCH  33  35
ENDBRANCH  32  33
ENDBRANCH  31  32
ENDBRANCH  28  31
ENDBRANCH  26  28
ENDBRANCH  20  26
ENDBRANCH   1  23
TORSDOF 9
ENDMDL
MODEL 8
REMARK VINA RESULT:      -8.8      1.838      2.627
REMARK  Name = 
REMARK  10 active torsions:
REMARK  status: ('A' for Active; 'I' for Inactive)
REMARK    1  A    between atoms: C_1  and  C_2
REMARK    2  A    between atoms: C_2  and  C_3
REMARK    3  A    between atoms: C_3  and  C_4
REMARK    4  A    between atoms: C_4  and  C_5
REMARK    5  A    between atoms: C_5  and  S_6
REMARK    6  A    between atoms: S_6  and  N_9
REMARK    7  A    between atoms: N_9  and  C_10
REMARK    8  A    between atoms: C_13  and  N_14
REMARK    9  A    between atoms: N_14  and  C_15
REMARK   10  A    between atoms: C_25  and  N_26
REMARK                            x       y       z     vdW  Elec       q    Type
REMARK                         _______ _______ _______ _____ _____    ______ ____
ROOT
ATOM      1  N   UNL     1       2.707   6.658  18.342  0.00  0.00    +0.000 N 
ATOM      2  H   UNL     1       2.471   6.506  17.358  0.00  0.00    +0.000 HD
ENDROOT
BRANCH   1   3
ATOM      3  C   UNL     1       3.950   5.955  18.586  0.00  0.00    +0.000 A 
ATOM      4  C   UNL     1       4.989   5.669  17.602  0.00  0.00    +0.000 A 
ATOM      5  C   UNL     1       4.967   5.774  16.186  0.00  0.00    +0.000 A 
ATOM      6  C   UNL     1       6.023   5.263  15.399  0.00  0.00    +0.000 A 
ATOM      7  C   UNL     1       7.178   4.760  15.996  0.00  0.00    +0.000 A 
ATOM      8  C   UNL     1       7.212   4.618  17.366  0.00  0.00    +0.000 A 
ATOM      9  C   UNL     1       6.083   4.921  18.098  0.00  0.00    +0.000 A 
ATOM     10  N   UNL     1       5.952   4.195  19.193  0.00  0.00    +0.000 NA
ATOM     11  C   UNL     1       4.700   4.005  19.531  0.00  0.00    +0.000 A 
ATOM     12  C   UNL     1       3.955   2.995  18.892  0.00  0.00    +0.000 A 
ATOM     13  C   UNL     1       2.551   3.101  18.870  0.00  0.00    +0.000 A 
ATOM     14  C   UNL     1       1.976   3.821  19.914  0.00  0.00    +0.000 A 
ATOM     15  C   UNL     1       2.774   4.803  20.476  0.00  0.00    +0.000 A 
ATOM     16  C   UNL     1       3.937   5.108  19.765  0.00  0.00    +0.000 A 
BRANCH  13  17
ATOM     17  N   UNL     1       1.964   3.315  17.514  0.00  0.00    +0.000 N 
ATOM     18  O   UNL     1       2.485   2.716  16.558  0.00  0.00    +0.000 OA
ATOM     19  O   UNL     1       1.051   4.160  17.413  0.00  0.00    +0.000 OA
ENDBRANCH  13  17
ENDBRANCH   1   3
BRANCH   1  23
ATOM     20  C   UNL     1       0.955  10.366  19.441  0.00  0.00    +0.000 A 
ATOM     21  C   UNL     1       1.020   9.321  20.352  0.00  0.00    +0.000 A 
ATOM     22  C   UNL     1       1.623   8.110  19.962  0.00  0.00    +0.000 A 
ATOM     23  C   UNL     1       2.144   7.916  18.657  0.00  0.00    +0.000 A 
ATOM     24  C   UNL     1       2.185   9.018  17.816  0.00  0.00    +0.000 A 
ATOM     25  C   UNL     1       1.575  10.226  18.199  0.00  0.00    +0.000 A 
BRANCH  20  26
ATOM     26  N   UNL     1       0.306  11.596  19.795  0.00  0.00    +0.000 N 
ATOM     27  H   UNL     1       0.904  12.408  19.636  0.00  0.00    +0.000 HD
BRANCH  26  28
ATOM     28  S   UNL     1      -1.187  11.884  19.039  0.00  0.00    +0.000 S 
ATOM     29  O   UNL     1      -1.826  10.645  18.692  0.00  0.00    +0.000 OA
ATOM     30  O   UNL     1      -0.938  12.937  18.047  0.00  0.00    +0.000 OA
BRANCH  28  31
ATOM     31  C   UNL     1      -2.096  12.636  20.390  0.00  0.00    +0.000 C 
BRANCH  31  32
ATOM     32  C   UNL     1      -3.594  12.710  20.094  0.00  0.00    +0.000 C 
BRANCH  32  33
ATOM     33  C   UNL     1      -4.318  13.611  21.098  0.00  0.00    +0.000 C 
BRANCH  33  35
ATOM     34  C   UNL     1      -6.553  12.669  21.779  0.00  0.00    +0.000 C 
ATOM     35  C   UNL     1      -5.081  12.793  22.140  0.00  0.00    +0.000 C 
ENDBRANCH  33  35
ENDBRANCH  32  33
ENDBRANCH  31  32
ENDBRANCH  28  31
ENDBRANCH  26  28
ENDBRANCH  20  26
ENDBRANCH   1  23
TORSDOF 9
ENDMDL
MODEL 9
REMARK VINA RESULT:      -8.8      1.730      2.697
REMARK  Name = 
REMARK  10 active torsions:
REMARK  status: ('A' for Active; 'I' for Inactive)
REMARK    1  A    between atoms: C_1  and  C_2
REMARK    2  A    between atoms: C_2  and  C_3
REMARK    3  A    between atoms: C_3  and  C_4
REMARK    4  A    between atoms: C_4  and  C_5
REMARK    5  A    between atoms: C_5  and  S_6
REMARK    6  A    between atoms: S_6  and  N_9
REMARK    7  A    between atoms: N_9  and  C_10
REMARK    8  A    between atoms: C_13  and  N_14
REMARK    9  A    between atoms: N_14  and  C_15
REMARK   10  A    between atoms: C_25  and  N_26
REMARK                            x       y       z     vdW  Elec       q    Type
REMARK                         _______ _______ _______ _____ _____    ______ ____
ROOT
ATOM      1  N   UNL     1       2.733   6.676  18.319  0.00  0.00    +0.000 N 
ATOM      2  H   UNL     1       2.526   6.621  17.318  0.00  0.00    +0.000 HD
ENDROOT
BRANCH   1   3
ATOM      3  C   UNL     1       3.982   5.972  18.526  0.00  0.00    +0.000 A 
ATOM      4  C   UNL     1       4.995   5.692  17.512  0.00  0.00    +0.000 A 
ATOM      5  C   UNL     1       4.934   5.805  16.098  0.00  0.00    +0.000 A 
ATOM      6  C   UNL     1       5.969   5.299  15.281  0.00  0.00    +0.000 A 
ATOM      7  C   UNL     1       7.141   4.794  15.843  0.00  0.00    +0.000 A 
ATOM      8  C   UNL     1       7.212   4.644  17.211  0.00  0.00    +0.000 A 
ATOM      9  C   UNL     1       6.102   4.943  17.975  0.00  0.00    +0.000 A 
ATOM     10  N   UNL     1       6.002   4.211  19.069  0.00  0.00    +0.000 NA
ATOM     11  C   UNL     1       4.759   4.018  19.440  0.00  0.00    +0.000 A 
ATOM     12  C   UNL     1       3.998   3.011  18.816  0.00  0.00    +0.000 A 
ATOM     13  C   UNL     1       2.594   3.116  18.832  0.00  0.00    +0.000 A 
ATOM     14  C   UNL     1       2.047   3.830  19.895  0.00  0.00    +0.000 A 
ATOM     15  C   UNL     1       2.859   4.810  20.441  0.00  0.00    +0.000 A 
ATOM     16  C   UNL     1       4.002   5.119  19.700  0.00  0.00    +0.000 A 
BRANCH  13  17
ATOM     17  N   UNL     1       1.971   3.336  17.494  0.00  0.00    +0.000 N 
ATOM     18  O   UNL     1       2.463   2.740  16.521  0.00  0.00    +0.000 OA
ATOM     19  O   UNL     1       1.057   4.184  17.421  0.00  0.00    +0.000 OA
ENDBRANCH  13  17
ENDBRANCH   1   3
BRANCH   1  23
ATOM     20  C   UNL     1       0.889  10.224  19.745  0.00  0.00    +0.000 A 
ATOM     21  C   UNL     1       1.014   9.115  20.571  0.00  0.00    +0.000 A 
ATOM     22  C   UNL     1       1.646   7.960  20.074  0.00  0.00    +0.000 A 
ATOM     23  C   UNL     1       2.137   7.884  18.745  0.00  0.00    +0.000 A 
ATOM     24  C   UNL     1       2.117   9.049  17.991  0.00  0.00    +0.000 A 
ATOM     25  C   UNL     1       1.478  10.202  18.481  0.00  0.00    +0.000 A 
BRANCH  20  26
ATOM     26  N   UNL     1       0.208  11.399  20.210  0.00  0.00    +0.000 N 
ATOM     27  H   UNL     1       0.809  12.224  20.193  0.00  0.00    +0.000 HD
BRANCH  26  28
ATOM     28  S   UNL     1      -1.237  11.779  19.404  0.00  0.00    +0.000 S 
ATOM     29  O   UNL     1      -2.214  12.288  20.327  0.00  0.00    +0.000 OA
ATOM     30  O   UNL     1      -1.517  10.639  18.522  0.00  0.00    +0.000 OA
BRANCH  28  31
ATOM     31  C   UNL     1      -0.681  13.129  18.362  0.00  0.00    +0.000 C 
BRANCH  31  32
ATOM     32  C   UNL     1      -0.449  14.409  19.166  0.00  0.00    +0.000 C 
BRANCH  32  33
ATOM     33  C   UNL     1       0.900  15.046  18.825  0.00  0.00    +0.000 C 
BRANCH  33  35
ATOM     34  C   UNL     1       2.927  13.743  19.560  0.00  0.00    +0.000 C 
ATOM     35  C   UNL     1       1.937  13.993  18.433  0.00  0.00    +0.000 C 
ENDBRANCH  33  35
ENDBRANCH  32  33
ENDBRANCH  31  32
ENDBRANCH  28  31
ENDBRANCH  26  28
ENDBRANCH  20  26
ENDBRANCH   1  23
TORSDOF 9
ENDMDL
