MODEL 1
REMARK VINA RESULT:      -7.3      0.000      0.000
REMARK  Name = 
REMARK  8 active torsions:
REMARK  status: ('A' for Active; 'I' for Inactive)
REMARK    1  A    between atoms: C_1  and  N_2
REMARK    2  A    between atoms: C_6  and  C_7
REMARK    3  A    between atoms: C_7  and  N_8
REMARK    4  A    between atoms: C_11  and  N_12
REMARK    5  A    between atoms: N_12  and  S_13
REMARK    6  A    between atoms: S_13  and  C_14
REMARK    7  A    between atoms: C_17  and  C_18
REMARK    8  A    between atoms: C_18  and  C_19
REMARK                            x       y       z     vdW  Elec       q    Type
REMARK                         _______ _______ _______ _____ _____    ______ ____
ROOT
ATOM      1  N   UNL     1       5.293   3.552  18.056  0.00  0.00    +0.000 NA
ATOM      2  C   UNL     1       5.334   4.316  19.314  0.00  0.00    +0.000 C 
ATOM      3  C   UNL     1       4.561   5.594  19.042  0.00  0.00    +0.000 C 
ATOM      4  C   UNL     1       4.920   5.947  17.602  0.00  0.00    +0.000 C 
ATOM      5  C   UNL     1       5.530   4.648  16.990  0.00  0.00    +0.000 C 
ENDROOT
BRANCH   4   6
ATOM      6  N   UNL     1       5.754   7.199  17.516  0.00  0.00    +0.000 NA
ATOM      7  H   UNL     1       5.402   7.900  18.173  0.00  0.00    +0.000 HD
BRANCH   6   8
ATOM      8  S   UNL     1       7.444   7.124  17.579  0.00  0.00    +0.000 S 
ATOM      9  C   UNL     1       7.880   8.838  17.816  0.00  0.00    +0.000 C 
ATOM     10  O   UNL     1       7.814   6.427  18.793  0.00  0.00    +0.000 OA
ATOM     11  O   UNL     1       7.929   6.706  16.287  0.00  0.00    +0.000 OA
ENDBRANCH   6   8
ENDBRANCH   4   6
BRANCH   1  12
ATOM     12  C   UNL     1       3.989   2.873  17.841  0.00  0.00    +0.000 C 
BRANCH  12  18
ATOM     13  C   UNL     1       1.236   4.649  17.670  0.00  0.00    +0.000 C 
ATOM     14  N   UNL     1       1.732   3.838  18.753  0.00  0.00    +0.000 N 
ATOM     15  C   UNL     1       1.140   3.806  19.995  0.00  0.00    +0.000 A 
ATOM     16  C   UNL     1       1.844   2.876  20.713  0.00  0.00    +0.000 A 
ATOM     17  N   UNL     1       2.842   2.350  19.949  0.00  0.00    +0.000 NA
ATOM     18  C   UNL     1       2.810   2.978  18.778  0.00  0.00    +0.000 A 
ENDBRANCH  12  18
ENDBRANCH   1  12
BRANCH   5  19
ATOM     19  C   UNL     1       4.957   4.266  15.585  0.00  0.00    +0.000 C 
BRANCH  19  20
ATOM     20  C   UNL     1       5.731   4.261  14.298  0.00  0.00    +0.000 A 
ATOM     21  C   UNL     1       5.503   3.461  13.187  0.00  0.00    +0.000 A 
ATOM     22  C   UNL     1       6.376   3.517  12.095  0.00  0.00    +0.000 A 
ATOM     23  C   UNL     1       7.447   4.396  12.138  0.00  0.00    +0.000 A 
ATOM     24  N   UNL     1       7.695   5.210  13.177  0.00  0.00    +0.000 NA
ATOM     25  C   UNL     1       6.842   5.125  14.221  0.00  0.00    +0.000 A 
ENDBRANCH  19  20
ENDBRANCH   5  19
TORSDOF 6
ENDMDL
MODEL 2
REMARK VINA RESULT:      -7.1      3.811      5.119
REMARK  Name = 
REMARK  8 active torsions:
REMARK  status: ('A' for Active; 'I' for Inactive)
REMARK    1  A    between atoms: C_1  and  N_2
REMARK    2  A    between atoms: C_6  and  C_7
REMARK    3  A    between atoms: C_7  and  N_8
REMARK    4  A    between atoms: C_11  and  N_12
REMARK    5  A    between atoms: N_12  and  S_13
REMARK    6  A    between atoms: S_13  and  C_14
REMARK    7  A    between atoms: C_17  and  C_18
REMARK    8  A    between atoms: C_18  and  C_19
REMARK                            x       y       z     vdW  Elec       q    Type
REMARK                         _______ _______ _______ _____ _____    ______ ____
ROOT
ATOM      1  N   UNL     1       2.044   6.205  18.682  0.00  0.00    +0.000 NA
ATOM      2  C   UNL     1       1.624   5.456  19.878  0.00  0.00    +0.000 C 
ATOM      3  C   UNL     1       2.908   5.025  20.563  0.00  0.00    +0.000 C 
ATOM      4  C   UNL     1       3.853   4.695  19.410  0.00  0.00    +0.000 C 
ATOM      5  C   UNL     1       3.217   5.351  18.145  0.00  0.00    +0.000 C 
ENDROOT
BRANCH   4   6
ATOM      6  N   UNL     1       4.160   3.221  19.334  0.00  0.00    +0.000 NA
ATOM      7  H   UNL     1       4.336   2.851  20.271  0.00  0.00    +0.000 HD
BRANCH   6   8
ATOM      8  S   UNL     1       3.165   2.170  18.457  0.00  0.00    +0.000 S 
ATOM      9  C   UNL     1       1.768   1.986  19.554  0.00  0.00    +0.000 C 
ATOM     10  O   UNL     1       2.687   2.879  17.289  0.00  0.00    +0.000 OA
ATOM     11  O   UNL     1       3.830   0.895  18.352  0.00  0.00    +0.000 OA
ENDBRANCH   6   8
ENDBRANCH   4   6
BRANCH   1  12
ATOM     12  C   UNL     1       2.493   7.585  19.000  0.00  0.00    +0.000 C 
BRANCH  12  18
ATOM     13  C   UNL     1       1.017   8.840  21.649  0.00  0.00    +0.000 C 
ATOM     14  N   UNL     1       0.847   9.187  20.260  0.00  0.00    +0.000 N 
ATOM     15  C   UNL     1      -0.122  10.058  19.821  0.00  0.00    +0.000 A 
ATOM     16  C   UNL     1       0.083  10.187  18.473  0.00  0.00    +0.000 A 
ATOM     17  N   UNL     1       1.139   9.419  18.083  0.00  0.00    +0.000 NA
ATOM     18  C   UNL     1       1.566   8.766  19.160  0.00  0.00    +0.000 A 
ENDBRANCH  12  18
ENDBRANCH   1  12
BRANCH   5  19
ATOM     19  C   UNL     1       4.220   6.173  17.272  0.00  0.00    +0.000 C 
BRANCH  19  20
ATOM     20  C   UNL     1       5.185   5.599  16.275  0.00  0.00    +0.000 A 
ATOM     21  C   UNL     1       4.929   4.612  15.333  0.00  0.00    +0.000 A 
ATOM     22  C   UNL     1       5.967   4.122  14.533  0.00  0.00    +0.000 A 
ATOM     23  C   UNL     1       7.238   4.653  14.687  0.00  0.00    +0.000 A 
ATOM     24  N   UNL     1       7.533   5.627  15.564  0.00  0.00    +0.000 NA
ATOM     25  C   UNL     1       6.512   6.072  16.329  0.00  0.00    +0.000 A 
ENDBRANCH  19  20
ENDBRANCH   5  19
TORSDOF 6
ENDMDL
MODEL 3
REMARK VINA RESULT:      -7.1      3.856      7.178
REMARK  Name = 
REMARK  8 active torsions:
REMARK  status: ('A' for Active; 'I' for Inactive)
REMARK    1  A    between atoms: C_1  and  N_2
REMARK    2  A    between atoms: C_6  and  C_7
REMARK    3  A    between atoms: C_7  and  N_8
REMARK    4  A    between atoms: C_11  and  N_12
REMARK    5  A    between atoms: N_12  and  S_13
REMARK    6  A    between atoms: S_13  and  C_14
REMARK    7  A    between atoms: C_17  and  C_18
REMARK    8  A    between atoms: C_18  and  C_19
REMARK                            x       y       z     vdW  Elec       q    Type
REMARK                         _______ _______ _______ _____ _____    ______ ____
ROOT
ATOM      1  N   UNL     1       4.785   5.218  18.360  0.00  0.00    +0.000 NA
ATOM      2  C   UNL     1       4.792   3.761  18.146  0.00  0.00    +0.000 C 
ATOM      3  C   UNL     1       3.785   3.504  17.041  0.00  0.00    +0.000 C 
ATOM      4  C   UNL     1       2.667   4.507  17.315  0.00  0.00    +0.000 C 
ATOM      5  C   UNL     1       3.278   5.560  18.292  0.00  0.00    +0.000 C 
ENDROOT
BRANCH   4   6
ATOM      6  N   UNL     1       1.393   3.831  17.749  0.00  0.00    +0.000 NA
ATOM      7  H   UNL     1       1.005   3.284  16.976  0.00  0.00    +0.000 HD
BRANCH   6   8
ATOM      8  S   UNL     1       1.325   2.948  19.192  0.00  0.00    +0.000 S 
ATOM      9  C   UNL     1       1.048   4.235  20.397  0.00  0.00    +0.000 C 
ATOM     10  O   UNL     1       0.124   2.139  19.162  0.00  0.00    +0.000 OA
ATOM     11  O   UNL     1       2.624   2.371  19.433  0.00  0.00    +0.000 OA
ENDBRANCH   6   8
ENDBRANCH   4   6
BRANCH   1  12
ATOM     12  C   UNL     1       5.545   5.954  17.317  0.00  0.00    +0.000 C 
BRANCH  12  18
ATOM     13  C   UNL     1       8.028   5.501  19.414  0.00  0.00    +0.000 C 
ATOM     14  N   UNL     1       7.742   6.633  18.570  0.00  0.00    +0.000 N 
ATOM     15  C   UNL     1       8.449   7.812  18.636  0.00  0.00    +0.000 A 
ATOM     16  C   UNL     1       7.939   8.603  17.642  0.00  0.00    +0.000 A 
ATOM     17  N   UNL     1       6.945   7.944  16.982  0.00  0.00    +0.000 NA
ATOM     18  C   UNL     1       6.787   6.770  17.585  0.00  0.00    +0.000 A 
ENDBRANCH  12  18
ENDBRANCH   1  12
BRANCH   5  19
ATOM     19  C   UNL     1       3.007   7.047  17.889  0.00  0.00    +0.000 C 
BRANCH  19  20
ATOM     20  C   UNL     1       2.195   8.032  18.680  0.00  0.00    +0.000 A 
ATOM     21  C   UNL     1       1.840   7.943  20.019  0.00  0.00    +0.000 A 
ATOM     22  C   UNL     1       1.000   8.907  20.585  0.00  0.00    +0.000 A 
ATOM     23  C   UNL     1       0.552   9.953  19.794  0.00  0.00    +0.000 A 
ATOM     24  N   UNL     1       0.888  10.100  18.501  0.00  0.00    +0.000 NA
ATOM     25  C   UNL     1       1.692   9.147  17.980  0.00  0.00    +0.000 A 
ENDBRANCH  19  20
ENDBRANCH   5  19
TORSDOF 6
ENDMDL
MODEL 4
REMARK VINA RESULT:      -7.0      3.918      5.127
REMARK  Name = 
REMARK  8 active torsions:
REMARK  status: ('A' for Active; 'I' for Inactive)
REMARK    1  A    between atoms: C_1  and  N_2
REMARK    2  A    between atoms: C_6  and  C_7
REMARK    3  A    between atoms: C_7  and  N_8
REMARK    4  A    between atoms: C_11  and  N_12
REMARK    5  A    between atoms: N_12  and  S_13
REMARK    6  A    between atoms: S_13  and  C_14
REMARK    7  A    between atoms: C_17  and  C_18
REMARK    8  A    between atoms: C_18  and  C_19
REMARK                            x       y       z     vdW  Elec       q    Type
REMARK                         _______ _______ _______ _____ _____    ______ ____
ROOT
ATOM      1  N   UNL     1       1.891   6.115  19.007  0.00  0.00    +0.000 NA
ATOM      2  C   UNL     1       1.441   5.277  20.132  0.00  0.00    +0.000 C 
ATOM      3  C   UNL     1       2.708   4.806  20.823  0.00  0.00    +0.000 C 
ATOM      4  C   UNL     1       3.690   4.568  19.680  0.00  0.00    +0.000 C 
ATOM      5  C   UNL     1       3.087   5.311  18.447  0.00  0.00    +0.000 C 
ENDROOT
BRANCH   4   6
ATOM      6  N   UNL     1       4.014   3.107  19.506  0.00  0.00    +0.000 NA
ATOM      7  H   UNL     1       4.131   2.663  20.421  0.00  0.00    +0.000 HD
BRANCH   6   8
ATOM      8  S   UNL     1       3.087   2.126  18.485  0.00  0.00    +0.000 S 
ATOM      9  C   UNL     1       1.616   1.865  19.462  0.00  0.00    +0.000 C 
ATOM     10  O   UNL     1       2.692   2.923  17.341  0.00  0.00    +0.000 OA
ATOM     11  O   UNL     1       3.762   0.862  18.332  0.00  0.00    +0.000 OA
ENDBRANCH   6   8
ENDBRANCH   4   6
BRANCH   1  12
ATOM     12  C   UNL     1       2.316   7.471  19.438  0.00  0.00    +0.000 C 
BRANCH  12  18
ATOM     13  C   UNL     1       0.476   9.968  18.367  0.00  0.00    +0.000 C 
ATOM     14  N   UNL     1       0.781   9.575  19.719  0.00  0.00    +0.000 N 
ATOM     15  C   UNL     1       0.424  10.327  20.815  0.00  0.00    +0.000 A 
ATOM     16  C   UNL     1       0.815   9.596  21.905  0.00  0.00    +0.000 A 
ATOM     17  N   UNL     1       1.399   8.432  21.505  0.00  0.00    +0.000 NA
ATOM     18  C   UNL     1       1.431   8.447  20.176  0.00  0.00    +0.000 A 
ENDBRANCH  12  18
ENDBRANCH   1  12
BRANCH   5  19
ATOM     19  C   UNL     1       4.109   6.202  17.667  0.00  0.00    +0.000 C 
BRANCH  19  20
ATOM     20  C   UNL     1       5.115   5.707  16.668  0.00  0.00    +0.000 A 
ATOM     21  C   UNL     1       4.945   4.689  15.741  0.00  0.00    +0.000 A 
ATOM     22  C   UNL     1       6.018   4.288  14.937  0.00  0.00    +0.000 A 
ATOM     23  C   UNL     1       7.235   4.938  15.071  0.00  0.00    +0.000 A 
ATOM     24  N   UNL     1       7.443   5.947  15.933  0.00  0.00    +0.000 NA
ATOM     25  C   UNL     1       6.392   6.304  16.703  0.00  0.00    +0.000 A 
ENDBRANCH  19  20
ENDBRANCH   5  19
TORSDOF 6
ENDMDL
MODEL 5
REMARK VINA RESULT:      -7.0      0.661      1.299
REMARK  Name = 
REMARK  8 active torsions:
REMARK  status: ('A' for Active; 'I' for Inactive)
REMARK    1  A    between atoms: C_1  and  N_2
REMARK    2  A    between atoms: C_6  and  C_7
REMARK    3  A    between atoms: C_7  and  N_8
REMARK    4  A    between atoms: C_11  and  N_12
REMARK    5  A    between atoms: N_12  and  S_13
REMARK    6  A    between atoms: S_13  and  C_14
REMARK    7  A    between atoms: C_17  and  C_18
REMARK    8  A    between atoms: C_18  and  C_19
REMARK                            x       y       z     vdW  Elec       q    Type
REMARK                         _______ _______ _______ _____ _____    ______ ____
ROOT
ATOM      1  N   UNL     1       5.098   3.844  18.314  0.00  0.00    +0.000 NA
ATOM      2  C   UNL     1       4.983   4.850  19.384  0.00  0.00    +0.000 C 
ATOM      3  C   UNL     1       4.294   6.044  18.750  0.00  0.00    +0.000 C 
ATOM      4  C   UNL     1       4.863   6.096  17.335  0.00  0.00    +0.000 C 
ATOM      5  C   UNL     1       5.516   4.699  17.094  0.00  0.00    +0.000 C 
ENDROOT
BRANCH   4   6
ATOM      6  N   UNL     1       5.737   7.305  17.120  0.00  0.00    +0.000 NA
ATOM      7  H   UNL     1       5.304   8.130  17.542  0.00  0.00    +0.000 HD
BRANCH   6   8
ATOM      8  S   UNL     1       7.392   7.256  17.476  0.00  0.00    +0.000 S 
ATOM      9  C   UNL     1       7.742   8.970  17.826  0.00  0.00    +0.000 C 
ATOM     10  O   UNL     1       7.558   6.533  18.719  0.00  0.00    +0.000 OA
ATOM     11  O   UNL     1       8.103   6.882  16.279  0.00  0.00    +0.000 OA
ENDBRANCH   6   8
ENDBRANCH   4   6
BRANCH   1  12
ATOM     12  C   UNL     1       3.819   3.135  18.054  0.00  0.00    +0.000 C 
BRANCH  12  18
ATOM     13  C   UNL     1       3.503   2.241  21.196  0.00  0.00    +0.000 C 
ATOM     14  N   UNL     1       2.488   2.644  20.256  0.00  0.00    +0.000 N 
ATOM     15  C   UNL     1       1.142   2.574  20.533  0.00  0.00    +0.000 A 
ATOM     16  C   UNL     1       0.513   3.109  19.441  0.00  0.00    +0.000 A 
ATOM     17  N   UNL     1       1.433   3.495  18.512  0.00  0.00    +0.000 NA
ATOM     18  C   UNL     1       2.629   3.158  18.983  0.00  0.00    +0.000 A 
ENDBRANCH  12  18
ENDBRANCH   1  12
BRANCH   5  19
ATOM     19  C   UNL     1       5.137   4.038  15.728  0.00  0.00    +0.000 C 
BRANCH  19  20
ATOM     20  C   UNL     1       5.885   4.211  14.437  0.00  0.00    +0.000 A 
ATOM     21  C   UNL     1       5.623   3.583  13.227  0.00  0.00    +0.000 A 
ATOM     22  C   UNL     1       6.474   3.787  12.135  0.00  0.00    +0.000 A 
ATOM     23  C   UNL     1       7.559   4.637  12.281  0.00  0.00    +0.000 A 
ATOM     24  N   UNL     1       7.840   5.289  13.422  0.00  0.00    +0.000 NA
ATOM     25  C   UNL     1       7.007   5.063  14.461  0.00  0.00    +0.000 A 
ENDBRANCH  19  20
ENDBRANCH   5  19
TORSDOF 6
ENDMDL
MODEL 6
REMARK VINA RESULT:      -6.9      0.841      1.584
REMARK  Name = 
REMARK  8 active torsions:
REMARK  status: ('A' for Active; 'I' for Inactive)
REMARK    1  A    between atoms: C_1  and  N_2
REMARK    2  A    between atoms: C_6  and  C_7
REMARK    3  A    between atoms: C_7  and  N_8
REMARK    4  A    between atoms: C_11  and  N_12
REMARK    5  A    between atoms: N_12  and  S_13
REMARK    6  A    between atoms: S_13  and  C_14
REMARK    7  A    between atoms: C_17  and  C_18
REMARK    8  A    between atoms: C_18  and  C_19
REMARK                            x       y       z     vdW  Elec       q    Type
REMARK                         _______ _______ _______ _____ _____    ______ ____
ROOT
ATOM      1  N   UNL     1       5.173   3.667  18.039  0.00  0.00    +0.000 NA
ATOM      2  C   UNL     1       5.093   4.496  19.253  0.00  0.00    +0.000 C 
ATOM      3  C   UNL     1       4.372   5.765  18.836  0.00  0.00    +0.000 C 
ATOM      4  C   UNL     1       4.885   6.038  17.425  0.00  0.00    +0.000 C 
ATOM      5  C   UNL     1       5.536   4.703  16.949  0.00  0.00    +0.000 C 
ENDROOT
BRANCH   4   6
ATOM      6  N   UNL     1       5.742   7.276  17.363  0.00  0.00    +0.000 NA
ATOM      7  H   UNL     1       5.355   8.001  17.972  0.00  0.00    +0.000 HD
BRANCH   6   8
ATOM      8  S   UNL     1       7.422   7.180  17.550  0.00  0.00    +0.000 S 
ATOM      9  C   UNL     1       7.859   8.890  17.820  0.00  0.00    +0.000 C 
ATOM     10  O   UNL     1       7.693   6.480  18.789  0.00  0.00    +0.000 OA
ATOM     11  O   UNL     1       7.995   6.756  16.298  0.00  0.00    +0.000 OA
ENDBRANCH   6   8
ENDBRANCH   4   6
BRANCH   1  12
ATOM     12  C   UNL     1       3.889   2.990  17.723  0.00  0.00    +0.000 C 
BRANCH  12  18
ATOM     13  C   UNL     1       3.351   2.339  20.894  0.00  0.00    +0.000 C 
ATOM     14  N   UNL     1       2.407   2.682  19.861  0.00  0.00    +0.000 N 
ATOM     15  C   UNL     1       1.045   2.648  20.051  0.00  0.00    +0.000 A 
ATOM     16  C   UNL     1       0.498   3.105  18.882  0.00  0.00    +0.000 A 
ATOM     17  N   UNL     1       1.483   3.410  17.991  0.00  0.00    +0.000 NA
ATOM     18  C   UNL     1       2.640   3.096  18.566  0.00  0.00    +0.000 A 
ENDBRANCH  12  18
ENDBRANCH   1  12
BRANCH   5  19
ATOM     19  C   UNL     1       5.109   4.252  15.514  0.00  0.00    +0.000 C 
BRANCH  19  20
ATOM     20  C   UNL     1       5.981   4.282  14.291  0.00  0.00    +0.000 A 
ATOM     21  C   UNL     1       7.121   5.050  14.094  0.00  0.00    +0.000 A 
ATOM     22  C   UNL     1       7.773   5.028  12.857  0.00  0.00    +0.000 A 
ATOM     23  C   UNL     1       7.274   4.216  11.851  0.00  0.00    +0.000 A 
ATOM     24  N   UNL     1       6.192   3.434  12.000  0.00  0.00    +0.000 NA
ATOM     25  C   UNL     1       5.577   3.485  13.202  0.00  0.00    +0.000 A 
ENDBRANCH  19  20
ENDBRANCH   5  19
TORSDOF 6
ENDMDL
MODEL 7
REMARK VINA RESULT:      -6.9      3.812      7.167
REMARK  Name = 
REMARK  8 active torsions:
REMARK  status: ('A' for Active; 'I' for Inactive)
REMARK    1  A    between atoms: C_1  and  N_2
REMARK    2  A    between atoms: C_6  and  C_7
REMARK    3  A    between atoms: C_7  and  N_8
REMARK    4  A    between atoms: C_11  and  N_12
REMARK    5  A    between atoms: N_12  and  S_13
REMARK    6  A    between atoms: S_13  and  C_14
REMARK    7  A    between atoms: C_17  and  C_18
REMARK    8  A    between atoms: C_18  and  C_19
REMARK                            x       y       z     vdW  Elec       q    Type
REMARK                         _______ _______ _______ _____ _____    ______ ____
ROOT
ATOM      1  N   UNL     1       4.888   5.389  18.323  0.00  0.00    +0.000 NA
ATOM      2  C   UNL     1       5.042   3.932  18.173  0.00  0.00    +0.000 C 
ATOM      3  C   UNL     1       4.149   3.544  17.008  0.00  0.00    +0.000 C 
ATOM      4  C   UNL     1       2.929   4.449  17.156  0.00  0.00    +0.000 C 
ATOM      5  C   UNL     1       3.366   5.588  18.130  0.00  0.00    +0.000 C 
ENDROOT
BRANCH   4   6
ATOM      6  N   UNL     1       1.690   3.674  17.523  0.00  0.00    +0.000 NA
ATOM      7  H   UNL     1       1.516   2.943  16.830  0.00  0.00    +0.000 HD
BRANCH   6   8
ATOM      8  S   UNL     1       1.477   3.068  19.090  0.00  0.00    +0.000 S 
ATOM      9  C   UNL     1       2.606   1.686  19.106  0.00  0.00    +0.000 C 
ATOM     10  O   UNL     1       2.000   4.047  20.020  0.00  0.00    +0.000 OA
ATOM     11  O   UNL     1       0.133   2.559  19.201  0.00  0.00    +0.000 OA
ENDBRANCH   6   8
ENDBRANCH   4   6
BRANCH   1  12
ATOM     12  C   UNL     1       5.658   6.154  17.308  0.00  0.00    +0.000 C 
BRANCH  12  18
ATOM     13  C   UNL     1       8.136   5.628  19.394  0.00  0.00    +0.000 C 
ATOM     14  N   UNL     1       7.849   6.791  18.594  0.00  0.00    +0.000 N 
ATOM     15  C   UNL     1       8.552   7.968  18.707  0.00  0.00    +0.000 A 
ATOM     16  C   UNL     1       8.042   8.795  17.742  0.00  0.00    +0.000 A 
ATOM     17  N   UNL     1       7.053   8.160  17.054  0.00  0.00    +0.000 NA
ATOM     18  C   UNL     1       6.896   6.963  17.611  0.00  0.00    +0.000 A 
ENDBRANCH  12  18
ENDBRANCH   1  12
BRANCH   5  19
ATOM     19  C   UNL     1       2.996   7.028  17.645  0.00  0.00    +0.000 C 
BRANCH  19  20
ATOM     20  C   UNL     1       2.178   8.025  18.415  0.00  0.00    +0.000 A 
ATOM     21  C   UNL     1       1.661   9.225  17.945  0.00  0.00    +0.000 A 
ATOM     22  C   UNL     1       0.992  10.087  18.820  0.00  0.00    +0.000 A 
ATOM     23  C   UNL     1       0.840   9.712  20.146  0.00  0.00    +0.000 A 
ATOM     24  N   UNL     1       1.298   8.551  20.643  0.00  0.00    +0.000 NA
ATOM     25  C   UNL     1       1.949   7.744  19.776  0.00  0.00    +0.000 A 
ENDBRANCH  19  20
ENDBRANCH   5  19
TORSDOF 6
ENDMDL
MODEL 8
REMARK VINA RESULT:      -6.9      4.292      7.175
REMARK  Name = 
REMARK  8 active torsions:
REMARK  status: ('A' for Active; 'I' for Inactive)
REMARK    1  A    between atoms: C_1  and  N_2
REMARK    2  A    between atoms: C_6  and  C_7
REMARK    3  A    between atoms: C_7  and  N_8
REMARK    4  A    between atoms: C_11  and  N_12
REMARK    5  A    between atoms: N_12  and  S_13
REMARK    6  A    between atoms: S_13  and  C_14
REMARK    7  A    between atoms: C_17  and  C_18
REMARK    8  A    between atoms: C_18  and  C_19
REMARK                            x       y       z     vdW  Elec       q    Type
REMARK                         _______ _______ _______ _____ _____    ______ ____
ROOT
ATOM      1  N   UNL     1       2.339   7.462  17.920  0.00  0.00    +0.000 NA
ATOM      2  C   UNL     1       1.980   8.813  17.458  0.00  0.00    +0.000 C 
ATOM      3  C   UNL     1       2.132   9.714  18.670  0.00  0.00    +0.000 C 
ATOM      4  C   UNL     1       1.650   8.855  19.835  0.00  0.00    +0.000 C 
ATOM      5  C   UNL     1       1.651   7.388  19.304  0.00  0.00    +0.000 C 
ENDROOT
BRANCH   4   6
ATOM      6  N   UNL     1       0.361   9.368  20.422  0.00  0.00    +0.000 NA
ATOM      7  H   UNL     1      -0.436   8.928  19.956  0.00  0.00    +0.000 HD
BRANCH   6   8
ATOM      8  S   UNL     1       0.122   9.404  22.098  0.00  0.00    +0.000 S 
ATOM      9  C   UNL     1      -0.705  10.970  22.317  0.00  0.00    +0.000 C 
ATOM     10  O   UNL     1      -0.839   8.374  22.433  0.00  0.00    +0.000 OA
ATOM     11  O   UNL     1       1.411   9.476  22.740  0.00  0.00    +0.000 OA
ENDBRANCH   6   8
ENDBRANCH   4   6
BRANCH   1  12
ATOM     12  C   UNL     1       3.806   7.269  18.043  0.00  0.00    +0.000 C 
BRANCH  12  18
ATOM     13  C   UNL     1       5.301   4.499  18.972  0.00  0.00    +0.000 C 
ATOM     14  N   UNL     1       5.338   5.172  17.698  0.00  0.00    +0.000 N 
ATOM     15  C   UNL     1       6.169   4.786  16.672  0.00  0.00    +0.000 A 
ATOM     16  C   UNL     1       5.862   5.607  15.621  0.00  0.00    +0.000 A 
ATOM     17  N   UNL     1       4.877   6.479  15.978  0.00  0.00    +0.000 NA
ATOM     18  C   UNL     1       4.600   6.252  17.258  0.00  0.00    +0.000 A 
ENDBRANCH  12  18
ENDBRANCH   1  12
BRANCH   5  19
ATOM     19  C   UNL     1       2.326   6.354  20.264  0.00  0.00    +0.000 C 
BRANCH  19  20
ATOM     20  C   UNL     1       2.009   4.887  20.331  0.00  0.00    +0.000 A 
ATOM     21  C   UNL     1       2.132   4.053  21.433  0.00  0.00    +0.000 A 
ATOM     22  C   UNL     1       1.879   2.683  21.305  0.00  0.00    +0.000 A 
ATOM     23  C   UNL     1       1.486   2.187  20.071  0.00  0.00    +0.000 A 
ATOM     24  N   UNL     1       1.325   2.956  18.982  0.00  0.00    +0.000 NA
ATOM     25  C   UNL     1       1.588   4.273  19.134  0.00  0.00    +0.000 A 
ENDBRANCH  19  20
ENDBRANCH   5  19
TORSDOF 6
ENDMDL
MODEL 9
REMARK VINA RESULT:      -6.9      2.871      5.432
REMARK  Name = 
REMARK  8 active torsions:
REMARK  status: ('A' for Active; 'I' for Inactive)
REMARK    1  A    between atoms: C_1  and  N_2
REMARK    2  A    between atoms: C_6  and  C_7
REMARK    3  A    between atoms: C_7  and  N_8
REMARK    4  A    between atoms: C_11  and  N_12
REMARK    5  A    between atoms: N_12  and  S_13
REMARK    6  A    between atoms: S_13  and  C_14
REMARK    7  A    between atoms: C_17  and  C_18
REMARK    8  A    between atoms: C_18  and  C_19
REMARK                            x       y       z     vdW  Elec       q    Type
REMARK                         _______ _______ _______ _____ _____    ______ ____
ROOT
ATOM      1  N   UNL     1       5.907   4.594  17.406  0.00  0.00    +0.000 NA
ATOM      2  C   UNL     1       7.254   4.796  16.847  0.00  0.00    +0.000 C 
ATOM      3  C   UNL     1       7.042   5.147  15.385  0.00  0.00    +0.000 C 
ATOM      4  C   UNL     1       5.862   4.277  14.961  0.00  0.00    +0.000 C 
ATOM      5  C   UNL     1       5.195   3.797  16.288  0.00  0.00    +0.000 C 
ENDROOT
BRANCH   4   6
ATOM      6  N   UNL     1       6.269   3.210  13.977  0.00  0.00    +0.000 NA
ATOM      7  H   UNL     1       5.905   2.302  14.274  0.00  0.00    +0.000 HD
BRANCH   6   8
ATOM      8  S   UNL     1       6.037   3.427  12.314  0.00  0.00    +0.000 S 
ATOM      9  C   UNL     1       6.228   1.764  11.697  0.00  0.00    +0.000 C 
ATOM     10  O   UNL     1       4.652   3.795  12.102  0.00  0.00    +0.000 OA
ATOM     11  O   UNL     1       7.121   4.229  11.804  0.00  0.00    +0.000 OA
ENDBRANCH   6   8
ENDBRANCH   4   6
BRANCH   1  12
ATOM     12  C   UNL     1       5.203   5.873  17.679  0.00  0.00    +0.000 C 
BRANCH  12  18
ATOM     13  C   UNL     1       2.658   7.942  17.574  0.00  0.00    +0.000 C 
ATOM     14  N   UNL     1       3.002   6.971  18.582  0.00  0.00    +0.000 N 
ATOM     15  C   UNL     1       2.336   6.870  19.781  0.00  0.00    +0.000 A 
ATOM     16  C   UNL     1       2.898   5.800  20.424  0.00  0.00    +0.000 A 
ATOM     17  N   UNL     1       3.882   5.254  19.656  0.00  0.00    +0.000 NA
ATOM     18  C   UNL     1       3.985   6.003  18.563  0.00  0.00    +0.000 A 
ENDBRANCH  12  18
ENDBRANCH   1  12
BRANCH   5  19
ATOM     19  C   UNL     1       3.640   3.955  16.322  0.00  0.00    +0.000 C 
BRANCH  19  20
ATOM     20  C   UNL     1       2.718   3.317  17.321  0.00  0.00    +0.000 A 
ATOM     21  C   UNL     1       1.444   3.738  17.675  0.00  0.00    +0.000 A 
ATOM     22  C   UNL     1       0.748   3.080  18.695  0.00  0.00    +0.000 A 
ATOM     23  C   UNL     1       1.343   1.996  19.321  0.00  0.00    +0.000 A 
ATOM     24  N   UNL     1       2.562   1.533  18.997  0.00  0.00    +0.000 NA
ATOM     25  C   UNL     1       3.214   2.196  18.017  0.00  0.00    +0.000 A 
ENDBRANCH  19  20
ENDBRANCH   5  19
TORSDOF 6
ENDMDL
