MODEL 1
REMARK VINA RESULT:      -6.2      0.000      0.000
REMARK  Name = 
REMARK  2 active torsions:
REMARK  status: ('A' for Active; 'I' for Inactive)
REMARK    1  A    between atoms: C_1  and  C_2
REMARK    2  A    between atoms: C_5  and  C_6
REMARK                            x       y       z     vdW  Elec       q    Type
REMARK                         _______ _______ _______ _____ _____    ______ ____
ROOT
ATOM      1  C   UNL     1       2.647   7.382  18.520  0.00  0.00    +0.000 A 
ATOM      2  C   UNL     1       2.091   8.555  18.026  0.00  0.00    +0.000 A 
ATOM      3  N   UNL     1       1.408   9.052  19.080  0.00  0.00    +0.000 N 
ATOM      4  C   UNL     1       1.562   8.216  20.133  0.00  0.00    +0.000 A 
ATOM      5  N   UNL     1       2.312   7.189  19.853  0.00  0.00    +0.000 NA
ATOM      6  S   UNL     1       0.712   8.735  21.531  0.00  0.00    +0.000 S 
ATOM      7  C   UNL     1      -0.166  10.038  20.570  0.00  0.00    +0.000 C 
ATOM      8  C   UNL     1       0.642  10.257  19.288  0.00  0.00    +0.000 C 
ENDROOT
BRANCH   1  13
ATOM      9  C   UNL     1       5.932   3.744  15.477  0.00  0.00    +0.000 C 
ATOM     10  C   UNL     1       5.083   4.681  16.284  0.00  0.00    +0.000 A 
ATOM     11  C   UNL     1       4.039   4.204  17.084  0.00  0.00    +0.000 A 
ATOM     12  C   UNL     1       3.245   5.093  17.816  0.00  0.00    +0.000 A 
ATOM     13  C   UNL     1       3.487   6.469  17.766  0.00  0.00    +0.000 A 
ATOM     14  C   UNL     1       4.540   6.944  16.971  0.00  0.00    +0.000 A 
ATOM     15  C   UNL     1       5.330   6.057  16.236  0.00  0.00    +0.000 A 
ENDBRANCH   1  13
TORSDOF 1
ENDMDL
MODEL 2
REMARK VINA RESULT:      -6.2      0.053      1.247
REMARK  Name = 
REMARK  2 active torsions:
REMARK  status: ('A' for Active; 'I' for Inactive)
REMARK    1  A    between atoms: C_1  and  C_2
REMARK    2  A    between atoms: C_5  and  C_6
REMARK                            x       y       z     vdW  Elec       q    Type
REMARK                         _______ _______ _______ _____ _____    ______ ____
ROOT
ATOM      1  C   UNL     1       2.649   7.388  18.476  0.00  0.00    +0.000 A 
ATOM      2  C   UNL     1       2.119   8.579  17.996  0.00  0.00    +0.000 A 
ATOM      3  N   UNL     1       1.446   9.077  19.056  0.00  0.00    +0.000 N 
ATOM      4  C   UNL     1       1.583   8.226  20.099  0.00  0.00    +0.000 A 
ATOM      5  N   UNL     1       2.310   7.187  19.807  0.00  0.00    +0.000 NA
ATOM      6  S   UNL     1       0.743   8.747  21.503  0.00  0.00    +0.000 S 
ATOM      7  C   UNL     1      -0.106  10.079  20.557  0.00  0.00    +0.000 C 
ATOM      8  C   UNL     1       0.707  10.296  19.278  0.00  0.00    +0.000 C 
ENDROOT
BRANCH   1  13
ATOM      9  C   UNL     1       5.966   3.736  15.485  0.00  0.00    +0.000 C 
ATOM     10  C   UNL     1       5.099   4.694  16.246  0.00  0.00    +0.000 A 
ATOM     11  C   UNL     1       5.334   6.072  16.205  0.00  0.00    +0.000 A 
ATOM     12  C   UNL     1       4.528   6.951  16.936  0.00  0.00    +0.000 A 
ATOM     13  C   UNL     1       3.470   6.466  17.711  0.00  0.00    +0.000 A 
ATOM     14  C   UNL     1       3.231   5.086  17.744  0.00  0.00    +0.000 A 
ATOM     15  C   UNL     1       4.039   4.207  17.018  0.00  0.00    +0.000 A 
ENDBRANCH   1  13
TORSDOF 1
ENDMDL
MODEL 3
REMARK VINA RESULT:      -6.1      1.132      1.486
REMARK  Name = 
REMARK  2 active torsions:
REMARK  status: ('A' for Active; 'I' for Inactive)
REMARK    1  A    between atoms: C_1  and  C_2
REMARK    2  A    between atoms: C_5  and  C_6
REMARK                            x       y       z     vdW  Elec       q    Type
REMARK                         _______ _______ _______ _____ _____    ______ ____
ROOT
ATOM      1  C   UNL     1       2.924   7.102  18.325  0.00  0.00    +0.000 A 
ATOM      2  C   UNL     1       2.580   6.823  19.642  0.00  0.00    +0.000 A 
ATOM      3  N   UNL     1       1.816   7.877  20.001  0.00  0.00    +0.000 N 
ATOM      4  C   UNL     1       1.714   8.721  18.948  0.00  0.00    +0.000 A 
ATOM      5  N   UNL     1       2.360   8.296  17.901  0.00  0.00    +0.000 NA
ATOM      6  S   UNL     1       0.780  10.119  19.297  0.00  0.00    +0.000 S 
ATOM      7  C   UNL     1       0.741   9.701  21.090  0.00  0.00    +0.000 C 
ATOM      8  C   UNL     1       1.092   8.214  21.202  0.00  0.00    +0.000 C 
ENDROOT
BRANCH   1  13
ATOM      9  C   UNL     1       6.139   3.741  14.912  0.00  0.00    +0.000 C 
ATOM     10  C   UNL     1       5.311   4.605  15.815  0.00  0.00    +0.000 A 
ATOM     11  C   UNL     1       4.387   4.047  16.705  0.00  0.00    +0.000 A 
ATOM     12  C   UNL     1       3.609   4.869  17.527  0.00  0.00    +0.000 A 
ATOM     13  C   UNL     1       3.748   6.259  17.477  0.00  0.00    +0.000 A 
ATOM     14  C   UNL     1       4.680   6.816  16.591  0.00  0.00    +0.000 A 
ATOM     15  C   UNL     1       5.454   5.996  15.766  0.00  0.00    +0.000 A 
ENDBRANCH   1  13
TORSDOF 1
ENDMDL
MODEL 4
REMARK VINA RESULT:      -6.1      1.091      1.880
REMARK  Name = 
REMARK  2 active torsions:
REMARK  status: ('A' for Active; 'I' for Inactive)
REMARK    1  A    between atoms: C_1  and  C_2
REMARK    2  A    between atoms: C_5  and  C_6
REMARK                            x       y       z     vdW  Elec       q    Type
REMARK                         _______ _______ _______ _____ _____    ______ ____
ROOT
ATOM      1  C   UNL     1       2.714   7.306  18.518  0.00  0.00    +0.000 A 
ATOM      2  C   UNL     1       2.324   7.075  19.830  0.00  0.00    +0.000 A 
ATOM      3  N   UNL     1       1.591   8.166  20.141  0.00  0.00    +0.000 N 
ATOM      4  C   UNL     1       1.551   8.986  19.065  0.00  0.00    +0.000 A 
ATOM      5  N   UNL     1       2.209   8.510  18.047  0.00  0.00    +0.000 NA
ATOM      6  S   UNL     1       0.662  10.426  19.353  0.00  0.00    +0.000 S 
ATOM      7  C   UNL     1       0.557  10.057  21.154  0.00  0.00    +0.000 C 
ATOM      8  C   UNL     1       0.848   8.562  21.313  0.00  0.00    +0.000 C 
ENDROOT
BRANCH   1  13
ATOM      9  C   UNL     1       6.003   3.762  15.371  0.00  0.00    +0.000 C 
ATOM     10  C   UNL     1       5.143   4.692  16.172  0.00  0.00    +0.000 A 
ATOM     11  C   UNL     1       5.361   6.074  16.157  0.00  0.00    +0.000 A 
ATOM     12  C   UNL     1       4.561   6.927  16.926  0.00  0.00    +0.000 A 
ATOM     13  C   UNL     1       3.528   6.412  17.714  0.00  0.00    +0.000 A 
ATOM     14  C   UNL     1       3.306   5.028  17.721  0.00  0.00    +0.000 A 
ATOM     15  C   UNL     1       4.107   4.175  16.957  0.00  0.00    +0.000 A 
ENDBRANCH   1  13
TORSDOF 1
ENDMDL
MODEL 5
REMARK VINA RESULT:      -6.1      4.558      4.949
REMARK  Name = 
REMARK  2 active torsions:
REMARK  status: ('A' for Active; 'I' for Inactive)
REMARK    1  A    between atoms: C_1  and  C_2
REMARK    2  A    between atoms: C_5  and  C_6
REMARK                            x       y       z     vdW  Elec       q    Type
REMARK                         _______ _______ _______ _____ _____    ______ ____
ROOT
ATOM      1  C   UNL     1       4.238   3.667  17.460  0.00  0.00    +0.000 A 
ATOM      2  C   UNL     1       4.536   3.568  18.812  0.00  0.00    +0.000 A 
ATOM      3  N   UNL     1       3.369   3.176  19.368  0.00  0.00    +0.000 N 
ATOM      4  C   UNL     1       2.442   3.047  18.390  0.00  0.00    +0.000 A 
ATOM      5  N   UNL     1       2.917   3.324  17.209  0.00  0.00    +0.000 NA
ATOM      6  S   UNL     1       0.902   2.575  18.983  0.00  0.00    +0.000 S 
ATOM      7  C   UNL     1       1.442   2.836  20.724  0.00  0.00    +0.000 C 
ATOM      8  C   UNL     1       2.973   2.839  20.713  0.00  0.00    +0.000 C 
ENDROOT
BRANCH   1  13
ATOM      9  C   UNL     1       7.911   5.268  13.309  0.00  0.00    +0.000 C 
ATOM     10  C   UNL     1       6.959   4.834  14.382  0.00  0.00    +0.000 A 
ATOM     11  C   UNL     1       5.774   4.159  14.069  0.00  0.00    +0.000 A 
ATOM     12  C   UNL     1       4.886   3.777  15.081  0.00  0.00    +0.000 A 
ATOM     13  C   UNL     1       5.174   4.057  16.420  0.00  0.00    +0.000 A 
ATOM     14  C   UNL     1       6.365   4.725  16.733  0.00  0.00    +0.000 A 
ATOM     15  C   UNL     1       7.250   5.111  15.722  0.00  0.00    +0.000 A 
ENDBRANCH   1  13
TORSDOF 1
ENDMDL
MODEL 6
REMARK VINA RESULT:      -6.1      4.430      4.874
REMARK  Name = 
REMARK  2 active torsions:
REMARK  status: ('A' for Active; 'I' for Inactive)
REMARK    1  A    between atoms: C_1  and  C_2
REMARK    2  A    between atoms: C_5  and  C_6
REMARK                            x       y       z     vdW  Elec       q    Type
REMARK                         _______ _______ _______ _____ _____    ______ ____
ROOT
ATOM      1  C   UNL     1       4.193   3.723  17.849  0.00  0.00    +0.000 A 
ATOM      2  C   UNL     1       4.577   3.452  19.155  0.00  0.00    +0.000 A 
ATOM      3  N   UNL     1       3.415   3.149  19.773  0.00  0.00    +0.000 N 
ATOM      4  C   UNL     1       2.408   3.232  18.872  0.00  0.00    +0.000 A 
ATOM      5  N   UNL     1       2.823   3.569  17.685  0.00  0.00    +0.000 NA
ATOM      6  S   UNL     1       0.870   2.890  19.553  0.00  0.00    +0.000 S 
ATOM      7  C   UNL     1       1.568   2.907  21.256  0.00  0.00    +0.000 C 
ATOM      8  C   UNL     1       3.082   2.727  21.112  0.00  0.00    +0.000 C 
ENDROOT
BRANCH   1  13
ATOM      9  C   UNL     1       7.793   5.163  13.577  0.00  0.00    +0.000 C 
ATOM     10  C   UNL     1       6.860   4.807  14.695  0.00  0.00    +0.000 A 
ATOM     11  C   UNL     1       7.275   4.859  16.030  0.00  0.00    +0.000 A 
ATOM     12  C   UNL     1       6.397   4.504  17.060  0.00  0.00    +0.000 A 
ATOM     13  C   UNL     1       5.090   4.101  16.771  0.00  0.00    +0.000 A 
ATOM     14  C   UNL     1       4.673   4.058  15.434  0.00  0.00    +0.000 A 
ATOM     15  C   UNL     1       5.551   4.407  14.404  0.00  0.00    +0.000 A 
ENDBRANCH   1  13
TORSDOF 1
ENDMDL
MODEL 7
REMARK VINA RESULT:      -6.0      3.746      4.570
REMARK  Name = 
REMARK  2 active torsions:
REMARK  status: ('A' for Active; 'I' for Inactive)
REMARK    1  A    between atoms: C_1  and  C_2
REMARK    2  A    between atoms: C_5  and  C_6
REMARK                            x       y       z     vdW  Elec       q    Type
REMARK                         _______ _______ _______ _____ _____    ______ ____
ROOT
ATOM      1  C   UNL     1       4.184   3.979  17.740  0.00  0.00    +0.000 A 
ATOM      2  C   UNL     1       3.492   2.789  17.922  0.00  0.00    +0.000 A 
ATOM      3  N   UNL     1       2.767   3.009  19.040  0.00  0.00    +0.000 N 
ATOM      4  C   UNL     1       3.017   4.264  19.482  0.00  0.00    +0.000 A 
ATOM      5  N   UNL     1       3.864   4.902  18.726  0.00  0.00    +0.000 NA
ATOM      6  S   UNL     1       2.165   4.650  20.921  0.00  0.00    +0.000 S 
ATOM      7  C   UNL     1       1.632   2.900  21.130  0.00  0.00    +0.000 C 
ATOM      8  C   UNL     1       1.798   2.225  19.766  0.00  0.00    +0.000 C 
ENDROOT
BRANCH   1  13
ATOM      9  C   UNL     1       7.831   5.134  13.422  0.00  0.00    +0.000 C 
ATOM     10  C   UNL     1       6.881   4.816  14.537  0.00  0.00    +0.000 A 
ATOM     11  C   UNL     1       5.575   4.386  14.277  0.00  0.00    +0.000 A 
ATOM     12  C   UNL     1       4.696   4.112  15.330  0.00  0.00    +0.000 A 
ATOM     13  C   UNL     1       5.111   4.255  16.657  0.00  0.00    +0.000 A 
ATOM     14  C   UNL     1       6.422   4.676  16.916  0.00  0.00    +0.000 A 
ATOM     15  C   UNL     1       7.299   4.955  15.865  0.00  0.00    +0.000 A 
ENDBRANCH   1  13
TORSDOF 1
ENDMDL
MODEL 8
REMARK VINA RESULT:      -5.9      3.741      4.641
REMARK  Name = 
REMARK  2 active torsions:
REMARK  status: ('A' for Active; 'I' for Inactive)
REMARK    1  A    between atoms: C_1  and  C_2
REMARK    2  A    between atoms: C_5  and  C_6
REMARK                            x       y       z     vdW  Elec       q    Type
REMARK                         _______ _______ _______ _____ _____    ______ ____
ROOT
ATOM      1  C   UNL     1       4.176   4.000  17.672  0.00  0.00    +0.000 A 
ATOM      2  C   UNL     1       3.494   2.804  17.850  0.00  0.00    +0.000 A 
ATOM      3  N   UNL     1       2.778   3.009  18.975  0.00  0.00    +0.000 N 
ATOM      4  C   UNL     1       3.024   4.261  19.427  0.00  0.00    +0.000 A 
ATOM      5  N   UNL     1       3.859   4.912  18.669  0.00  0.00    +0.000 NA
ATOM      6  S   UNL     1       2.181   4.629  20.876  0.00  0.00    +0.000 S 
ATOM      7  C   UNL     1       1.662   2.873  21.075  0.00  0.00    +0.000 C 
ATOM      8  C   UNL     1       1.821   2.211  19.703  0.00  0.00    +0.000 C 
ENDROOT
BRANCH   1  13
ATOM      9  C   UNL     1       7.853   5.100  13.365  0.00  0.00    +0.000 C 
ATOM     10  C   UNL     1       6.899   4.833  14.489  0.00  0.00    +0.000 A 
ATOM     11  C   UNL     1       7.260   5.076  15.819  0.00  0.00    +0.000 A 
ATOM     12  C   UNL     1       6.364   4.803  16.858  0.00  0.00    +0.000 A 
ATOM     13  C   UNL     1       5.092   4.292  16.583  0.00  0.00    +0.000 A 
ATOM     14  C   UNL     1       4.729   4.057  15.250  0.00  0.00    +0.000 A 
ATOM     15  C   UNL     1       5.625   4.325  14.212  0.00  0.00    +0.000 A 
ENDBRANCH   1  13
TORSDOF 1
ENDMDL
MODEL 9
REMARK VINA RESULT:      -5.9      2.805      5.852
REMARK  Name = 
REMARK  2 active torsions:
REMARK  status: ('A' for Active; 'I' for Inactive)
REMARK    1  A    between atoms: C_1  and  C_2
REMARK    2  A    between atoms: C_5  and  C_6
REMARK                            x       y       z     vdW  Elec       q    Type
REMARK                         _______ _______ _______ _____ _____    ______ ____
ROOT
ATOM      1  C   UNL     1       2.535   6.260  19.664  0.00  0.00    +0.000 A 
ATOM      2  C   UNL     1       3.636   5.695  19.034  0.00  0.00    +0.000 A 
ATOM      3  N   UNL     1       3.685   4.444  19.540  0.00  0.00    +0.000 N 
ATOM      4  C   UNL     1       2.663   4.286  20.414  0.00  0.00    +0.000 A 
ATOM      5  N   UNL     1       1.927   5.355  20.522  0.00  0.00    +0.000 NA
ATOM      6  S   UNL     1       2.639   2.733  21.144  0.00  0.00    +0.000 S 
ATOM      7  C   UNL     1       4.295   2.329  20.449  0.00  0.00    +0.000 C 
ATOM      8  C   UNL     1       4.537   3.306  19.294  0.00  0.00    +0.000 C 
ENDROOT
BRANCH   1  13
ATOM      9  C   UNL     1       0.666  11.661  18.873  0.00  0.00    +0.000 C 
ATOM     10  C   UNL     1       1.134  10.252  19.083  0.00  0.00    +0.000 A 
ATOM     11  C   UNL     1       0.950   9.603  20.308  0.00  0.00    +0.000 A 
ATOM     12  C   UNL     1       1.410   8.294  20.493  0.00  0.00    +0.000 A 
ATOM     13  C   UNL     1       2.051   7.613  19.454  0.00  0.00    +0.000 A 
ATOM     14  C   UNL     1       2.226   8.262  18.224  0.00  0.00    +0.000 A 
ATOM     15  C   UNL     1       1.772   9.570  18.041  0.00  0.00    +0.000 A 
ENDBRANCH   1  13
TORSDOF 1
ENDMDL
