MODEL 1
REMARK VINA RESULT:      -7.6      0.000      0.000
REMARK  Name = 
REMARK  9 active torsions:
REMARK  status: ('A' for Active; 'I' for Inactive)
REMARK    1  A    between atoms: C_1  and  O_2
REMARK    2  A    between atoms: O_2  and  N_3
REMARK    3  A    between atoms: N_6  and  C_7
REMARK    4  A    between atoms: C_16  and  C_17
REMARK    5  A    between atoms: C_17  and  O_19
REMARK    6  A    between atoms: N_21  and  C_22
REMARK    7  A    between atoms: C_26  and  C_27
REMARK    8  A    between atoms: N_29  and  O_30
REMARK    9  A    between atoms: O_30  and  C_31
REMARK                            x       y       z     vdW  Elec       q    Type
REMARK                         _______ _______ _______ _____ _____    ______ ____
ROOT
ATOM      1  C   UNL     1       1.405   8.876  19.198  0.00  0.00    +0.000 A 
ATOM      2  N   UNL     1       1.681   7.634  19.673  0.00  0.00    +0.000 NA
ATOM      3  C   UNL     1       2.652   6.871  19.107  0.00  0.00    +0.000 A 
ATOM      4  C   UNL     1       3.378   7.333  18.009  0.00  0.00    +0.000 A 
ATOM      5  C   UNL     1       3.114   8.600  17.499  0.00  0.00    +0.000 A 
ATOM      6  C   UNL     1       2.123   9.370  18.101  0.00  0.00    +0.000 A 
ATOM      7  F   UNL     1       1.860  10.579  17.582  0.00  0.00    +0.000 F 
ATOM      8  C   UNL     1       4.400   6.464  17.387  0.00  0.00    +0.000 A 
ATOM      9  O   UNL     1       5.062   6.844  16.423  0.00  0.00    +0.000 OA
ATOM     10  C   UNL     1       4.603   5.106  17.936  0.00  0.00    +0.000 A 
ATOM     11  C   UNL     1       3.854   4.760  18.991  0.00  0.00    +0.000 A 
ATOM     12  N   UNL     1       2.937   5.573  19.625  0.00  0.00    +0.000 N 
ENDROOT
BRANCH   1  16
ATOM     13  N   UNL     1      -0.055  12.988  20.754  0.00  0.00    +0.000 NA
ATOM     14  C   UNL     1      -0.190  11.742  20.418  0.00  0.00    +0.000 C 
ATOM     15  C   UNL     1       0.731  10.609  20.793  0.00  0.00    +0.000 C 
ATOM     16  N   UNL     1       0.385   9.582  19.812  0.00  0.00    +0.000 N 
ATOM     17  C   UNL     1      -0.891   9.874  19.140  0.00  0.00    +0.000 C 
ATOM     18  C   UNL     1      -1.376  11.243  19.650  0.00  0.00    +0.000 C 
BRANCH  18  19
ATOM     19  C   UNL     1      -1.871  12.142  18.524  0.00  0.00    +0.000 C 
ATOM     20  N   UNL     1      -0.969  12.880  17.794  0.00  0.00    +0.000 N 
ATOM     21  N   UNL     1      -3.128  12.257  18.185  0.00  0.00    +0.000 NA
ATOM     22  H   UNL     1      -0.154  13.225  18.289  0.00  0.00    +0.000 HD
ATOM     23  H   UNL     1      -1.434  13.613  17.261  0.00  0.00    +0.000 HD
BRANCH  21  24
ATOM     24  O   UNL     1      -3.966  11.478  18.990  0.00  0.00    +0.000 OA
ATOM     25  C   UNL     1      -4.869  10.764  18.156  0.00  0.00    +0.000 C 
ENDBRANCH  21  24
ENDBRANCH  18  19
BRANCH  13  27
ATOM     26  C   UNL     1       1.435  14.550  21.529  0.00  0.00    +0.000 C 
ATOM     27  O   UNL     1       1.102  13.167  21.526  0.00  0.00    +0.000 OA
ENDBRANCH  13  27
ENDBRANCH   1  16
BRANCH  12  28
ATOM     28  C   UNL     1       2.120   5.048  20.735  0.00  0.00    +0.000 C 
ATOM     29  C   UNL     1       0.982   4.070  20.573  0.00  0.00    +0.000 C 
ATOM     30  C   UNL     1       2.270   3.614  21.182  0.00  0.00    +0.000 C 
ENDBRANCH  12  28
BRANCH  10  31
ATOM     31  C   UNL     1       5.567   4.126  17.392  0.00  0.00    +0.000 C 
ATOM     32  O   UNL     1       5.404   3.536  16.337  0.00  0.00    +0.000 OA
BRANCH  31  33
ATOM     33  O   UNL     1       6.663   3.935  18.161  0.00  0.00    +0.000 OA
ATOM     34  H   UNL     1       7.469   3.659  17.662  0.00  0.00    +0.000 HD
ENDBRANCH  31  33
ENDBRANCH  10  31
TORSDOF 7
ENDMDL
MODEL 2
REMARK VINA RESULT:      -7.5      2.102      4.200
REMARK  Name = 
REMARK  9 active torsions:
REMARK  status: ('A' for Active; 'I' for Inactive)
REMARK    1  A    between atoms: C_1  and  O_2
REMARK    2  A    between atoms: O_2  and  N_3
REMARK    3  A    between atoms: N_6  and  C_7
REMARK    4  A    between atoms: C_16  and  C_17
REMARK    5  A    between atoms: C_17  and  O_19
REMARK    6  A    between atoms: N_21  and  C_22
REMARK    7  A    between atoms: C_26  and  C_27
REMARK    8  A    between atoms: N_29  and  O_30
REMARK    9  A    between atoms: O_30  and  C_31
REMARK                            x       y       z     vdW  Elec       q    Type
REMARK                         _______ _______ _______ _____ _____    ______ ____
ROOT
ATOM      1  C   UNL     1       1.559   8.370  19.800  0.00  0.00    +0.000 A 
ATOM      2  N   UNL     1       2.433   7.779  18.944  0.00  0.00    +0.000 NA
ATOM      3  C   UNL     1       2.755   6.465  19.072  0.00  0.00    +0.000 A 
ATOM      4  C   UNL     1       2.213   5.691  20.099  0.00  0.00    +0.000 A 
ATOM      5  C   UNL     1       1.317   6.271  20.992  0.00  0.00    +0.000 A 
ATOM      6  C   UNL     1       0.993   7.615  20.836  0.00  0.00    +0.000 A 
ATOM      7  F   UNL     1       0.150   8.168  21.721  0.00  0.00    +0.000 F 
ATOM      8  C   UNL     1       2.613   4.274  20.239  0.00  0.00    +0.000 A 
ATOM      9  O   UNL     1       2.148   3.563  21.129  0.00  0.00    +0.000 OA
ATOM     10  C   UNL     1       3.608   3.724  19.295  0.00  0.00    +0.000 A 
ATOM     11  C   UNL     1       4.066   4.551  18.346  0.00  0.00    +0.000 A 
ATOM     12  N   UNL     1       3.665   5.857  18.158  0.00  0.00    +0.000 N 
ENDROOT
BRANCH   1  16
ATOM     13  N   UNL     1      -1.666  11.639  19.189  0.00  0.00    +0.000 NA
ATOM     14  C   UNL     1      -0.471  11.196  19.435  0.00  0.00    +0.000 C 
ATOM     15  C   UNL     1       0.256  10.114  18.678  0.00  0.00    +0.000 C 
ATOM     16  N   UNL     1       1.302   9.717  19.619  0.00  0.00    +0.000 N 
ATOM     17  C   UNL     1       1.475  10.706  20.695  0.00  0.00    +0.000 C 
ATOM     18  C   UNL     1       0.401  11.791  20.499  0.00  0.00    +0.000 C 
BRANCH  18  19
ATOM     19  C   UNL     1      -0.294  12.166  21.802  0.00  0.00    +0.000 C 
ATOM     20  N   UNL     1      -1.333  11.395  22.266  0.00  0.00    +0.000 N 
ATOM     21  N   UNL     1       0.045  13.191  22.538  0.00  0.00    +0.000 NA
ATOM     22  H   UNL     1      -1.934  10.969  21.569  0.00  0.00    +0.000 HD
ATOM     23  H   UNL     1      -1.864  11.882  22.987  0.00  0.00    +0.000 HD
BRANCH  21  24
ATOM     24  O   UNL     1       1.103  13.917  21.978  0.00  0.00    +0.000 OA
ATOM     25  C   UNL     1       0.762  15.297  21.977  0.00  0.00    +0.000 C 
ENDBRANCH  21  24
ENDBRANCH  18  19
BRANCH  13  27
ATOM     26  C   UNL     1      -3.600  11.322  17.998  0.00  0.00    +0.000 C 
ATOM     27  O   UNL     1      -2.230  10.955  18.103  0.00  0.00    +0.000 OA
ENDBRANCH  13  27
ENDBRANCH   1  16
BRANCH  12  28
ATOM     28  C   UNL     1       4.301   6.688  17.120  0.00  0.00    +0.000 C 
ATOM     29  C   UNL     1       5.775   7.009  17.062  0.00  0.00    +0.000 C 
ATOM     30  C   UNL     1       5.183   6.057  16.070  0.00  0.00    +0.000 C 
ENDBRANCH  12  28
BRANCH  10  31
ATOM     31  C   UNL     1       4.117   2.336  19.341  0.00  0.00    +0.000 C 
ATOM     32  O   UNL     1       3.629   1.419  18.703  0.00  0.00    +0.000 OA
BRANCH  31  33
ATOM     33  O   UNL     1       5.185   2.160  20.153  0.00  0.00    +0.000 OA
ATOM     34  H   UNL     1       6.031   2.529  19.801  0.00  0.00    +0.000 HD
ENDBRANCH  31  33
ENDBRANCH  10  31
TORSDOF 7
ENDMDL
MODEL 3
REMARK VINA RESULT:      -7.3      2.517      8.413
REMARK  Name = 
REMARK  9 active torsions:
REMARK  status: ('A' for Active; 'I' for Inactive)
REMARK    1  A    between atoms: C_1  and  O_2
REMARK    2  A    between atoms: O_2  and  N_3
REMARK    3  A    between atoms: N_6  and  C_7
REMARK    4  A    between atoms: C_16  and  C_17
REMARK    5  A    between atoms: C_17  and  O_19
REMARK    6  A    between atoms: N_21  and  C_22
REMARK    7  A    between atoms: C_26  and  C_27
REMARK    8  A    between atoms: N_29  and  O_30
REMARK    9  A    between atoms: O_30  and  C_31
REMARK                            x       y       z     vdW  Elec       q    Type
REMARK                         _______ _______ _______ _____ _____    ______ ____
ROOT
ATOM      1  C   UNL     1       1.920   7.638  19.302  0.00  0.00    +0.000 A 
ATOM      2  N   UNL     1       1.180   8.741  19.016  0.00  0.00    +0.000 NA
ATOM      3  C   UNL     1       0.644   9.498  20.009  0.00  0.00    +0.000 A 
ATOM      4  C   UNL     1       0.821   9.153  21.349  0.00  0.00    +0.000 A 
ATOM      5  C   UNL     1       1.572   8.027  21.672  0.00  0.00    +0.000 A 
ATOM      6  C   UNL     1       2.121   7.272  20.640  0.00  0.00    +0.000 A 
ATOM      7  F   UNL     1       2.820   6.173  20.964  0.00  0.00    +0.000 F 
ATOM      8  C   UNL     1       0.192   9.973  22.407  0.00  0.00    +0.000 A 
ATOM      9  O   UNL     1       0.335   9.700  23.597  0.00  0.00    +0.000 OA
ATOM     10  C   UNL     1      -0.640  11.128  22.006  0.00  0.00    +0.000 A 
ATOM     11  C   UNL     1      -0.746  11.372  20.693  0.00  0.00    +0.000 A 
ATOM     12  N   UNL     1      -0.121  10.659  19.691  0.00  0.00    +0.000 N 
ENDROOT
BRANCH   1  16
ATOM     13  N   UNL     1       5.681   6.110  17.070  0.00  0.00    +0.000 NA
ATOM     14  C   UNL     1       4.413   6.159  17.342  0.00  0.00    +0.000 C 
ATOM     15  C   UNL     1       3.582   7.404  17.518  0.00  0.00    +0.000 C 
ATOM     16  N   UNL     1       2.411   6.905  18.237  0.00  0.00    +0.000 N 
ATOM     17  C   UNL     1       2.316   5.438  18.175  0.00  0.00    +0.000 C 
ATOM     18  C   UNL     1       3.567   4.926  17.440  0.00  0.00    +0.000 C 
BRANCH  18  19
ATOM     19  C   UNL     1       4.204   3.730  18.136  0.00  0.00    +0.000 C 
ATOM     20  N   UNL     1       5.427   3.869  18.747  0.00  0.00    +0.000 N 
ATOM     21  N   UNL     1       3.649   2.549  18.205  0.00  0.00    +0.000 NA
ATOM     22  H   UNL     1       6.083   4.511  18.317  0.00  0.00    +0.000 HD
ATOM     23  H   UNL     1       5.850   2.963  18.944  0.00  0.00    +0.000 HD
BRANCH  21  24
ATOM     24  O   UNL     1       2.414   2.505  17.547  0.00  0.00    +0.000 OA
ATOM     25  C   UNL     1       1.417   2.088  18.469  0.00  0.00    +0.000 C 
ENDBRANCH  21  24
ENDBRANCH  18  19
BRANCH  13  27
ATOM     26  C   UNL     1       7.519   7.403  17.530  0.00  0.00    +0.000 C 
ATOM     27  O   UNL     1       6.212   7.405  16.969  0.00  0.00    +0.000 OA
ENDBRANCH  13  27
ENDBRANCH   1  16
BRANCH  12  28
ATOM     28  C   UNL     1      -0.378  10.984  18.276  0.00  0.00    +0.000 C 
ATOM     29  C   UNL     1      -1.539  10.453  17.471  0.00  0.00    +0.000 C 
ATOM     30  C   UNL     1      -1.525  11.888  17.895  0.00  0.00    +0.000 C 
ENDBRANCH  12  28
BRANCH  10  31
ATOM     31  C   UNL     1      -1.350  12.010  22.957  0.00  0.00    +0.000 C 
ATOM     32  O   UNL     1      -2.490  11.808  23.338  0.00  0.00    +0.000 OA
BRANCH  31  33
ATOM     33  O   UNL     1      -0.625  13.070  23.383  0.00  0.00    +0.000 OA
ATOM     34  H   UNL     1       0.140  12.836  23.961  0.00  0.00    +0.000 HD
ENDBRANCH  31  33
ENDBRANCH  10  31
TORSDOF 7
ENDMDL
MODEL 4
REMARK VINA RESULT:      -7.3      2.727      8.483
REMARK  Name = 
REMARK  9 active torsions:
REMARK  status: ('A' for Active; 'I' for Inactive)
REMARK    1  A    between atoms: C_1  and  O_2
REMARK    2  A    between atoms: O_2  and  N_3
REMARK    3  A    between atoms: N_6  and  C_7
REMARK    4  A    between atoms: C_16  and  C_17
REMARK    5  A    between atoms: C_17  and  O_19
REMARK    6  A    between atoms: N_21  and  C_22
REMARK    7  A    between atoms: C_26  and  C_27
REMARK    8  A    between atoms: N_29  and  O_30
REMARK    9  A    between atoms: O_30  and  C_31
REMARK                            x       y       z     vdW  Elec       q    Type
REMARK                         _______ _______ _______ _____ _____    ______ ____
ROOT
ATOM      1  C   UNL     1       1.961   7.648  19.302  0.00  0.00    +0.000 A 
ATOM      2  N   UNL     1       1.654   8.956  19.101  0.00  0.00    +0.000 NA
ATOM      3  C   UNL     1       1.062   9.691  20.078  0.00  0.00    +0.000 A 
ATOM      4  C   UNL     1       0.733   9.119  21.307  0.00  0.00    +0.000 A 
ATOM      5  C   UNL     1       1.033   7.780  21.540  0.00  0.00    +0.000 A 
ATOM      6  C   UNL     1       1.650   7.048  20.529  0.00  0.00    +0.000 A 
ATOM      7  F   UNL     1       1.908   5.751  20.757  0.00  0.00    +0.000 F 
ATOM      8  C   UNL     1       0.052   9.933  22.336  0.00  0.00    +0.000 A 
ATOM      9  O   UNL     1      -0.245   9.460  23.433  0.00  0.00    +0.000 OA
ATOM     10  C   UNL     1      -0.291  11.335  22.017  0.00  0.00    +0.000 A 
ATOM     11  C   UNL     1       0.068  11.787  20.808  0.00  0.00    +0.000 A 
ATOM     12  N   UNL     1       0.757  11.066  19.855  0.00  0.00    +0.000 N 
ENDROOT
BRANCH   1  16
ATOM     13  N   UNL     1       5.901   6.329  17.251  0.00  0.00    +0.000 NA
ATOM     14  C   UNL     1       4.618   6.319  17.454  0.00  0.00    +0.000 C 
ATOM     15  C   UNL     1       3.726   7.523  17.608  0.00  0.00    +0.000 C 
ATOM     16  N   UNL     1       2.540   6.960  18.251  0.00  0.00    +0.000 N 
ATOM     17  C   UNL     1       2.511   5.492  18.155  0.00  0.00    +0.000 C 
ATOM     18  C   UNL     1       3.822   5.049  17.479  0.00  0.00    +0.000 C 
BRANCH  18  19
ATOM     19  C   UNL     1       4.471   3.866  18.185  0.00  0.00    +0.000 C 
ATOM     20  N   UNL     1       5.658   4.039  18.856  0.00  0.00    +0.000 N 
ATOM     21  N   UNL     1       3.958   2.664  18.210  0.00  0.00    +0.000 NA
ATOM     22  H   UNL     1       6.308   4.713  18.468  0.00  0.00    +0.000 HD
ATOM     23  H   UNL     1       6.105   3.146  19.059  0.00  0.00    +0.000 HD
BRANCH  21  24
ATOM     24  O   UNL     1       2.758   2.585  17.493  0.00  0.00    +0.000 OA
ATOM     25  C   UNL     1       1.750   2.055  18.342  0.00  0.00    +0.000 C 
ENDBRANCH  21  24
ENDBRANCH  18  19
BRANCH  13  27
ATOM     26  C   UNL     1       7.737   7.649  17.631  0.00  0.00    +0.000 C 
ATOM     27  O   UNL     1       6.380   7.646  17.206  0.00  0.00    +0.000 OA
ENDBRANCH  13  27
ENDBRANCH   1  16
BRANCH  12  28
ATOM     28  C   UNL     1       1.030  11.656  18.531  0.00  0.00    +0.000 C 
ATOM     29  C   UNL     1       1.101  13.138  18.251  0.00  0.00    +0.000 C 
ATOM     30  C   UNL     1       2.355  12.321  18.249  0.00  0.00    +0.000 C 
ENDBRANCH  12  28
BRANCH  10  31
ATOM     31  C   UNL     1      -0.998  12.248  22.941  0.00  0.00    +0.000 C 
ATOM     32  O   UNL     1      -0.516  13.286  23.360  0.00  0.00    +0.000 OA
BRANCH  31  33
ATOM     33  O   UNL     1      -2.241  11.840  23.286  0.00  0.00    +0.000 OA
ATOM     34  H   UNL     1      -2.600  12.269  24.099  0.00  0.00    +0.000 HD
ENDBRANCH  31  33
ENDBRANCH  10  31
TORSDOF 7
ENDMDL
MODEL 5
REMARK VINA RESULT:      -7.1      2.438      8.483
REMARK  Name = 
REMARK  9 active torsions:
REMARK  status: ('A' for Active; 'I' for Inactive)
REMARK    1  A    between atoms: C_1  and  O_2
REMARK    2  A    between atoms: O_2  and  N_3
REMARK    3  A    between atoms: N_6  and  C_7
REMARK    4  A    between atoms: C_16  and  C_17
REMARK    5  A    between atoms: C_17  and  O_19
REMARK    6  A    between atoms: N_21  and  C_22
REMARK    7  A    between atoms: C_26  and  C_27
REMARK    8  A    between atoms: N_29  and  O_30
REMARK    9  A    between atoms: O_30  and  C_31
REMARK                            x       y       z     vdW  Elec       q    Type
REMARK                         _______ _______ _______ _____ _____    ______ ____
ROOT
ATOM      1  C   UNL     1       2.222   7.720  19.181  0.00  0.00    +0.000 A 
ATOM      2  N   UNL     1       1.393   8.245  20.121  0.00  0.00    +0.000 NA
ATOM      3  C   UNL     1       0.846   9.478  19.957  0.00  0.00    +0.000 A 
ATOM      4  C   UNL     1       1.138  10.248  18.831  0.00  0.00    +0.000 A 
ATOM      5  C   UNL     1       1.987   9.737  17.855  0.00  0.00    +0.000 A 
ATOM      6  C   UNL     1       2.527   8.468  18.037  0.00  0.00    +0.000 A 
ATOM      7  F   UNL     1       3.367   7.999  17.101  0.00  0.00    +0.000 F 
ATOM      8  C   UNL     1       0.561  11.603  18.700  0.00  0.00    +0.000 A 
ATOM      9  O   UNL     1       0.793  12.305  17.716  0.00  0.00    +0.000 OA
ATOM     10  C   UNL     1      -0.293  12.118  19.792  0.00  0.00    +0.000 A 
ATOM     11  C   UNL     1      -0.510  11.298  20.829  0.00  0.00    +0.000 A 
ATOM     12  N   UNL     1      -0.033  10.009  20.947  0.00  0.00    +0.000 N 
ENDROOT
BRANCH   1  16
ATOM     13  N   UNL     1       2.507   3.297  17.831  0.00  0.00    +0.000 NA
ATOM     14  C   UNL     1       2.849   4.341  18.523  0.00  0.00    +0.000 C 
ATOM     15  C   UNL     1       1.919   5.290  19.233  0.00  0.00    +0.000 C 
ATOM     16  N   UNL     1       2.759   6.469  19.432  0.00  0.00    +0.000 N 
ATOM     17  C   UNL     1       4.185   6.166  19.231  0.00  0.00    +0.000 C 
ATOM     18  C   UNL     1       4.283   4.699  18.776  0.00  0.00    +0.000 C 
BRANCH  18  19
ATOM     19  C   UNL     1       5.236   4.515  17.603  0.00  0.00    +0.000 C 
ATOM     20  N   UNL     1       4.734   4.392  16.329  0.00  0.00    +0.000 N 
ATOM     21  N   UNL     1       6.537   4.476  17.722  0.00  0.00    +0.000 NA
ATOM     22  H   UNL     1       3.843   3.918  16.233  0.00  0.00    +0.000 HD
ATOM     23  H   UNL     1       5.435   4.026  15.686  0.00  0.00    +0.000 HD
BRANCH  21  24
ATOM     24  O   UNL     1       6.950   4.599  19.054  0.00  0.00    +0.000 OA
ATOM     25  C   UNL     1       7.838   5.703  19.159  0.00  0.00    +0.000 C 
ENDBRANCH  21  24
ENDBRANCH  18  19
BRANCH  13  27
ATOM     26  C   UNL     1       0.741   2.158  18.751  0.00  0.00    +0.000 C 
ATOM     27  O   UNL     1       1.111   3.159  17.810  0.00  0.00    +0.000 OA
ENDBRANCH  13  27
ENDBRANCH   1  16
BRANCH  12  28
ATOM     28  C   UNL     1      -0.283   9.233  22.175  0.00  0.00    +0.000 C 
ATOM     29  C   UNL     1       0.547   9.328  23.433  0.00  0.00    +0.000 C 
ATOM     30  C   UNL     1      -0.831   9.910  23.408  0.00  0.00    +0.000 C 
ENDBRANCH  12  28
BRANCH  10  31
ATOM     31  C   UNL     1      -0.906  13.463  19.803  0.00  0.00    +0.000 C 
ATOM     32  O   UNL     1      -1.442  13.950  20.784  0.00  0.00    +0.000 OA
BRANCH  31  33
ATOM     33  O   UNL     1      -0.820  14.125  18.627  0.00  0.00    +0.000 OA
ATOM     34  H   UNL     1      -1.030  15.088  18.684  0.00  0.00    +0.000 HD
ENDBRANCH  31  33
ENDBRANCH  10  31
TORSDOF 7
ENDMDL
MODEL 6
REMARK VINA RESULT:      -6.8      2.471      4.335
REMARK  Name = 
REMARK  9 active torsions:
REMARK  status: ('A' for Active; 'I' for Inactive)
REMARK    1  A    between atoms: C_1  and  O_2
REMARK    2  A    between atoms: O_2  and  N_3
REMARK    3  A    between atoms: N_6  and  C_7
REMARK    4  A    between atoms: C_16  and  C_17
REMARK    5  A    between atoms: C_17  and  O_19
REMARK    6  A    between atoms: N_21  and  C_22
REMARK    7  A    between atoms: C_26  and  C_27
REMARK    8  A    between atoms: N_29  and  O_30
REMARK    9  A    between atoms: O_30  and  C_31
REMARK                            x       y       z     vdW  Elec       q    Type
REMARK                         _______ _______ _______ _____ _____    ______ ____
ROOT
ATOM      1  C   UNL     1       1.751   8.473  18.850  0.00  0.00    +0.000 A 
ATOM      2  N   UNL     1       2.594   7.677  18.141  0.00  0.00    +0.000 NA
ATOM      3  C   UNL     1       2.939   6.445  18.598  0.00  0.00    +0.000 A 
ATOM      4  C   UNL     1       2.456   5.971  19.818  0.00  0.00    +0.000 A 
ATOM      5  C   UNL     1       1.594   6.767  20.567  0.00  0.00    +0.000 A 
ATOM      6  C   UNL     1       1.244   8.021  20.075  0.00  0.00    +0.000 A 
ATOM      7  F   UNL     1       0.435   8.788  20.820  0.00  0.00    +0.000 F 
ATOM      8  C   UNL     1       2.882   4.644  20.311  0.00  0.00    +0.000 A 
ATOM      9  O   UNL     1       2.468   4.195  21.379  0.00  0.00    +0.000 OA
ATOM     10  C   UNL     1       3.841   3.863  19.501  0.00  0.00    +0.000 A 
ATOM     11  C   UNL     1       4.243   4.408  18.345  0.00  0.00    +0.000 A 
ATOM     12  N   UNL     1       3.815   5.617  17.837  0.00  0.00    +0.000 N 
ENDROOT
BRANCH   1  16
ATOM     13  N   UNL     1      -0.710  12.373  19.293  0.00  0.00    +0.000 NA
ATOM     14  C   UNL     1       0.228  11.622  18.799  0.00  0.00    +0.000 C 
ATOM     15  C   UNL     1       0.083  10.193  18.342  0.00  0.00    +0.000 C 
ATOM     16  N   UNL     1       1.467   9.723  18.330  0.00  0.00    +0.000 N 
ATOM     17  C   UNL     1       2.425  10.839  18.385  0.00  0.00    +0.000 C 
ATOM     18  C   UNL     1       1.611  12.136  18.538  0.00  0.00    +0.000 C 
BRANCH  18  19
ATOM     19  C   UNL     1       2.191  13.066  19.596  0.00  0.00    +0.000 C 
ATOM     20  N   UNL     1       1.863  12.882  20.919  0.00  0.00    +0.000 N 
ATOM     21  N   UNL     1       3.011  14.048  19.331  0.00  0.00    +0.000 NA
ATOM     22  H   UNL     1       0.928  12.543  21.115  0.00  0.00    +0.000 HD
ATOM     23  H   UNL     1       2.100  13.701  21.478  0.00  0.00    +0.000 HD
BRANCH  21  24
ATOM     24  O   UNL     1       3.276  14.160  17.961  0.00  0.00    +0.000 OA
ATOM     25  C   UNL     1       3.682  15.492  17.679  0.00  0.00    +0.000 C 
ENDBRANCH  21  24
ENDBRANCH  18  19
BRANCH  13  27
ATOM     26  C   UNL     1      -2.902  12.508  19.952  0.00  0.00    +0.000 C 
ATOM     27  O   UNL     1      -1.918  11.664  19.367  0.00  0.00    +0.000 OA
ENDBRANCH  13  27
ENDBRANCH   1  16
BRANCH  12  28
ATOM     28  C   UNL     1       4.392   6.142  16.585  0.00  0.00    +0.000 C 
ATOM     29  C   UNL     1       5.811   6.634  16.435  0.00  0.00    +0.000 C 
ATOM     30  C   UNL     1       5.406   5.335  15.813  0.00  0.00    +0.000 C 
ENDBRANCH  12  28
BRANCH  10  31
ATOM     31  C   UNL     1       4.371   2.539  19.890  0.00  0.00    +0.000 C 
ATOM     32  O   UNL     1       4.950   2.329  20.943  0.00  0.00    +0.000 OA
BRANCH  31  33
ATOM     33  O   UNL     1       4.158   1.562  18.979  0.00  0.00    +0.000 OA
ATOM     34  H   UNL     1       3.686   0.769  19.333  0.00  0.00    +0.000 HD
ENDBRANCH  31  33
ENDBRANCH  10  31
TORSDOF 7
ENDMDL
MODEL 7
REMARK VINA RESULT:      -6.7      2.451      8.650
REMARK  Name = 
REMARK  9 active torsions:
REMARK  status: ('A' for Active; 'I' for Inactive)
REMARK    1  A    between atoms: C_1  and  O_2
REMARK    2  A    between atoms: O_2  and  N_3
REMARK    3  A    between atoms: N_6  and  C_7
REMARK    4  A    between atoms: C_16  and  C_17
REMARK    5  A    between atoms: C_17  and  O_19
REMARK    6  A    between atoms: N_21  and  C_22
REMARK    7  A    between atoms: C_26  and  C_27
REMARK    8  A    between atoms: N_29  and  O_30
REMARK    9  A    between atoms: O_30  and  C_31
REMARK                            x       y       z     vdW  Elec       q    Type
REMARK                         _______ _______ _______ _____ _____    ______ ____
ROOT
ATOM      1  C   UNL     1       1.769   8.143  19.388  0.00  0.00    +0.000 A 
ATOM      2  N   UNL     1       1.212   9.365  19.180  0.00  0.00    +0.000 NA
ATOM      3  C   UNL     1       0.616  10.042  20.197  0.00  0.00    +0.000 A 
ATOM      4  C   UNL     1       0.540   9.492  21.476  0.00  0.00    +0.000 A 
ATOM      5  C   UNL     1       1.097   8.240  21.718  0.00  0.00    +0.000 A 
ATOM      6  C   UNL     1       1.713   7.569  20.665  0.00  0.00    +0.000 A 
ATOM      7  F   UNL     1       2.222   6.351  20.906  0.00  0.00    +0.000 F 
ATOM      8  C   UNL     1      -0.152  10.234  22.553  0.00  0.00    +0.000 A 
ATOM      9  O   UNL     1      -0.230   9.780  23.694  0.00  0.00    +0.000 OA
ATOM     10  C   UNL     1      -0.773  11.536  22.229  0.00  0.00    +0.000 A 
ATOM     11  C   UNL     1      -0.642  11.973  20.970  0.00  0.00    +0.000 A 
ATOM     12  N   UNL     1       0.048  11.328  19.964  0.00  0.00    +0.000 N 
ENDROOT
BRANCH   1  16
ATOM     13  N   UNL     1       5.675   6.717  17.347  0.00  0.00    +0.000 NA
ATOM     14  C   UNL     1       4.389   6.784  17.510  0.00  0.00    +0.000 C 
ATOM     15  C   UNL     1       3.579   8.033  17.743  0.00  0.00    +0.000 C 
ATOM     16  N   UNL     1       2.335   7.506  18.299  0.00  0.00    +0.000 N 
ATOM     17  C   UNL     1       2.206   6.057  18.074  0.00  0.00    +0.000 C 
ATOM     18  C   UNL     1       3.504   5.579  17.401  0.00  0.00    +0.000 C 
BRANCH  18  19
ATOM     19  C   UNL     1       4.043   4.295  18.020  0.00  0.00    +0.000 C 
ATOM     20  N   UNL     1       3.916   4.085  19.373  0.00  0.00    +0.000 N 
ATOM     21  N   UNL     1       4.623   3.345  17.335  0.00  0.00    +0.000 NA
ATOM     22  H   UNL     1       3.973   4.902  19.970  0.00  0.00    +0.000 HD
ATOM     23  H   UNL     1       4.527   3.333  19.691  0.00  0.00    +0.000 HD
BRANCH  21  24
ATOM     24  O   UNL     1       4.713   3.655  15.973  0.00  0.00    +0.000 OA
ATOM     25  C   UNL     1       6.085   3.721  15.607  0.00  0.00    +0.000 C 
ENDBRANCH  21  24
ENDBRANCH  18  19
BRANCH  13  27
ATOM     26  C   UNL     1       7.658   7.852  17.553  0.00  0.00    +0.000 C 
ATOM     27  O   UNL     1       6.248   7.995  17.430  0.00  0.00    +0.000 OA
ENDBRANCH  13  27
ENDBRANCH   1  16
BRANCH  12  28
ATOM     28  C   UNL     1       0.056  11.880  18.596  0.00  0.00    +0.000 C 
ATOM     29  C   UNL     1      -1.174  12.074  17.743  0.00  0.00    +0.000 C 
ATOM     30  C   UNL     1      -0.481  13.265  18.328  0.00  0.00    +0.000 C 
ENDBRANCH  12  28
BRANCH  10  31
ATOM     31  C   UNL     1      -1.519  12.364  23.200  0.00  0.00    +0.000 C 
ATOM     32  O   UNL     1      -1.121  13.441  23.611  0.00  0.00    +0.000 OA
BRANCH  31  33
ATOM     33  O   UNL     1      -2.697  11.832  23.600  0.00  0.00    +0.000 OA
ATOM     34  H   UNL     1      -2.648  11.316  24.440  0.00  0.00    +0.000 HD
ENDBRANCH  31  33
ENDBRANCH  10  31
TORSDOF 7
ENDMDL
MODEL 8
REMARK VINA RESULT:      -6.7      2.302      4.366
REMARK  Name = 
REMARK  9 active torsions:
REMARK  status: ('A' for Active; 'I' for Inactive)
REMARK    1  A    between atoms: C_1  and  O_2
REMARK    2  A    between atoms: O_2  and  N_3
REMARK    3  A    between atoms: N_6  and  C_7
REMARK    4  A    between atoms: C_16  and  C_17
REMARK    5  A    between atoms: C_17  and  O_19
REMARK    6  A    between atoms: N_21  and  C_22
REMARK    7  A    between atoms: C_26  and  C_27
REMARK    8  A    between atoms: N_29  and  O_30
REMARK    9  A    between atoms: O_30  and  C_31
REMARK                            x       y       z     vdW  Elec       q    Type
REMARK                         _______ _______ _______ _____ _____    ______ ____
ROOT
ATOM      1  C   UNL     1       1.921   7.752  19.635  0.00  0.00    +0.000 A 
ATOM      2  N   UNL     1       2.976   7.167  19.011  0.00  0.00    +0.000 NA
ATOM      3  C   UNL     1       3.303   5.872  19.261  0.00  0.00    +0.000 A 
ATOM      4  C   UNL     1       2.578   5.114  20.180  0.00  0.00    +0.000 A 
ATOM      5  C   UNL     1       1.495   5.688  20.837  0.00  0.00    +0.000 A 
ATOM      6  C   UNL     1       1.170   7.013  20.558  0.00  0.00    +0.000 A 
ATOM      7  F   UNL     1       0.139   7.562  21.219  0.00  0.00    +0.000 F 
ATOM      8  C   UNL     1       2.983   3.720  20.462  0.00  0.00    +0.000 A 
ATOM      9  O   UNL     1       2.360   3.022  21.261  0.00  0.00    +0.000 OA
ATOM     10  C   UNL     1       4.175   3.176  19.776  0.00  0.00    +0.000 A 
ATOM     11  C   UNL     1       4.800   3.988  18.912  0.00  0.00    +0.000 A 
ATOM     12  N   UNL     1       4.407   5.270  18.588  0.00  0.00    +0.000 N 
ENDROOT
BRANCH   1  16
ATOM     13  N   UNL     1      -1.277  10.931  18.569  0.00  0.00    +0.000 NA
ATOM     14  C   UNL     1      -0.100  10.521  18.932  0.00  0.00    +0.000 C 
ATOM     15  C   UNL     1       0.692   9.402  18.306  0.00  0.00    +0.000 C 
ATOM     16  N   UNL     1       1.666   9.081  19.347  0.00  0.00    +0.000 N 
ATOM     17  C   UNL     1       1.749  10.141  20.365  0.00  0.00    +0.000 C 
ATOM     18  C   UNL     1       0.683  11.196  20.017  0.00  0.00    +0.000 C 
BRANCH  18  19
ATOM     19  C   UNL     1      -0.112  11.645  21.237  0.00  0.00    +0.000 C 
ATOM     20  N   UNL     1      -1.172  10.888  21.676  0.00  0.00    +0.000 N 
ATOM     21  N   UNL     1       0.157  12.725  21.922  0.00  0.00    +0.000 NA
ATOM     22  H   UNL     1      -1.713  10.405  20.968  0.00  0.00    +0.000 HD
ATOM     23  H   UNL     1      -1.762  11.413  22.320  0.00  0.00    +0.000 HD
BRANCH  21  24
ATOM     24  O   UNL     1       1.243  13.431  21.393  0.00  0.00    +0.000 OA
ATOM     25  C   UNL     1       1.230  14.753  21.915  0.00  0.00    +0.000 C 
ENDBRANCH  21  24
ENDBRANCH  18  19
BRANCH  13  27
ATOM     26  C   UNL     1      -3.165  10.304  17.428  0.00  0.00    +0.000 C 
ATOM     27  O   UNL     1      -1.751  10.169  17.491  0.00  0.00    +0.000 OA
ENDBRANCH  13  27
ENDBRANCH   1  16
BRANCH  12  28
ATOM     28  C   UNL     1       5.225   6.089  17.675  0.00  0.00    +0.000 C 
ATOM     29  C   UNL     1       5.736   5.625  16.332  0.00  0.00    +0.000 C 
ATOM     30  C   UNL     1       4.632   6.633  16.398  0.00  0.00    +0.000 C 
ENDBRANCH  12  28
BRANCH  10  31
ATOM     31  C   UNL     1       4.705   1.813  19.988  0.00  0.00    +0.000 C 
ATOM     32  O   UNL     1       5.268   1.462  21.012  0.00  0.00    +0.000 OA
BRANCH  31  33
ATOM     33  O   UNL     1       4.510   0.969  18.949  0.00  0.00    +0.000 OA
ATOM     34  H   UNL     1       5.234   0.976  18.277  0.00  0.00    +0.000 HD
ENDBRANCH  31  33
ENDBRANCH  10  31
TORSDOF 7
ENDMDL
MODEL 9
REMARK VINA RESULT:      -6.6      2.433      4.202
REMARK  Name = 
REMARK  9 active torsions:
REMARK  status: ('A' for Active; 'I' for Inactive)
REMARK    1  A    between atoms: C_1  and  O_2
REMARK    2  A    between atoms: O_2  and  N_3
REMARK    3  A    between atoms: N_6  and  C_7
REMARK    4  A    between atoms: C_16  and  C_17
REMARK    5  A    between atoms: C_17  and  O_19
REMARK    6  A    between atoms: N_21  and  C_22
REMARK    7  A    between atoms: C_26  and  C_27
REMARK    8  A    between atoms: N_29  and  O_30
REMARK    9  A    between atoms: O_30  and  C_31
REMARK                            x       y       z     vdW  Elec       q    Type
REMARK                         _______ _______ _______ _____ _____    ______ ____
ROOT
ATOM      1  C   UNL     1       1.612   7.982  19.554  0.00  0.00    +0.000 A 
ATOM      2  N   UNL     1       2.561   7.388  18.784  0.00  0.00    +0.000 NA
ATOM      3  C   UNL     1       2.945   6.106  19.016  0.00  0.00    +0.000 A 
ATOM      4  C   UNL     1       2.391   5.370  20.064  0.00  0.00    +0.000 A 
ATOM      5  C   UNL     1       1.419   5.954  20.871  0.00  0.00    +0.000 A 
ATOM      6  C   UNL     1       1.033   7.265  20.609  0.00  0.00    +0.000 A 
ATOM      7  F   UNL     1       0.115   7.825  21.412  0.00  0.00    +0.000 F 
ATOM      8  C   UNL     1       2.858   3.990  20.319  0.00  0.00    +0.000 A 
ATOM      9  O   UNL     1       2.385   3.312  21.230  0.00  0.00    +0.000 OA
ATOM     10  C   UNL     1       3.930   3.437  19.464  0.00  0.00    +0.000 A 
ATOM     11  C   UNL     1       4.394   4.227  18.486  0.00  0.00    +0.000 A 
ATOM     12  N   UNL     1       3.933   5.493  18.192  0.00  0.00    +0.000 N 
ENDROOT
BRANCH   1  16
ATOM     13  N   UNL     1      -1.603  10.927  17.988  0.00  0.00    +0.000 NA
ATOM     14  C   UNL     1      -0.487  10.601  18.565  0.00  0.00    +0.000 C 
ATOM     15  C   UNL     1       0.516   9.592  18.068  0.00  0.00    +0.000 C 
ATOM     16  N   UNL     1       1.293   9.298  19.271  0.00  0.00    +0.000 N 
ATOM     17  C   UNL     1       1.072  10.303  20.324  0.00  0.00    +0.000 C 
ATOM     18  C   UNL     1      -0.001  11.279  19.809  0.00  0.00    +0.000 C 
BRANCH  18  19
ATOM     19  C   UNL     1      -1.059  11.589  20.860  0.00  0.00    +0.000 C 
ATOM     20  N   UNL     1      -2.208  12.251  20.496  0.00  0.00    +0.000 N 
ATOM     21  N   UNL     1      -0.956  11.250  22.118  0.00  0.00    +0.000 NA
ATOM     22  H   UNL     1      -2.124  12.942  19.760  0.00  0.00    +0.000 HD
ATOM     23  H   UNL     1      -2.701  12.615  21.310  0.00  0.00    +0.000 HD
BRANCH  21  24
ATOM     24  O   UNL     1       0.249  10.592  22.391  0.00  0.00    +0.000 OA
ATOM     25  C   UNL     1       0.051   9.709  23.487  0.00  0.00    +0.000 C 
ENDBRANCH  21  24
ENDBRANCH  18  19
BRANCH  13  27
ATOM     26  C   UNL     1      -2.682  10.896  15.964  0.00  0.00    +0.000 C 
ATOM     27  O   UNL     1      -1.781  10.189  16.808  0.00  0.00    +0.000 OA
ENDBRANCH  13  27
ENDBRANCH   1  16
BRANCH  12  28
ATOM     28  C   UNL     1       4.579   6.291  17.133  0.00  0.00    +0.000 C 
ATOM     29  C   UNL     1       5.985   6.836  17.206  0.00  0.00    +0.000 C 
ATOM     30  C   UNL     1       5.678   5.694  16.289  0.00  0.00    +0.000 C 
ENDBRANCH  12  28
BRANCH  10  31
ATOM     31  C   UNL     1       4.510   2.087  19.629  0.00  0.00    +0.000 C 
ATOM     32  O   UNL     1       5.230   1.773  20.562  0.00  0.00    +0.000 OA
BRANCH  31  33
ATOM     33  O   UNL     1       4.171   1.211  18.655  0.00  0.00    +0.000 OA
ATOM     34  H   UNL     1       3.308   0.754  18.799  0.00  0.00    +0.000 HD
ENDBRANCH  31  33
ENDBRANCH  10  31
TORSDOF 7
ENDMDL
