MODEL 1
REMARK VINA RESULT:      -7.8      0.000      0.000
REMARK  Name = 
REMARK  6 active torsions:
REMARK  status: ('A' for Active; 'I' for Inactive)
REMARK    1  A    between atoms: C_1  and  C_2
REMARK    2  A    between atoms: N_5  and  C_6
REMARK    3  A    between atoms: C_6  and  C_7
REMARK    4  A    between atoms: C_6  and  C_8
REMARK    5  A    between atoms: C_8  and  C_10
REMARK    6  A    between atoms: C_13  and  C_14
REMARK                            x       y       z     vdW  Elec       q    Type
REMARK                         _______ _______ _______ _____ _____    ______ ____
ROOT
ATOM      1  C   UNL     1       2.330   5.030  18.870  0.00  0.00    +0.000 A 
ATOM      2  C   UNL     1       1.837   4.972  20.175  0.00  0.00    +0.000 A 
ATOM      3  C   UNL     1       1.412   6.142  20.820  0.00  0.00    +0.000 A 
ATOM      4  C   UNL     1       1.486   7.398  20.190  0.00  0.00    +0.000 A 
ATOM      5  C   UNL     1       2.048   7.430  18.902  0.00  0.00    +0.000 A 
ATOM      6  C   UNL     1       2.458   6.268  18.241  0.00  0.00    +0.000 A 
ENDROOT
BRANCH   4   7
ATOM      7  C   UNL     1       0.982   8.637  20.831  0.00  0.00    +0.000 A 
ATOM      8  C   UNL     1       0.524   8.657  22.158  0.00  0.00    +0.000 A 
ATOM      9  C   UNL     1       0.035   9.832  22.742  0.00  0.00    +0.000 A 
ATOM     10  C   UNL     1      -0.001  11.016  22.014  0.00  0.00    +0.000 A 
ATOM     11  C   UNL     1       0.453  11.029  20.700  0.00  0.00    +0.000 A 
ATOM     12  C   UNL     1       0.930   9.852  20.118  0.00  0.00    +0.000 A 
ENDBRANCH   4   7
BRANCH   1  13
ATOM     13  C   UNL     1       2.703   3.763  18.181  0.00  0.00    +0.000 C 
ATOM     14  O   UNL     1       1.829   3.152  17.569  0.00  0.00    +0.000 OA
BRANCH  13  15
ATOM     15  C   UNL     1       4.154   3.299  18.240  0.00  0.00    +0.000 C 
ATOM     16  C   UNL     1       4.465   2.517  19.512  0.00  0.00    +0.000 C 
BRANCH  15  21
ATOM     17  C   UNL     1       7.866   7.676  17.547  0.00  0.00    +0.000 C 
ATOM     18  C   UNL     1       6.972   6.481  17.720  0.00  0.00    +0.000 A 
ATOM     19  C   UNL     1       6.274   5.947  16.642  0.00  0.00    +0.000 A 
ATOM     20  C   UNL     1       5.390   4.896  16.849  0.00  0.00    +0.000 A 
ATOM     21  N   UNL     1       5.188   4.374  18.086  0.00  0.00    +0.000 N 
ATOM     22  C   UNL     1       5.912   4.838  19.135  0.00  0.00    +0.000 A 
ATOM     23  C   UNL     1       6.790   5.909  18.977  0.00  0.00    +0.000 A 
ENDBRANCH  15  21
ENDBRANCH  13  15
ENDBRANCH   1  13
TORSDOF 4
ENDMDL
MODEL 2
REMARK VINA RESULT:      -7.7      0.098      1.006
REMARK  Name = 
REMARK  6 active torsions:
REMARK  status: ('A' for Active; 'I' for Inactive)
REMARK    1  A    between atoms: C_1  and  C_2
REMARK    2  A    between atoms: N_5  and  C_6
REMARK    3  A    between atoms: C_6  and  C_7
REMARK    4  A    between atoms: C_6  and  C_8
REMARK    5  A    between atoms: C_8  and  C_10
REMARK    6  A    between atoms: C_13  and  C_14
REMARK                            x       y       z     vdW  Elec       q    Type
REMARK                         _______ _______ _______ _____ _____    ______ ____
ROOT
ATOM      1  C   UNL     1       2.358   5.094  18.828  0.00  0.00    +0.000 A 
ATOM      2  C   UNL     1       1.878   5.016  20.137  0.00  0.00    +0.000 A 
ATOM      3  C   UNL     1       1.436   6.173  20.794  0.00  0.00    +0.000 A 
ATOM      4  C   UNL     1       1.482   7.435  20.173  0.00  0.00    +0.000 A 
ATOM      5  C   UNL     1       2.033   7.488  18.881  0.00  0.00    +0.000 A 
ATOM      6  C   UNL     1       2.459   6.339  18.208  0.00  0.00    +0.000 A 
ENDROOT
BRANCH   4   7
ATOM      7  C   UNL     1       0.959   8.660  20.828  0.00  0.00    +0.000 A 
ATOM      8  C   UNL     1       0.902   9.895  20.164  0.00  0.00    +0.000 A 
ATOM      9  C   UNL     1       0.422  11.045  20.802  0.00  0.00    +0.000 A 
ATOM     10  C   UNL     1      -0.019  10.983  22.119  0.00  0.00    +0.000 A 
ATOM     11  C   UNL     1       0.018   9.773  22.802  0.00  0.00    +0.000 A 
ATOM     12  C   UNL     1       0.508   8.631  22.163  0.00  0.00    +0.000 A 
ENDBRANCH   4   7
BRANCH   1  13
ATOM     13  C   UNL     1       2.749   3.840  18.126  0.00  0.00    +0.000 C 
ATOM     14  O   UNL     1       1.888   3.229  17.499  0.00  0.00    +0.000 OA
BRANCH  13  15
ATOM     15  C   UNL     1       4.205   3.388  18.192  0.00  0.00    +0.000 C 
ATOM     16  C   UNL     1       4.517   2.612  19.467  0.00  0.00    +0.000 C 
BRANCH  15  21
ATOM     17  C   UNL     1       7.880   7.798  17.516  0.00  0.00    +0.000 C 
ATOM     18  C   UNL     1       6.996   6.596  17.682  0.00  0.00    +0.000 A 
ATOM     19  C   UNL     1       6.287   6.072  16.606  0.00  0.00    +0.000 A 
ATOM     20  C   UNL     1       5.412   5.014  16.809  0.00  0.00    +0.000 A 
ATOM     21  N   UNL     1       5.230   4.472  18.040  0.00  0.00    +0.000 N 
ATOM     22  C   UNL     1       5.965   4.926  19.086  0.00  0.00    +0.000 A 
ATOM     23  C   UNL     1       6.834   6.004  18.933  0.00  0.00    +0.000 A 
ENDBRANCH  15  21
ENDBRANCH  13  15
ENDBRANCH   1  13
TORSDOF 4
ENDMDL
MODEL 3
REMARK VINA RESULT:      -7.6      3.584      8.437
REMARK  Name = 
REMARK  6 active torsions:
REMARK  status: ('A' for Active; 'I' for Inactive)
REMARK    1  A    between atoms: C_1  and  C_2
REMARK    2  A    between atoms: N_5  and  C_6
REMARK    3  A    between atoms: C_6  and  C_7
REMARK    4  A    between atoms: C_6  and  C_8
REMARK    5  A    between atoms: C_8  and  C_10
REMARK    6  A    between atoms: C_13  and  C_14
REMARK                            x       y       z     vdW  Elec       q    Type
REMARK                         _______ _______ _______ _____ _____    ______ ____
ROOT
ATOM      1  C   UNL     1       1.397   8.683  19.632  0.00  0.00    +0.000 A 
ATOM      2  C   UNL     1       1.847   9.067  18.367  0.00  0.00    +0.000 A 
ATOM      3  C   UNL     1       2.688   8.220  17.632  0.00  0.00    +0.000 A 
ATOM      4  C   UNL     1       3.120   6.983  18.147  0.00  0.00    +0.000 A 
ATOM      5  C   UNL     1       2.703   6.657  19.450  0.00  0.00    +0.000 A 
ATOM      6  C   UNL     1       1.848   7.485  20.185  0.00  0.00    +0.000 A 
ENDROOT
BRANCH   4   7
ATOM      7  C   UNL     1       3.957   6.046  17.360  0.00  0.00    +0.000 A 
ATOM      8  C   UNL     1       4.890   6.495  16.412  0.00  0.00    +0.000 A 
ATOM      9  C   UNL     1       5.661   5.596  15.665  0.00  0.00    +0.000 A 
ATOM     10  C   UNL     1       5.520   4.225  15.854  0.00  0.00    +0.000 A 
ATOM     11  C   UNL     1       4.610   3.750  16.790  0.00  0.00    +0.000 A 
ATOM     12  C   UNL     1       3.836   4.651  17.526  0.00  0.00    +0.000 A 
ENDBRANCH   4   7
BRANCH   1  13
ATOM     13  C   UNL     1       0.443   9.566  20.359  0.00  0.00    +0.000 C 
ATOM     14  O   UNL     1       0.002   9.185  21.440  0.00  0.00    +0.000 OA
BRANCH  13  15
ATOM     15  C   UNL     1       0.081  10.914  19.743  0.00  0.00    +0.000 C 
ATOM     16  C   UNL     1       0.205  12.061  20.739  0.00  0.00    +0.000 C 
BRANCH  15  21
ATOM     17  C   UNL     1      -5.054  11.566  17.169  0.00  0.00    +0.000 C 
ATOM     18  C   UNL     1      -3.756  11.327  17.885  0.00  0.00    +0.000 A 
ATOM     19  C   UNL     1      -3.409  12.072  19.007  0.00  0.00    +0.000 A 
ATOM     20  C   UNL     1      -2.165  11.888  19.597  0.00  0.00    +0.000 A 
ATOM     21  N   UNL     1      -1.273  10.993  19.102  0.00  0.00    +0.000 N 
ATOM     22  C   UNL     1      -1.623  10.211  18.051  0.00  0.00    +0.000 A 
ATOM     23  C   UNL     1      -2.849  10.381  17.412  0.00  0.00    +0.000 A 
ENDBRANCH  15  21
ENDBRANCH  13  15
ENDBRANCH   1  13
TORSDOF 4
ENDMDL
MODEL 4
REMARK VINA RESULT:      -7.5      3.557      8.326
REMARK  Name = 
REMARK  6 active torsions:
REMARK  status: ('A' for Active; 'I' for Inactive)
REMARK    1  A    between atoms: C_1  and  C_2
REMARK    2  A    between atoms: N_5  and  C_6
REMARK    3  A    between atoms: C_6  and  C_7
REMARK    4  A    between atoms: C_6  and  C_8
REMARK    5  A    between atoms: C_8  and  C_10
REMARK    6  A    between atoms: C_13  and  C_14
REMARK                            x       y       z     vdW  Elec       q    Type
REMARK                         _______ _______ _______ _____ _____    ______ ____
ROOT
ATOM      1  C   UNL     1       1.336   8.671  19.711  0.00  0.00    +0.000 A 
ATOM      2  C   UNL     1       1.820   9.055  18.459  0.00  0.00    +0.000 A 
ATOM      3  C   UNL     1       2.652   8.193  17.731  0.00  0.00    +0.000 A 
ATOM      4  C   UNL     1       3.038   6.939  18.241  0.00  0.00    +0.000 A 
ATOM      5  C   UNL     1       2.588   6.612  19.532  0.00  0.00    +0.000 A 
ATOM      6  C   UNL     1       1.742   7.455  20.259  0.00  0.00    +0.000 A 
ENDROOT
BRANCH   4   7
ATOM      7  C   UNL     1       3.864   5.987  17.459  0.00  0.00    +0.000 A 
ATOM      8  C   UNL     1       3.749   4.597  17.616  0.00  0.00    +0.000 A 
ATOM      9  C   UNL     1       4.548   3.711  16.882  0.00  0.00    +0.000 A 
ATOM     10  C   UNL     1       5.478   4.198  15.969  0.00  0.00    +0.000 A 
ATOM     11  C   UNL     1       5.609   5.569  15.786  0.00  0.00    +0.000 A 
ATOM     12  C   UNL     1       4.817   6.448  16.529  0.00  0.00    +0.000 A 
ENDBRANCH   4   7
BRANCH   1  13
ATOM     13  C   UNL     1       0.393   9.574  20.429  0.00  0.00    +0.000 C 
ATOM     14  O   UNL     1      -0.124   9.171  21.469  0.00  0.00    +0.000 OA
BRANCH  13  15
ATOM     15  C   UNL     1       0.135  10.965  19.859  0.00  0.00    +0.000 C 
ATOM     16  C   UNL     1       0.305  12.063  20.903  0.00  0.00    +0.000 C 
BRANCH  15  21
ATOM     17  C   UNL     1      -5.050  11.346  17.332  0.00  0.00    +0.000 C 
ATOM     18  C   UNL     1      -3.679  11.324  17.945  0.00  0.00    +0.000 A 
ATOM     19  C   UNL     1      -2.659  10.556  17.393  0.00  0.00    +0.000 A 
ATOM     20  C   UNL     1      -1.428  10.488  18.030  0.00  0.00    +0.000 A 
ATOM     21  N   UNL     1      -1.192  11.157  19.188  0.00  0.00    +0.000 N 
ATOM     22  C   UNL     1      -2.154  11.965  19.702  0.00  0.00    +0.000 A 
ATOM     23  C   UNL     1      -3.412  12.041  19.109  0.00  0.00    +0.000 A 
ENDBRANCH  15  21
ENDBRANCH  13  15
ENDBRANCH   1  13
TORSDOF 4
ENDMDL
MODEL 5
REMARK VINA RESULT:      -7.5      3.534      8.137
REMARK  Name = 
REMARK  6 active torsions:
REMARK  status: ('A' for Active; 'I' for Inactive)
REMARK    1  A    between atoms: C_1  and  C_2
REMARK    2  A    between atoms: N_5  and  C_6
REMARK    3  A    between atoms: C_6  and  C_7
REMARK    4  A    between atoms: C_6  and  C_8
REMARK    5  A    between atoms: C_8  and  C_10
REMARK    6  A    between atoms: C_13  and  C_14
REMARK                            x       y       z     vdW  Elec       q    Type
REMARK                         _______ _______ _______ _____ _____    ______ ____
ROOT
ATOM      1  C   UNL     1       1.465   8.626  19.797  0.00  0.00    +0.000 A 
ATOM      2  C   UNL     1       2.006   8.319  18.547  0.00  0.00    +0.000 A 
ATOM      3  C   UNL     1       2.426   7.012  18.263  0.00  0.00    +0.000 A 
ATOM      4  C   UNL     1       2.338   5.986  19.222  0.00  0.00    +0.000 A 
ATOM      5  C   UNL     1       1.850   6.343  20.491  0.00  0.00    +0.000 A 
ATOM      6  C   UNL     1       1.411   7.638  20.780  0.00  0.00    +0.000 A 
ENDROOT
BRANCH   4   7
ATOM      7  C   UNL     1       2.717   4.584  18.919  0.00  0.00    +0.000 A 
ATOM      8  C   UNL     1       3.680   3.893  19.670  0.00  0.00    +0.000 A 
ATOM      9  C   UNL     1       4.039   2.575  19.360  0.00  0.00    +0.000 A 
ATOM     10  C   UNL     1       3.435   1.916  18.295  0.00  0.00    +0.000 A 
ATOM     11  C   UNL     1       2.472   2.571  17.537  0.00  0.00    +0.000 A 
ATOM     12  C   UNL     1       2.125   3.890  17.844  0.00  0.00    +0.000 A 
ENDBRANCH   4   7
BRANCH   1  13
ATOM     13  C   UNL     1       0.956  10.003  20.046  0.00  0.00    +0.000 C 
ATOM     14  O   UNL     1       0.866  10.391  21.208  0.00  0.00    +0.000 OA
BRANCH  13  15
ATOM     15  C   UNL     1       0.601  10.879  18.849  0.00  0.00    +0.000 C 
ATOM     16  C   UNL     1       1.150  12.295  18.979  0.00  0.00    +0.000 C 
BRANCH  15  21
ATOM     17  C   UNL     1      -5.072  10.899  17.741  0.00  0.00    +0.000 C 
ATOM     18  C   UNL     1      -3.589  10.958  17.965  0.00  0.00    +0.000 A 
ATOM     19  C   UNL     1      -2.736  10.042  17.358  0.00  0.00    +0.000 A 
ATOM     20  C   UNL     1      -1.379  10.067  17.650  0.00  0.00    +0.000 A 
ATOM     21  N   UNL     1      -0.860  10.970  18.521  0.00  0.00    +0.000 N 
ATOM     22  C   UNL     1      -1.667  11.914  19.067  0.00  0.00    +0.000 A 
ATOM     23  C   UNL     1      -3.038  11.907  18.822  0.00  0.00    +0.000 A 
ENDBRANCH  15  21
ENDBRANCH  13  15
ENDBRANCH   1  13
TORSDOF 4
ENDMDL
MODEL 6
REMARK VINA RESULT:      -7.5      3.503      8.174
REMARK  Name = 
REMARK  6 active torsions:
REMARK  status: ('A' for Active; 'I' for Inactive)
REMARK    1  A    between atoms: C_1  and  C_2
REMARK    2  A    between atoms: N_5  and  C_6
REMARK    3  A    between atoms: C_6  and  C_7
REMARK    4  A    between atoms: C_6  and  C_8
REMARK    5  A    between atoms: C_8  and  C_10
REMARK    6  A    between atoms: C_13  and  C_14
REMARK                            x       y       z     vdW  Elec       q    Type
REMARK                         _______ _______ _______ _____ _____    ______ ____
ROOT
ATOM      1  C   UNL     1       1.508   8.676  19.934  0.00  0.00    +0.000 A 
ATOM      2  C   UNL     1       2.035   8.431  18.664  0.00  0.00    +0.000 A 
ATOM      3  C   UNL     1       2.391   7.127  18.289  0.00  0.00    +0.000 A 
ATOM      4  C   UNL     1       2.252   6.043  19.175  0.00  0.00    +0.000 A 
ATOM      5  C   UNL     1       1.782   6.334  20.468  0.00  0.00    +0.000 A 
ATOM      6  C   UNL     1       1.405   7.626  20.847  0.00  0.00    +0.000 A 
ENDROOT
BRANCH   4   7
ATOM      7  C   UNL     1       2.563   4.648  18.775  0.00  0.00    +0.000 A 
ATOM      8  C   UNL     1       3.599   4.342  17.879  0.00  0.00    +0.000 A 
ATOM      9  C   UNL     1       3.867   3.022  17.498  0.00  0.00    +0.000 A 
ATOM     10  C   UNL     1       3.109   1.975  18.013  0.00  0.00    +0.000 A 
ATOM     11  C   UNL     1       2.082   2.246  18.909  0.00  0.00    +0.000 A 
ATOM     12  C   UNL     1       1.811   3.566  19.276  0.00  0.00    +0.000 A 
ENDBRANCH   4   7
BRANCH   1  13
ATOM     13  C   UNL     1       1.067  10.056  20.279  0.00  0.00    +0.000 C 
ATOM     14  O   UNL     1       1.050  10.384  21.463  0.00  0.00    +0.000 OA
BRANCH  13  15
ATOM     15  C   UNL     1       0.687  11.006  19.148  0.00  0.00    +0.000 C 
ATOM     16  C   UNL     1       1.041  12.456  19.462  0.00  0.00    +0.000 C 
BRANCH  15  21
ATOM     17  C   UNL     1      -4.803  11.165  17.347  0.00  0.00    +0.000 C 
ATOM     18  C   UNL     1      -3.399  11.053  17.868  0.00  0.00    +0.000 A 
ATOM     19  C   UNL     1      -2.958  11.853  18.917  0.00  0.00    +0.000 A 
ATOM     20  C   UNL     1      -1.631  11.788  19.320  0.00  0.00    +0.000 A 
ATOM     21  N   UNL     1      -0.746  10.957  18.711  0.00  0.00    +0.000 N 
ATOM     22  C   UNL     1      -1.177  10.121  17.733  0.00  0.00    +0.000 A 
ATOM     23  C   UNL     1      -2.493  10.173  17.280  0.00  0.00    +0.000 A 
ENDBRANCH  15  21
ENDBRANCH  13  15
ENDBRANCH   1  13
TORSDOF 4
ENDMDL
MODEL 7
REMARK VINA RESULT:      -7.4      1.355      2.323
REMARK  Name = 
REMARK  6 active torsions:
REMARK  status: ('A' for Active; 'I' for Inactive)
REMARK    1  A    between atoms: C_1  and  C_2
REMARK    2  A    between atoms: N_5  and  C_6
REMARK    3  A    between atoms: C_6  and  C_7
REMARK    4  A    between atoms: C_6  and  C_8
REMARK    5  A    between atoms: C_8  and  C_10
REMARK    6  A    between atoms: C_13  and  C_14
REMARK                            x       y       z     vdW  Elec       q    Type
REMARK                         _______ _______ _______ _____ _____    ______ ____
ROOT
ATOM      1  C   UNL     1       2.990   5.206  19.059  0.00  0.00    +0.000 A 
ATOM      2  C   UNL     1       2.934   6.368  18.287  0.00  0.00    +0.000 A 
ATOM      3  C   UNL     1       2.305   7.517  18.788  0.00  0.00    +0.000 A 
ATOM      4  C   UNL     1       1.699   7.529  20.058  0.00  0.00    +0.000 A 
ATOM      5  C   UNL     1       1.715   6.323  20.781  0.00  0.00    +0.000 A 
ATOM      6  C   UNL     1       2.356   5.177  20.300  0.00  0.00    +0.000 A 
ENDROOT
BRANCH   4   7
ATOM      7  C   UNL     1       1.086   8.752  20.631  0.00  0.00    +0.000 A 
ATOM      8  C   UNL     1       0.666   8.819  21.969  0.00  0.00    +0.000 A 
ATOM      9  C   UNL     1       0.073   9.975  22.490  0.00  0.00    +0.000 A 
ATOM     10  C   UNL     1      -0.106  11.096  21.685  0.00  0.00    +0.000 A 
ATOM     11  C   UNL     1       0.307  11.062  20.358  0.00  0.00    +0.000 A 
ATOM     12  C   UNL     1       0.888   9.902  19.841  0.00  0.00    +0.000 A 
ENDBRANCH   4   7
BRANCH   1  13
ATOM     13  C   UNL     1       3.730   4.025  18.534  0.00  0.00    +0.000 C 
ATOM     14  O   UNL     1       3.089   3.023  18.227  0.00  0.00    +0.000 OA
BRANCH  13  15
ATOM     15  C   UNL     1       5.244   4.123  18.372  0.00  0.00    +0.000 C 
ATOM     16  C   UNL     1       5.864   5.157  19.306  0.00  0.00    +0.000 C 
BRANCH  15  21
ATOM     17  C   UNL     1       7.362   4.888  13.049  0.00  0.00    +0.000 C 
ATOM     18  C   UNL     1       6.781   4.775  14.428  0.00  0.00    +0.000 A 
ATOM     19  C   UNL     1       7.568   4.979  15.557  0.00  0.00    +0.000 A 
ATOM     20  C   UNL     1       7.024   4.784  16.819  0.00  0.00    +0.000 A 
ATOM     21  N   UNL     1       5.733   4.395  16.981  0.00  0.00    +0.000 N 
ATOM     22  C   UNL     1       4.933   4.260  15.893  0.00  0.00    +0.000 A 
ATOM     23  C   UNL     1       5.446   4.420  14.608  0.00  0.00    +0.000 A 
ENDBRANCH  15  21
ENDBRANCH  13  15
ENDBRANCH   1  13
TORSDOF 4
ENDMDL
MODEL 8
REMARK VINA RESULT:      -7.4      3.530      8.158
REMARK  Name = 
REMARK  6 active torsions:
REMARK  status: ('A' for Active; 'I' for Inactive)
REMARK    1  A    between atoms: C_1  and  C_2
REMARK    2  A    between atoms: N_5  and  C_6
REMARK    3  A    between atoms: C_6  and  C_7
REMARK    4  A    between atoms: C_6  and  C_8
REMARK    5  A    between atoms: C_8  and  C_10
REMARK    6  A    between atoms: C_13  and  C_14
REMARK                            x       y       z     vdW  Elec       q    Type
REMARK                         _______ _______ _______ _____ _____    ______ ____
ROOT
ATOM      1  C   UNL     1       1.468   8.758  19.927  0.00  0.00    +0.000 A 
ATOM      2  C   UNL     1       1.984   8.514  18.652  0.00  0.00    +0.000 A 
ATOM      3  C   UNL     1       2.331   7.210  18.271  0.00  0.00    +0.000 A 
ATOM      4  C   UNL     1       2.194   6.123  19.155  0.00  0.00    +0.000 A 
ATOM      5  C   UNL     1       1.735   6.414  20.452  0.00  0.00    +0.000 A 
ATOM      6  C   UNL     1       1.367   7.707  20.837  0.00  0.00    +0.000 A 
ENDROOT
BRANCH   4   7
ATOM      7  C   UNL     1       2.495   4.729  18.749  0.00  0.00    +0.000 A 
ATOM      8  C   UNL     1       1.763   3.635  19.238  0.00  0.00    +0.000 A 
ATOM      9  C   UNL     1       2.071   2.323  18.858  0.00  0.00    +0.000 A 
ATOM     10  C   UNL     1       3.115   2.076  17.973  0.00  0.00    +0.000 A 
ATOM     11  C   UNL     1       3.853   3.139  17.465  0.00  0.00    +0.000 A 
ATOM     12  C   UNL     1       3.548   4.445  17.856  0.00  0.00    +0.000 A 
ENDBRANCH   4   7
BRANCH   1  13
ATOM     13  C   UNL     1       1.036  10.139  20.279  0.00  0.00    +0.000 C 
ATOM     14  O   UNL     1       1.048  10.471  21.461  0.00  0.00    +0.000 OA
BRANCH  13  15
ATOM     15  C   UNL     1       0.628  11.086  19.155  0.00  0.00    +0.000 C 
ATOM     16  C   UNL     1       0.962  12.540  19.469  0.00  0.00    +0.000 C 
BRANCH  15  21
ATOM     17  C   UNL     1      -4.880  11.158  17.406  0.00  0.00    +0.000 C 
ATOM     18  C   UNL     1      -3.471  11.070  17.915  0.00  0.00    +0.000 A 
ATOM     19  C   UNL     1      -3.026  11.897  18.941  0.00  0.00    +0.000 A 
ATOM     20  C   UNL     1      -1.695  11.852  19.332  0.00  0.00    +0.000 A 
ATOM     21  N   UNL     1      -0.809  11.015  18.734  0.00  0.00    +0.000 N 
ATOM     22  C   UNL     1      -1.242  10.154  17.779  0.00  0.00    +0.000 A 
ATOM     23  C   UNL     1      -2.563  10.184  17.338  0.00  0.00    +0.000 A 
ENDBRANCH  15  21
ENDBRANCH  13  15
ENDBRANCH   1  13
TORSDOF 4
ENDMDL
MODEL 9
REMARK VINA RESULT:      -7.4      3.596      8.393
REMARK  Name = 
REMARK  6 active torsions:
REMARK  status: ('A' for Active; 'I' for Inactive)
REMARK    1  A    between atoms: C_1  and  C_2
REMARK    2  A    between atoms: N_5  and  C_6
REMARK    3  A    between atoms: C_6  and  C_7
REMARK    4  A    between atoms: C_6  and  C_8
REMARK    5  A    between atoms: C_8  and  C_10
REMARK    6  A    between atoms: C_13  and  C_14
REMARK                            x       y       z     vdW  Elec       q    Type
REMARK                         _______ _______ _______ _____ _____    ______ ____
ROOT
ATOM      1  C   UNL     1       1.375   8.925  19.580  0.00  0.00    +0.000 A 
ATOM      2  C   UNL     1       1.741   7.719  20.183  0.00  0.00    +0.000 A 
ATOM      3  C   UNL     1       2.535   6.797  19.488  0.00  0.00    +0.000 A 
ATOM      4  C   UNL     1       2.965   7.042  18.170  0.00  0.00    +0.000 A 
ATOM      5  C   UNL     1       2.525   8.234  17.570  0.00  0.00    +0.000 A 
ATOM      6  C   UNL     1       1.749   9.170  18.259  0.00  0.00    +0.000 A 
ENDROOT
BRANCH   4   7
ATOM      7  C   UNL     1       3.859   6.108  17.442  0.00  0.00    +0.000 A 
ATOM      8  C   UNL     1       4.854   6.561  16.562  0.00  0.00    +0.000 A 
ATOM      9  C   UNL     1       5.677   5.666  15.869  0.00  0.00    +0.000 A 
ATOM     10  C   UNL     1       5.529   4.294  16.048  0.00  0.00    +0.000 A 
ATOM     11  C   UNL     1       4.558   3.815  16.919  0.00  0.00    +0.000 A 
ATOM     12  C   UNL     1       3.732   4.713  17.599  0.00  0.00    +0.000 A 
ENDBRANCH   4   7
BRANCH   1  13
ATOM     13  C   UNL     1       0.596   9.920  20.368  0.00  0.00    +0.000 C 
ATOM     14  O   UNL     1       0.304   9.645  21.530  0.00  0.00    +0.000 OA
BRANCH  13  15
ATOM     15  C   UNL     1       0.224  11.245  19.710  0.00  0.00    +0.000 C 
ATOM     16  C   UNL     1       0.454  12.438  20.631  0.00  0.00    +0.000 C 
BRANCH  15  21
ATOM     17  C   UNL     1      -5.201  11.226  17.714  0.00  0.00    +0.000 C 
ATOM     18  C   UNL     1      -3.776  11.305  18.182  0.00  0.00    +0.000 A 
ATOM     19  C   UNL     1      -2.780  10.544  17.579  0.00  0.00    +0.000 A 
ATOM     20  C   UNL     1      -1.489  10.574  18.088  0.00  0.00    +0.000 A 
ATOM     21  N   UNL     1      -1.172  11.332  19.169  0.00  0.00    +0.000 N 
ATOM     22  C   UNL     1      -2.116  12.132  19.725  0.00  0.00    +0.000 A 
ATOM     23  C   UNL     1      -3.430  12.113  19.263  0.00  0.00    +0.000 A 
ENDBRANCH  15  21
ENDBRANCH  13  15
ENDBRANCH   1  13
TORSDOF 4
ENDMDL
