MODEL 1
REMARK VINA RESULT:      -7.4      0.000      0.000
REMARK  Name = 
REMARK  8 active torsions:
REMARK  status: ('A' for Active; 'I' for Inactive)
REMARK    1  A    between atoms: C_1  and  O_2
REMARK    2  A    between atoms: O_2  and  C_3
REMARK    3  A    between atoms: C_3  and  C_4
REMARK    4  A    between atoms: C_4  and  O_5
REMARK    5  A    between atoms: O_5  and  C_6
REMARK    6  A    between atoms: C_10  and  C_11
REMARK    7  A    between atoms: C_11  and  N_12
REMARK    8  A    between atoms: C_18  and  C_19
REMARK                            x       y       z     vdW  Elec       q    Type
REMARK                         _______ _______ _______ _____ _____    ______ ____
ROOT
ATOM      1  N   UNL     1       0.721   9.614  19.534  0.00  0.00    +0.000 N 
ATOM      2  C   UNL     1       1.670   8.767  18.995  0.00  0.00    +0.000 C 
ATOM      3  O   UNL     1       2.197   8.997  17.914  0.00  0.00    +0.000 OA
ATOM      4  N   UNL     1       1.857   7.664  19.787  0.00  0.00    +0.000 N 
ATOM      5  C   UNL     1       2.688   6.650  19.399  0.00  0.00    +0.000 A 
ATOM      6  N   UNL     1       3.599   6.644  18.464  0.00  0.00    +0.000 NA
ATOM      7  C   UNL     1       4.166   5.383  18.352  0.00  0.00    +0.000 A 
ATOM      8  C   UNL     1       3.657   4.456  19.244  0.00  0.00    +0.000 A 
ATOM      9  S   UNL     1       2.479   5.193  20.259  0.00  0.00    +0.000 S 
ATOM     10  H   UNL     1       0.713   9.693  20.540  0.00  0.00    +0.000 HD
ATOM     11  H   UNL     1       1.186   7.458  20.506  0.00  0.00    +0.000 HD
ENDROOT
BRANCH   7  12
ATOM     12  C   UNL     1       5.206   5.128  17.359  0.00  0.00    +0.000 A 
ATOM     13  C   UNL     1       5.022   4.103  16.425  0.00  0.00    +0.000 A 
ATOM     14  C   UNL     1       6.007   3.876  15.478  0.00  0.00    +0.000 A 
ATOM     15  N   UNL     1       7.150   4.587  15.399  0.00  0.00    +0.000 NA
ATOM     16  C   UNL     1       7.315   5.565  16.311  0.00  0.00    +0.000 A 
ATOM     17  C   UNL     1       6.389   5.872  17.298  0.00  0.00    +0.000 A 
ENDBRANCH   7  12
BRANCH   1  18
ATOM     18  C   UNL     1       0.348  10.801  18.799  0.00  0.00    +0.000 C 
BRANCH  18  23
ATOM     19  C   UNL     1      -3.369  11.633  18.618  0.00  0.00    +0.000 A 
ATOM     20  C   UNL     1      -3.776  10.805  17.570  0.00  0.00    +0.000 A 
ATOM     21  C   UNL     1      -2.863   9.964  16.935  0.00  0.00    +0.000 A 
ATOM     22  C   UNL     1      -1.532   9.947  17.346  0.00  0.00    +0.000 A 
ATOM     23  C   UNL     1      -1.103  10.771  18.398  0.00  0.00    +0.000 A 
ATOM     24  C   UNL     1      -2.033  11.613  19.026  0.00  0.00    +0.000 A 
BRANCH  19  25
ATOM     25  O   UNL     1      -4.357  12.415  19.154  0.00  0.00    +0.000 OA
BRANCH  25  26
ATOM     26  C   UNL     1      -5.653  11.824  19.247  0.00  0.00    +0.000 C 
BRANCH  26  27
ATOM     27  C   UNL     1      -6.181  11.988  20.666  0.00  0.00    +0.000 C 
BRANCH  27  29
ATOM     28  C   UNL     1      -7.082   9.950  19.896  0.00  0.00    +0.000 C 
ATOM     29  O   UNL     1      -6.974  10.847  20.994  0.00  0.00    +0.000 OA
ENDBRANCH  27  29
ENDBRANCH  26  27
ENDBRANCH  25  26
ENDBRANCH  19  25
ENDBRANCH  18  23
ENDBRANCH   1  18
TORSDOF 7
ENDMDL
MODEL 2
REMARK VINA RESULT:      -7.3      0.559      1.269
REMARK  Name = 
REMARK  8 active torsions:
REMARK  status: ('A' for Active; 'I' for Inactive)
REMARK    1  A    between atoms: C_1  and  O_2
REMARK    2  A    between atoms: O_2  and  C_3
REMARK    3  A    between atoms: C_3  and  C_4
REMARK    4  A    between atoms: C_4  and  O_5
REMARK    5  A    between atoms: O_5  and  C_6
REMARK    6  A    between atoms: C_10  and  C_11
REMARK    7  A    between atoms: C_11  and  N_12
REMARK    8  A    between atoms: C_18  and  C_19
REMARK                            x       y       z     vdW  Elec       q    Type
REMARK                         _______ _______ _______ _____ _____    ______ ____
ROOT
ATOM      1  N   UNL     1       0.583   9.683  19.471  0.00  0.00    +0.000 N 
ATOM      2  C   UNL     1       1.533   8.822  18.955  0.00  0.00    +0.000 C 
ATOM      3  O   UNL     1       2.045   9.010  17.859  0.00  0.00    +0.000 OA
ATOM      4  N   UNL     1       1.738   7.754  19.790  0.00  0.00    +0.000 N 
ATOM      5  C   UNL     1       2.572   6.731  19.434  0.00  0.00    +0.000 A 
ATOM      6  N   UNL     1       3.472   6.693  18.489  0.00  0.00    +0.000 NA
ATOM      7  C   UNL     1       4.048   5.433  18.423  0.00  0.00    +0.000 A 
ATOM      8  C   UNL     1       3.558   4.539  19.359  0.00  0.00    +0.000 A 
ATOM      9  S   UNL     1       2.386   5.309  20.356  0.00  0.00    +0.000 S 
ATOM     10  H   UNL     1       0.587   9.803  20.473  0.00  0.00    +0.000 HD
ATOM     11  H   UNL     1       1.077   7.572  20.525  0.00  0.00    +0.000 HD
ENDROOT
BRANCH   7  12
ATOM     12  C   UNL     1       5.079   5.145  17.429  0.00  0.00    +0.000 A 
ATOM     13  C   UNL     1       6.250   5.911  17.417  0.00  0.00    +0.000 A 
ATOM     14  C   UNL     1       7.229   5.624  16.481  0.00  0.00    +0.000 A 
ATOM     15  N   UNL     1       7.123   4.642  15.563  0.00  0.00    +0.000 NA
ATOM     16  C   UNL     1       5.987   3.919  15.582  0.00  0.00    +0.000 A 
ATOM     17  C   UNL     1       4.948   4.127  16.479  0.00  0.00    +0.000 A 
ENDBRANCH   7  12
BRANCH   1  18
ATOM     18  C   UNL     1       0.192  10.835  18.691  0.00  0.00    +0.000 C 
BRANCH  18  23
ATOM     19  C   UNL     1      -3.547  11.548  18.473  0.00  0.00    +0.000 A 
ATOM     20  C   UNL     1      -3.918  10.706  17.422  0.00  0.00    +0.000 A 
ATOM     21  C   UNL     1      -2.972   9.894  16.797  0.00  0.00    +0.000 A 
ATOM     22  C   UNL     1      -1.645   9.920  17.221  0.00  0.00    +0.000 A 
ATOM     23  C   UNL     1      -1.253  10.758  18.276  0.00  0.00    +0.000 A 
ATOM     24  C   UNL     1      -2.216  11.571  18.895  0.00  0.00    +0.000 A 
BRANCH  19  25
ATOM     25  O   UNL     1      -4.565  12.298  18.999  0.00  0.00    +0.000 OA
BRANCH  25  26
ATOM     26  C   UNL     1      -5.794  11.615  19.247  0.00  0.00    +0.000 C 
BRANCH  26  27
ATOM     27  C   UNL     1      -6.554  12.330  20.356  0.00  0.00    +0.000 C 
BRANCH  27  29
ATOM     28  C   UNL     1      -5.429  12.991  22.320  0.00  0.00    +0.000 C 
ATOM     29  O   UNL     1      -6.027  11.911  21.615  0.00  0.00    +0.000 OA
ENDBRANCH  27  29
ENDBRANCH  26  27
ENDBRANCH  25  26
ENDBRANCH  19  25
ENDBRANCH  18  23
ENDBRANCH   1  18
TORSDOF 7
ENDMDL
MODEL 3
REMARK VINA RESULT:      -7.2      0.855      1.196
REMARK  Name = 
REMARK  8 active torsions:
REMARK  status: ('A' for Active; 'I' for Inactive)
REMARK    1  A    between atoms: C_1  and  O_2
REMARK    2  A    between atoms: O_2  and  C_3
REMARK    3  A    between atoms: C_3  and  C_4
REMARK    4  A    between atoms: C_4  and  O_5
REMARK    5  A    between atoms: O_5  and  C_6
REMARK    6  A    between atoms: C_10  and  C_11
REMARK    7  A    between atoms: C_11  and  N_12
REMARK    8  A    between atoms: C_18  and  C_19
REMARK                            x       y       z     vdW  Elec       q    Type
REMARK                         _______ _______ _______ _____ _____    ______ ____
ROOT
ATOM      1  N   UNL     1       0.809   9.341  20.040  0.00  0.00    +0.000 N 
ATOM      2  C   UNL     1       1.750   8.476  19.516  0.00  0.00    +0.000 C 
ATOM      3  O   UNL     1       2.373   8.744  18.497  0.00  0.00    +0.000 OA
ATOM      4  N   UNL     1       1.813   7.315  20.242  0.00  0.00    +0.000 N 
ATOM      5  C   UNL     1       2.615   6.280  19.848  0.00  0.00    +0.000 A 
ATOM      6  N   UNL     1       3.596   6.280  18.987  0.00  0.00    +0.000 NA
ATOM      7  C   UNL     1       4.101   4.997  18.831  0.00  0.00    +0.000 A 
ATOM      8  C   UNL     1       3.473   4.046  19.615  0.00  0.00    +0.000 A 
ATOM      9  S   UNL     1       2.260   4.785  20.587  0.00  0.00    +0.000 S 
ATOM     10  H   UNL     1       0.725   9.354  21.046  0.00  0.00    +0.000 HD
ATOM     11  H   UNL     1       1.076   7.102  20.892  0.00  0.00    +0.000 HD
ENDROOT
BRANCH   7  12
ATOM     12  C   UNL     1       5.201   4.746  17.904  0.00  0.00    +0.000 A 
ATOM     13  C   UNL     1       6.517   4.951  18.335  0.00  0.00    +0.000 A 
ATOM     14  C   UNL     1       7.556   4.698  17.455  0.00  0.00    +0.000 A 
ATOM     15  N   UNL     1       7.380   4.264  16.191  0.00  0.00    +0.000 NA
ATOM     16  C   UNL     1       6.107   4.080  15.789  0.00  0.00    +0.000 A 
ATOM     17  C   UNL     1       4.998   4.304  16.593  0.00  0.00    +0.000 A 
ENDBRANCH   7  12
BRANCH   1  18
ATOM     18  C   UNL     1       0.561  10.593  19.363  0.00  0.00    +0.000 C 
BRANCH  18  23
ATOM     19  C   UNL     1      -3.054  11.507  18.565  0.00  0.00    +0.000 A 
ATOM     20  C   UNL     1      -3.278  10.736  17.423  0.00  0.00    +0.000 A 
ATOM     21  C   UNL     1      -2.275   9.907  16.920  0.00  0.00    +0.000 A 
ATOM     22  C   UNL     1      -1.039   9.845  17.560  0.00  0.00    +0.000 A 
ATOM     23  C   UNL     1      -0.795  10.611  18.710  0.00  0.00    +0.000 A 
ATOM     24  C   UNL     1      -1.813  11.442  19.203  0.00  0.00    +0.000 A 
BRANCH  19  25
ATOM     25  O   UNL     1      -4.113  12.283  18.955  0.00  0.00    +0.000 OA
BRANCH  25  26
ATOM     26  C   UNL     1      -5.364  12.013  18.322  0.00  0.00    +0.000 C 
BRANCH  26  27
ATOM     27  C   UNL     1      -6.480  12.701  19.097  0.00  0.00    +0.000 C 
BRANCH  27  29
ATOM     28  C   UNL     1      -7.393  11.089  20.555  0.00  0.00    +0.000 C 
ATOM     29  O   UNL     1      -7.534  11.763  19.311  0.00  0.00    +0.000 OA
ENDBRANCH  27  29
ENDBRANCH  26  27
ENDBRANCH  25  26
ENDBRANCH  19  25
ENDBRANCH  18  23
ENDBRANCH   1  18
TORSDOF 7
ENDMDL
MODEL 4
REMARK VINA RESULT:      -7.2      3.347     10.979
REMARK  Name = 
REMARK  8 active torsions:
REMARK  status: ('A' for Active; 'I' for Inactive)
REMARK    1  A    between atoms: C_1  and  O_2
REMARK    2  A    between atoms: O_2  and  C_3
REMARK    3  A    between atoms: C_3  and  C_4
REMARK    4  A    between atoms: C_4  and  O_5
REMARK    5  A    between atoms: O_5  and  C_6
REMARK    6  A    between atoms: C_10  and  C_11
REMARK    7  A    between atoms: C_11  and  N_12
REMARK    8  A    between atoms: C_18  and  C_19
REMARK                            x       y       z     vdW  Elec       q    Type
REMARK                         _______ _______ _______ _____ _____    ______ ____
ROOT
ATOM      1  N   UNL     1       0.776   9.506  18.152  0.00  0.00    +0.000 N 
ATOM      2  C   UNL     1      -0.483  10.042  18.346  0.00  0.00    +0.000 C 
ATOM      3  O   UNL     1      -0.974  10.145  19.462  0.00  0.00    +0.000 OA
ATOM      4  N   UNL     1      -1.078  10.353  17.150  0.00  0.00    +0.000 N 
ATOM      5  C   UNL     1      -2.365  10.814  17.101  0.00  0.00    +0.000 A 
ATOM      6  N   UNL     1      -3.107  11.288  18.065  0.00  0.00    +0.000 NA
ATOM      7  C   UNL     1      -4.379  11.577  17.596  0.00  0.00    +0.000 A 
ATOM      8  C   UNL     1      -4.555  11.316  16.248  0.00  0.00    +0.000 A 
ATOM      9  S   UNL     1      -3.088  10.737  15.560  0.00  0.00    +0.000 S 
ATOM     10  H   UNL     1       1.314   9.894  17.392  0.00  0.00    +0.000 HD
ATOM     11  H   UNL     1      -0.691   9.984  16.299  0.00  0.00    +0.000 HD
ENDROOT
BRANCH   7  12
ATOM     12  C   UNL     1      -5.394  12.111  18.500  0.00  0.00    +0.000 A 
ATOM     13  C   UNL     1      -6.674  12.385  18.004  0.00  0.00    +0.000 A 
ATOM     14  C   UNL     1      -7.636  12.878  18.870  0.00  0.00    +0.000 A 
ATOM     15  N   UNL     1      -7.415  13.118  20.178  0.00  0.00    +0.000 NA
ATOM     16  C   UNL     1      -6.175  12.856  20.638  0.00  0.00    +0.000 A 
ATOM     17  C   UNL     1      -5.144  12.361  19.853  0.00  0.00    +0.000 A 
ENDBRANCH   7  12
BRANCH   1  18
ATOM     18  C   UNL     1       1.527   9.060  19.303  0.00  0.00    +0.000 C 
BRANCH  18  23
ATOM     19  C   UNL     1       3.809   6.485  17.661  0.00  0.00    +0.000 A 
ATOM     20  C   UNL     1       3.712   5.427  18.567  0.00  0.00    +0.000 A 
ATOM     21  C   UNL     1       2.897   5.531  19.694  0.00  0.00    +0.000 A 
ATOM     22  C   UNL     1       2.173   6.700  19.922  0.00  0.00    +0.000 A 
ATOM     23  C   UNL     1       2.257   7.774  19.023  0.00  0.00    +0.000 A 
ATOM     24  C   UNL     1       3.082   7.655  17.894  0.00  0.00    +0.000 A 
BRANCH  19  25
ATOM     25  O   UNL     1       4.645   6.262  16.600  0.00  0.00    +0.000 OA
BRANCH  25  26
ATOM     26  C   UNL     1       5.517   5.136  16.705  0.00  0.00    +0.000 C 
BRANCH  26  27
ATOM     27  C   UNL     1       6.953   5.585  16.467  0.00  0.00    +0.000 C 
BRANCH  27  29
ATOM     28  C   UNL     1       6.591   4.370  14.480  0.00  0.00    +0.000 C 
ATOM     29  O   UNL     1       7.537   4.745  15.473  0.00  0.00    +0.000 OA
ENDBRANCH  27  29
ENDBRANCH  26  27
ENDBRANCH  25  26
ENDBRANCH  19  25
ENDBRANCH  18  23
ENDBRANCH   1  18
TORSDOF 7
ENDMDL
MODEL 5
REMARK VINA RESULT:      -7.2      2.210      3.328
REMARK  Name = 
REMARK  8 active torsions:
REMARK  status: ('A' for Active; 'I' for Inactive)
REMARK    1  A    between atoms: C_1  and  O_2
REMARK    2  A    between atoms: O_2  and  C_3
REMARK    3  A    between atoms: C_3  and  C_4
REMARK    4  A    between atoms: C_4  and  O_5
REMARK    5  A    between atoms: O_5  and  C_6
REMARK    6  A    between atoms: C_10  and  C_11
REMARK    7  A    between atoms: C_11  and  N_12
REMARK    8  A    between atoms: C_18  and  C_19
REMARK                            x       y       z     vdW  Elec       q    Type
REMARK                         _______ _______ _______ _____ _____    ______ ____
ROOT
ATOM      1  N   UNL     1       1.289  10.527  18.017  0.00  0.00    +0.000 N 
ATOM      2  C   UNL     1       1.644   9.276  18.486  0.00  0.00    +0.000 C 
ATOM      3  O   UNL     1       1.248   8.857  19.565  0.00  0.00    +0.000 OA
ATOM      4  N   UNL     1       2.515   8.655  17.628  0.00  0.00    +0.000 N 
ATOM      5  C   UNL     1       3.067   7.443  17.938  0.00  0.00    +0.000 A 
ATOM      6  N   UNL     1       2.703   6.582  18.849  0.00  0.00    +0.000 NA
ATOM      7  C   UNL     1       3.582   5.509  18.875  0.00  0.00    +0.000 A 
ATOM      8  C   UNL     1       4.602   5.594  17.944  0.00  0.00    +0.000 A 
ATOM      9  S   UNL     1       4.427   7.022  17.001  0.00  0.00    +0.000 S 
ATOM     10  H   UNL     1       1.181  10.615  17.018  0.00  0.00    +0.000 HD
ATOM     11  H   UNL     1       2.970   9.197  16.913  0.00  0.00    +0.000 HD
ENDROOT
BRANCH   7  12
ATOM     12  C   UNL     1       3.385   4.419  19.828  0.00  0.00    +0.000 A 
ATOM     13  C   UNL     1       2.332   4.496  20.746  0.00  0.00    +0.000 A 
ATOM     14  C   UNL     1       2.143   3.453  21.637  0.00  0.00    +0.000 A 
ATOM     15  N   UNL     1       2.923   2.353  21.680  0.00  0.00    +0.000 NA
ATOM     16  C   UNL     1       3.937   2.298  20.795  0.00  0.00    +0.000 A 
ATOM     17  C   UNL     1       4.209   3.290  19.862  0.00  0.00    +0.000 A 
ENDBRANCH   7  12
BRANCH   1  18
ATOM     18  C   UNL     1       0.424  11.354  18.828  0.00  0.00    +0.000 C 
BRANCH  18  23
ATOM     19  C   UNL     1      -3.370  11.720  18.791  0.00  0.00    +0.000 A 
ATOM     20  C   UNL     1      -3.715  10.822  17.779  0.00  0.00    +0.000 A 
ATOM     21  C   UNL     1      -2.731  10.082  17.122  0.00  0.00    +0.000 A 
ATOM     22  C   UNL     1      -1.392  10.239  17.475  0.00  0.00    +0.000 A 
ATOM     23  C   UNL     1      -1.026  11.136  18.491  0.00  0.00    +0.000 A 
ATOM     24  C   UNL     1      -2.027  11.874  19.142  0.00  0.00    +0.000 A 
BRANCH  19  25
ATOM     25  O   UNL     1      -4.425  12.388  19.353  0.00  0.00    +0.000 OA
BRANCH  25  26
ATOM     26  C   UNL     1      -4.161  13.077  20.576  0.00  0.00    +0.000 C 
BRANCH  26  27
ATOM     27  C   UNL     1      -5.331  12.877  21.530  0.00  0.00    +0.000 C 
BRANCH  27  29
ATOM     28  C   UNL     1      -3.398  12.455  22.813  0.00  0.00    +0.000 C 
ATOM     29  O   UNL     1      -4.818  12.517  22.813  0.00  0.00    +0.000 OA
ENDBRANCH  27  29
ENDBRANCH  26  27
ENDBRANCH  25  26
ENDBRANCH  19  25
ENDBRANCH  18  23
ENDBRANCH   1  18
TORSDOF 7
ENDMDL
MODEL 6
REMARK VINA RESULT:      -7.2      3.339     10.971
REMARK  Name = 
REMARK  8 active torsions:
REMARK  status: ('A' for Active; 'I' for Inactive)
REMARK    1  A    between atoms: C_1  and  O_2
REMARK    2  A    between atoms: O_2  and  C_3
REMARK    3  A    between atoms: C_3  and  C_4
REMARK    4  A    between atoms: C_4  and  O_5
REMARK    5  A    between atoms: O_5  and  C_6
REMARK    6  A    between atoms: C_10  and  C_11
REMARK    7  A    between atoms: C_11  and  N_12
REMARK    8  A    between atoms: C_18  and  C_19
REMARK                            x       y       z     vdW  Elec       q    Type
REMARK                         _______ _______ _______ _____ _____    ______ ____
ROOT
ATOM      1  N   UNL     1       0.819   9.592  18.021  0.00  0.00    +0.000 N 
ATOM      2  C   UNL     1      -0.434  10.124  18.259  0.00  0.00    +0.000 C 
ATOM      3  O   UNL     1      -0.863  10.278  19.395  0.00  0.00    +0.000 OA
ATOM      4  N   UNL     1      -1.100  10.367  17.085  0.00  0.00    +0.000 N 
ATOM      5  C   UNL     1      -2.393  10.811  17.086  0.00  0.00    +0.000 A 
ATOM      6  N   UNL     1      -3.086  11.326  18.065  0.00  0.00    +0.000 NA
ATOM      7  C   UNL     1      -4.386  11.578  17.655  0.00  0.00    +0.000 A 
ATOM      8  C   UNL     1      -4.634  11.247  16.334  0.00  0.00    +0.000 A 
ATOM      9  S   UNL     1      -3.200  10.649  15.594  0.00  0.00    +0.000 S 
ATOM     10  H   UNL     1       1.308   9.946  17.213  0.00  0.00    +0.000 HD
ATOM     11  H   UNL     1      -0.755   9.959  16.233  0.00  0.00    +0.000 HD
ENDROOT
BRANCH   7  12
ATOM     12  C   UNL     1      -5.356  12.146  18.587  0.00  0.00    +0.000 A 
ATOM     13  C   UNL     1      -4.969  12.394  19.909  0.00  0.00    +0.000 A 
ATOM     14  C   UNL     1      -5.890  12.946  20.784  0.00  0.00    +0.000 A 
ATOM     15  N   UNL     1      -7.155  13.260  20.441  0.00  0.00    +0.000 NA
ATOM     16  C   UNL     1      -7.514  13.008  19.167  0.00  0.00    +0.000 A 
ATOM     17  C   UNL     1      -6.667  12.459  18.215  0.00  0.00    +0.000 A 
ENDBRANCH   7  12
BRANCH   1  18
ATOM     18  C   UNL     1       1.639   9.213  19.149  0.00  0.00    +0.000 C 
BRANCH  18  23
ATOM     19  C   UNL     1       3.622   6.281  17.732  0.00  0.00    +0.000 A 
ATOM     20  C   UNL     1       3.397   5.309  18.710  0.00  0.00    +0.000 A 
ATOM     21  C   UNL     1       2.591   5.588  19.814  0.00  0.00    +0.000 A 
ATOM     22  C   UNL     1       2.005   6.846  19.946  0.00  0.00    +0.000 A 
ATOM     23  C   UNL     1       2.218   7.834  18.973  0.00  0.00    +0.000 A 
ATOM     24  C   UNL     1       3.032   7.539  17.869  0.00  0.00    +0.000 A 
BRANCH  19  25
ATOM     25  O   UNL     1       4.434   5.886  16.702  0.00  0.00    +0.000 OA
BRANCH  25  26
ATOM     26  C   UNL     1       5.346   4.825  16.985  0.00  0.00    +0.000 C 
BRANCH  26  27
ATOM     27  C   UNL     1       6.368   4.725  15.860  0.00  0.00    +0.000 C 
BRANCH  27  29
ATOM     28  C   UNL     1       7.626   4.677  17.853  0.00  0.00    +0.000 C 
ATOM     29  O   UNL     1       7.674   4.660  16.432  0.00  0.00    +0.000 OA
ENDBRANCH  27  29
ENDBRANCH  26  27
ENDBRANCH  25  26
ENDBRANCH  19  25
ENDBRANCH  18  23
ENDBRANCH   1  18
TORSDOF 7
ENDMDL
MODEL 7
REMARK VINA RESULT:      -7.2      3.565     10.370
REMARK  Name = 
REMARK  8 active torsions:
REMARK  status: ('A' for Active; 'I' for Inactive)
REMARK    1  A    between atoms: C_1  and  O_2
REMARK    2  A    between atoms: O_2  and  C_3
REMARK    3  A    between atoms: C_3  and  C_4
REMARK    4  A    between atoms: C_4  and  O_5
REMARK    5  A    between atoms: O_5  and  C_6
REMARK    6  A    between atoms: C_10  and  C_11
REMARK    7  A    between atoms: C_11  and  N_12
REMARK    8  A    between atoms: C_18  and  C_19
REMARK                            x       y       z     vdW  Elec       q    Type
REMARK                         _______ _______ _______ _____ _____    ______ ____
ROOT
ATOM      1  N   UNL     1       0.674   9.739  18.091  0.00  0.00    +0.000 N 
ATOM      2  C   UNL     1      -0.597  10.248  18.277  0.00  0.00    +0.000 C 
ATOM      3  O   UNL     1      -1.082  10.378  19.394  0.00  0.00    +0.000 OA
ATOM      4  N   UNL     1      -1.211  10.499  17.077  0.00  0.00    +0.000 N 
ATOM      5  C   UNL     1      -2.509  10.924  17.023  0.00  0.00    +0.000 A 
ATOM      6  N   UNL     1      -3.256  11.413  17.976  0.00  0.00    +0.000 NA
ATOM      7  C   UNL     1      -4.539  11.651  17.508  0.00  0.00    +0.000 A 
ATOM      8  C   UNL     1      -4.719  11.337  16.172  0.00  0.00    +0.000 A 
ATOM      9  S   UNL     1      -3.243  10.773  15.492  0.00  0.00    +0.000 S 
ATOM     10  H   UNL     1       1.195  10.114  17.312  0.00  0.00    +0.000 HD
ATOM     11  H   UNL     1      -0.820  10.111  16.236  0.00  0.00    +0.000 HD
ENDROOT
BRANCH   7  12
ATOM     12  C   UNL     1      -5.561  12.190  18.402  0.00  0.00    +0.000 A 
ATOM     13  C   UNL     1      -5.268  12.340  19.762  0.00  0.00    +0.000 A 
ATOM     14  C   UNL     1      -6.237  12.864  20.602  0.00  0.00    +0.000 A 
ATOM     15  N   UNL     1      -7.464  13.241  20.188  0.00  0.00    +0.000 NA
ATOM     16  C   UNL     1      -7.733  13.082  18.877  0.00  0.00    +0.000 A 
ATOM     17  C   UNL     1      -6.831  12.568  17.956  0.00  0.00    +0.000 A 
ENDBRANCH   7  12
BRANCH   1  18
ATOM     18  C   UNL     1       1.446   9.355  19.250  0.00  0.00    +0.000 C 
BRANCH  18  23
ATOM     19  C   UNL     1       2.756   5.802  19.688  0.00  0.00    +0.000 A 
ATOM     20  C   UNL     1       3.498   5.645  18.516  0.00  0.00    +0.000 A 
ATOM     21  C   UNL     1       3.596   6.687  17.594  0.00  0.00    +0.000 A 
ATOM     22  C   UNL     1       2.948   7.896  17.841  0.00  0.00    +0.000 A 
ATOM     23  C   UNL     1       2.199   8.073  19.014  0.00  0.00    +0.000 A 
ATOM     24  C   UNL     1       2.109   7.015  19.932  0.00  0.00    +0.000 A 
BRANCH  19  25
ATOM     25  O   UNL     1       2.734   4.705  20.508  0.00  0.00    +0.000 OA
BRANCH  25  26
ATOM     26  C   UNL     1       1.467   4.072  20.686  0.00  0.00    +0.000 C 
BRANCH  26  27
ATOM     27  C   UNL     1       1.598   2.585  20.383  0.00  0.00    +0.000 C 
BRANCH  27  29
ATOM     28  C   UNL     1       2.699   1.961  18.394  0.00  0.00    +0.000 C 
ATOM     29  O   UNL     1       1.475   2.393  18.974  0.00  0.00    +0.000 OA
ENDBRANCH  27  29
ENDBRANCH  26  27
ENDBRANCH  25  26
ENDBRANCH  19  25
ENDBRANCH  18  23
ENDBRANCH   1  18
TORSDOF 7
ENDMDL
MODEL 8
REMARK VINA RESULT:      -7.2      3.810     10.750
REMARK  Name = 
REMARK  8 active torsions:
REMARK  status: ('A' for Active; 'I' for Inactive)
REMARK    1  A    between atoms: C_1  and  O_2
REMARK    2  A    between atoms: O_2  and  C_3
REMARK    3  A    between atoms: C_3  and  C_4
REMARK    4  A    between atoms: C_4  and  O_5
REMARK    5  A    between atoms: O_5  and  C_6
REMARK    6  A    between atoms: C_10  and  C_11
REMARK    7  A    between atoms: C_11  and  N_12
REMARK    8  A    between atoms: C_18  and  C_19
REMARK                            x       y       z     vdW  Elec       q    Type
REMARK                         _______ _______ _______ _____ _____    ______ ____
ROOT
ATOM      1  N   UNL     1       1.915   7.564  20.529  0.00  0.00    +0.000 N 
ATOM      2  C   UNL     1       0.924   8.447  20.915  0.00  0.00    +0.000 C 
ATOM      3  O   UNL     1      -0.139   8.058  21.381  0.00  0.00    +0.000 OA
ATOM      4  N   UNL     1       1.281   9.742  20.640  0.00  0.00    +0.000 N 
ATOM      5  C   UNL     1       0.412  10.774  20.857  0.00  0.00    +0.000 A 
ATOM      6  N   UNL     1      -0.685  10.792  21.564  0.00  0.00    +0.000 NA
ATOM      7  C   UNL     1      -1.305  12.029  21.462  0.00  0.00    +0.000 A 
ATOM      8  C   UNL     1      -0.625  12.935  20.667  0.00  0.00    +0.000 A 
ATOM      9  S   UNL     1       0.829  12.231  20.076  0.00  0.00    +0.000 S 
ATOM     10  H   UNL     1       2.866   7.876  20.656  0.00  0.00    +0.000 HD
ATOM     11  H   UNL     1       2.055   9.916  20.022  0.00  0.00    +0.000 HD
ENDROOT
BRANCH   7  12
ATOM     12  C   UNL     1      -2.562  12.283  22.161  0.00  0.00    +0.000 A 
ATOM     13  C   UNL     1      -3.669  12.732  21.433  0.00  0.00    +0.000 A 
ATOM     14  C   UNL     1      -4.862  12.958  22.100  0.00  0.00    +0.000 A 
ATOM     15  N   UNL     1      -5.026  12.775  23.426  0.00  0.00    +0.000 NA
ATOM     16  C   UNL     1      -3.948  12.351  24.114  0.00  0.00    +0.000 A 
ATOM     17  C   UNL     1      -2.711  12.095  23.539  0.00  0.00    +0.000 A 
ENDBRANCH   7  12
BRANCH   1  18
ATOM     18  C   UNL     1       1.682   6.146  20.686  0.00  0.00    +0.000 C 
BRANCH  18  23
ATOM     19  C   UNL     1       4.541   4.419  18.846  0.00  0.00    +0.000 A 
ATOM     20  C   UNL     1       3.844   3.753  17.836  0.00  0.00    +0.000 A 
ATOM     21  C   UNL     1       2.458   3.874  17.732  0.00  0.00    +0.000 A 
ATOM     22  C   UNL     1       1.760   4.666  18.642  0.00  0.00    +0.000 A 
ATOM     23  C   UNL     1       2.443   5.344  19.663  0.00  0.00    +0.000 A 
ATOM     24  C   UNL     1       3.837   5.211  19.756  0.00  0.00    +0.000 A 
BRANCH  19  25
ATOM     25  O   UNL     1       5.895   4.215  18.845  0.00  0.00    +0.000 OA
BRANCH  25  26
ATOM     26  C   UNL     1       6.678   5.158  18.113  0.00  0.00    +0.000 C 
BRANCH  26  27
ATOM     27  C   UNL     1       7.867   5.593  18.961  0.00  0.00    +0.000 C 
BRANCH  27  29
ATOM     28  C   UNL     1       7.524   7.429  17.523  0.00  0.00    +0.000 C 
ATOM     29  O   UNL     1       8.097   6.985  18.746  0.00  0.00    +0.000 OA
ENDBRANCH  27  29
ENDBRANCH  26  27
ENDBRANCH  25  26
ENDBRANCH  19  25
ENDBRANCH  18  23
ENDBRANCH   1  18
TORSDOF 7
ENDMDL
MODEL 9
REMARK VINA RESULT:      -7.2      1.389      1.756
REMARK  Name = 
REMARK  8 active torsions:
REMARK  status: ('A' for Active; 'I' for Inactive)
REMARK    1  A    between atoms: C_1  and  O_2
REMARK    2  A    between atoms: O_2  and  C_3
REMARK    3  A    between atoms: C_3  and  C_4
REMARK    4  A    between atoms: C_4  and  O_5
REMARK    5  A    between atoms: O_5  and  C_6
REMARK    6  A    between atoms: C_10  and  C_11
REMARK    7  A    between atoms: C_11  and  N_12
REMARK    8  A    between atoms: C_18  and  C_19
REMARK                            x       y       z     vdW  Elec       q    Type
REMARK                         _______ _______ _______ _____ _____    ______ ____
ROOT
ATOM      1  N   UNL     1       0.649   9.663  19.406  0.00  0.00    +0.000 N 
ATOM      2  C   UNL     1       1.632   8.823  18.919  0.00  0.00    +0.000 C 
ATOM      3  O   UNL     1       2.213   9.054  17.867  0.00  0.00    +0.000 OA
ATOM      4  N   UNL     1       1.787   7.723  19.723  0.00  0.00    +0.000 N 
ATOM      5  C   UNL     1       2.645   6.715  19.382  0.00  0.00    +0.000 A 
ATOM      6  N   UNL     1       3.604   6.714  18.496  0.00  0.00    +0.000 NA
ATOM      7  C   UNL     1       4.186   5.458  18.418  0.00  0.00    +0.000 A 
ATOM      8  C   UNL     1       3.639   4.529  19.285  0.00  0.00    +0.000 A 
ATOM      9  S   UNL     1       2.404   5.259  20.235  0.00  0.00    +0.000 S 
ATOM     10  H   UNL     1       0.588   9.744  20.410  0.00  0.00    +0.000 HD
ATOM     11  H   UNL     1       1.080   7.513  20.407  0.00  0.00    +0.000 HD
ENDROOT
BRANCH   7  12
ATOM     12  C   UNL     1       5.279   5.210  17.481  0.00  0.00    +0.000 A 
ATOM     13  C   UNL     1       6.518   4.785  17.975  0.00  0.00    +0.000 A 
ATOM     14  C   UNL     1       7.546   4.539  17.080  0.00  0.00    +0.000 A 
ATOM     15  N   UNL     1       7.430   4.687  15.745  0.00  0.00    +0.000 NA
ATOM     16  C   UNL     1       6.233   5.104  15.287  0.00  0.00    +0.000 A 
ATOM     17  C   UNL     1       5.142   5.377  16.100  0.00  0.00    +0.000 A 
ENDBRANCH   7  12
BRANCH   1  18
ATOM     18  C   UNL     1       0.305  10.845  18.649  0.00  0.00    +0.000 C 
BRANCH  18  23
ATOM     19  C   UNL     1      -3.135  12.236  19.525  0.00  0.00    +0.000 A 
ATOM     20  C   UNL     1      -3.926  11.626  18.549  0.00  0.00    +0.000 A 
ATOM     21  C   UNL     1      -3.359  10.751  17.622  0.00  0.00    +0.000 A 
ATOM     22  C   UNL     1      -1.992  10.482  17.667  0.00  0.00    +0.000 A 
ATOM     23  C   UNL     1      -1.181  11.084  18.641  0.00  0.00    +0.000 A 
ATOM     24  C   UNL     1      -1.766  11.963  19.566  0.00  0.00    +0.000 A 
BRANCH  19  25
ATOM     25  O   UNL     1      -3.808  13.077  20.370  0.00  0.00    +0.000 OA
BRANCH  25  26
ATOM     26  C   UNL     1      -5.033  12.585  20.912  0.00  0.00    +0.000 C 
BRANCH  26  27
ATOM     27  C   UNL     1      -5.138  12.993  22.376  0.00  0.00    +0.000 C 
BRANCH  27  29
ATOM     28  C   UNL     1      -4.276  12.521  24.519  0.00  0.00    +0.000 C 
ATOM     29  O   UNL     1      -4.169  12.261  23.125  0.00  0.00    +0.000 OA
ENDBRANCH  27  29
ENDBRANCH  26  27
ENDBRANCH  25  26
ENDBRANCH  19  25
ENDBRANCH  18  23
ENDBRANCH   1  18
TORSDOF 7
ENDMDL
