MODEL 1
REMARK VINA RESULT:      -8.8      0.000      0.000
REMARK  Name = 
REMARK  2 active torsions:
REMARK  status: ('A' for Active; 'I' for Inactive)
REMARK    1  A    between atoms: C_7  and  N_8
REMARK    2  A    between atoms: N_8  and  C_9
REMARK                            x       y       z     vdW  Elec       q    Type
REMARK                         _______ _______ _______ _____ _____    ______ ____
ROOT
ATOM      1  C   UNL     1       3.102   5.787  18.803  0.00  0.00    +0.000 A 
ATOM      2  C   UNL     1       2.501   4.612  19.356  0.00  0.00    +0.000 A 
ATOM      3  C   UNL     1       1.597   4.590  20.457  0.00  0.00    +0.000 A 
ATOM      4  C   UNL     1       1.169   3.399  21.034  0.00  0.00    +0.000 A 
ATOM      5  C   UNL     1       1.562   2.197  20.474  0.00  0.00    +0.000 A 
ATOM      6  C   UNL     1       2.355   2.204  19.324  0.00  0.00    +0.000 A 
ATOM      7  C   UNL     1       2.824   3.383  18.757  0.00  0.00    +0.000 A 
ATOM      8  N   UNL     1       3.590   3.281  17.665  0.00  0.00    +0.000 NA
ATOM      9  C   UNL     1       4.122   4.384  17.123  0.00  0.00    +0.000 A 
ATOM     10  C   UNL     1       4.925   4.212  16.001  0.00  0.00    +0.000 A 
ATOM     11  C   UNL     1       5.580   5.279  15.390  0.00  0.00    +0.000 A 
ATOM     12  C   UNL     1       5.432   6.556  15.910  0.00  0.00    +0.000 A 
ATOM     13  C   UNL     1       4.622   6.752  17.032  0.00  0.00    +0.000 A 
ATOM     14  C   UNL     1       3.941   5.674  17.654  0.00  0.00    +0.000 A 
ENDROOT
BRANCH   1  15
ATOM     15  N   UNL     1       2.974   7.051  19.447  0.00  0.00    +0.000 N 
ATOM     16  H   UNL     1       3.625   7.228  20.207  0.00  0.00    +0.000 HD
BRANCH  15  23
ATOM     17  F   UNL     1       1.467   7.879  21.623  0.00  0.00    +0.000 F 
ATOM     18  C   UNL     1       1.269   8.483  20.440  0.00  0.00    +0.000 A 
ATOM     19  C   UNL     1       0.386   9.561  20.379  0.00  0.00    +0.000 A 
ATOM     20  C   UNL     1       0.201  10.234  19.173  0.00  0.00    +0.000 A 
ATOM     21  C   UNL     1       0.889   9.816  18.036  0.00  0.00    +0.000 A 
ATOM     22  C   UNL     1       1.762   8.726  18.106  0.00  0.00    +0.000 A 
ATOM     23  C   UNL     1       1.980   8.046  19.312  0.00  0.00    +0.000 A 
ENDBRANCH  15  23
ENDBRANCH   1  15
TORSDOF 2
ENDMDL
MODEL 2
REMARK VINA RESULT:      -8.8      3.770      6.280
REMARK  Name = 
REMARK  2 active torsions:
REMARK  status: ('A' for Active; 'I' for Inactive)
REMARK    1  A    between atoms: C_7  and  N_8
REMARK    2  A    between atoms: N_8  and  C_9
REMARK                            x       y       z     vdW  Elec       q    Type
REMARK                         _______ _______ _______ _____ _____    ______ ____
ROOT
ATOM      1  C   UNL     1       5.633   3.889  16.209  0.00  0.00    +0.000 A 
ATOM      2  C   UNL     1       5.983   4.033  14.828  0.00  0.00    +0.000 A 
ATOM      3  C   UNL     1       5.391   3.314  13.750  0.00  0.00    +0.000 A 
ATOM      4  C   UNL     1       5.884   3.396  12.452  0.00  0.00    +0.000 A 
ATOM      5  C   UNL     1       6.925   4.264  12.178  0.00  0.00    +0.000 A 
ATOM      6  C   UNL     1       7.440   5.061  13.203  0.00  0.00    +0.000 A 
ATOM      7  C   UNL     1       6.987   4.964  14.514  0.00  0.00    +0.000 A 
ATOM      8  N   UNL     1       7.556   5.761  15.425  0.00  0.00    +0.000 NA
ATOM      9  C   UNL     1       7.201   5.655  16.713  0.00  0.00    +0.000 A 
ATOM     10  C   UNL     1       7.842   6.497  17.615  0.00  0.00    +0.000 A 
ATOM     11  C   UNL     1       7.599   6.434  18.985  0.00  0.00    +0.000 A 
ATOM     12  C   UNL     1       6.691   5.507  19.473  0.00  0.00    +0.000 A 
ATOM     13  C   UNL     1       6.029   4.657  18.582  0.00  0.00    +0.000 A 
ATOM     14  C   UNL     1       6.260   4.721  17.183  0.00  0.00    +0.000 A 
ENDROOT
BRANCH   1  15
ATOM     15  N   UNL     1       4.757   2.853  16.641  0.00  0.00    +0.000 N 
ATOM     16  H   UNL     1       4.999   1.914  16.337  0.00  0.00    +0.000 HD
BRANCH  15  23
ATOM     17  F   UNL     1       3.914   0.851  18.365  0.00  0.00    +0.000 F 
ATOM     18  C   UNL     1       3.129   1.929  18.202  0.00  0.00    +0.000 A 
ATOM     19  C   UNL     1       1.974   2.037  18.976  0.00  0.00    +0.000 A 
ATOM     20  C   UNL     1       1.169   3.169  18.859  0.00  0.00    +0.000 A 
ATOM     21  C   UNL     1       1.518   4.175  17.961  0.00  0.00    +0.000 A 
ATOM     22  C   UNL     1       2.671   4.049  17.181  0.00  0.00    +0.000 A 
ATOM     23  C   UNL     1       3.507   2.930  17.295  0.00  0.00    +0.000 A 
ENDBRANCH  15  23
ENDBRANCH   1  15
TORSDOF 2
ENDMDL
MODEL 3
REMARK VINA RESULT:      -8.8      0.528      3.863
REMARK  Name = 
REMARK  2 active torsions:
REMARK  status: ('A' for Active; 'I' for Inactive)
REMARK    1  A    between atoms: C_7  and  N_8
REMARK    2  A    between atoms: N_8  and  C_9
REMARK                            x       y       z     vdW  Elec       q    Type
REMARK                         _______ _______ _______ _____ _____    ______ ____
ROOT
ATOM      1  C   UNL     1       3.268   5.582  18.825  0.00  0.00    +0.000 A 
ATOM      2  C   UNL     1       4.217   5.533  17.755  0.00  0.00    +0.000 A 
ATOM      3  C   UNL     1       5.143   6.566  17.429  0.00  0.00    +0.000 A 
ATOM      4  C   UNL     1       5.933   6.512  16.285  0.00  0.00    +0.000 A 
ATOM      5  C   UNL     1       5.884   5.387  15.482  0.00  0.00    +0.000 A 
ATOM      6  C   UNL     1       5.066   4.318  15.852  0.00  0.00    +0.000 A 
ATOM      7  C   UNL     1       4.241   4.369  16.969  0.00  0.00    +0.000 A 
ATOM      8  N   UNL     1       3.484   3.297  17.228  0.00  0.00    +0.000 NA
ATOM      9  C   UNL     1       2.622   3.325  18.253  0.00  0.00    +0.000 A 
ATOM     10  C   UNL     1       1.849   2.188  18.460  0.00  0.00    +0.000 A 
ATOM     11  C   UNL     1       0.878   2.126  19.457  0.00  0.00    +0.000 A 
ATOM     12  C   UNL     1       0.669   3.227  20.273  0.00  0.00    +0.000 A 
ATOM     13  C   UNL     1       1.441   4.378  20.088  0.00  0.00    +0.000 A 
ATOM     14  C   UNL     1       2.442   4.447  19.084  0.00  0.00    +0.000 A 
ENDROOT
BRANCH   1  15
ATOM     15  N   UNL     1       3.051   6.781  19.561  0.00  0.00    +0.000 N 
ATOM     16  H   UNL     1       3.537   6.847  20.451  0.00  0.00    +0.000 HD
BRANCH  15  23
ATOM     17  F   UNL     1       1.443   7.748  21.603  0.00  0.00    +0.000 F 
ATOM     18  C   UNL     1       1.376   8.341  20.400  0.00  0.00    +0.000 A 
ATOM     19  C   UNL     1       0.574   9.473  20.256  0.00  0.00    +0.000 A 
ATOM     20  C   UNL     1       0.526  10.133  19.029  0.00  0.00    +0.000 A 
ATOM     21  C   UNL     1       1.269   9.649  17.955  0.00  0.00    +0.000 A 
ATOM     22  C   UNL     1       2.059   8.506  18.107  0.00  0.00    +0.000 A 
ATOM     23  C   UNL     1       2.139   7.836  19.336  0.00  0.00    +0.000 A 
ENDBRANCH  15  23
ENDBRANCH   1  15
TORSDOF 2
ENDMDL
MODEL 4
REMARK VINA RESULT:      -8.5      1.658      1.982
REMARK  Name = 
REMARK  2 active torsions:
REMARK  status: ('A' for Active; 'I' for Inactive)
REMARK    1  A    between atoms: C_7  and  N_8
REMARK    2  A    between atoms: N_8  and  C_9
REMARK                            x       y       z     vdW  Elec       q    Type
REMARK                         _______ _______ _______ _____ _____    ______ ____
ROOT
ATOM      1  C   UNL     1       3.218   5.743  18.616  0.00  0.00    +0.000 A 
ATOM      2  C   UNL     1       2.778   4.614  19.378  0.00  0.00    +0.000 A 
ATOM      3  C   UNL     1       1.436   4.368  19.786  0.00  0.00    +0.000 A 
ATOM      4  C   UNL     1       1.107   3.329  20.651  0.00  0.00    +0.000 A 
ATOM      5  C   UNL     1       2.096   2.455  21.064  0.00  0.00    +0.000 A 
ATOM      6  C   UNL     1       3.396   2.616  20.581  0.00  0.00    +0.000 A 
ATOM      7  C   UNL     1       3.752   3.670  19.748  0.00  0.00    +0.000 A 
ATOM      8  N   UNL     1       5.027   3.743  19.353  0.00  0.00    +0.000 NA
ATOM      9  C   UNL     1       5.432   4.779  18.606  0.00  0.00    +0.000 A 
ATOM     10  C   UNL     1       6.774   4.809  18.243  0.00  0.00    +0.000 A 
ATOM     11  C   UNL     1       7.321   5.867  17.520  0.00  0.00    +0.000 A 
ATOM     12  C   UNL     1       6.508   6.926  17.145  0.00  0.00    +0.000 A 
ATOM     13  C   UNL     1       5.154   6.912  17.492  0.00  0.00    +0.000 A 
ATOM     14  C   UNL     1       4.585   5.833  18.218  0.00  0.00    +0.000 A 
ENDROOT
BRANCH   1  15
ATOM     15  N   UNL     1       2.343   6.833  18.347  0.00  0.00    +0.000 N 
ATOM     16  H   UNL     1       2.056   6.941  17.378  0.00  0.00    +0.000 HD
BRANCH  15  23
ATOM     17  F   UNL     1       1.742   9.329  17.296  0.00  0.00    +0.000 F 
ATOM     18  C   UNL     1       1.580   9.133  18.615  0.00  0.00    +0.000 A 
ATOM     19  C   UNL     1       1.030  10.161  19.380  0.00  0.00    +0.000 A 
ATOM     20  C   UNL     1       0.809   9.964  20.742  0.00  0.00    +0.000 A 
ATOM     21  C   UNL     1       1.151   8.749  21.329  0.00  0.00    +0.000 A 
ATOM     22  C   UNL     1       1.714   7.730  20.555  0.00  0.00    +0.000 A 
ATOM     23  C   UNL     1       1.929   7.897  19.180  0.00  0.00    +0.000 A 
ENDBRANCH  15  23
ENDBRANCH   1  15
TORSDOF 2
ENDMDL
MODEL 5
REMARK VINA RESULT:      -8.4      1.083      1.488
REMARK  Name = 
REMARK  2 active torsions:
REMARK  status: ('A' for Active; 'I' for Inactive)
REMARK    1  A    between atoms: C_7  and  N_8
REMARK    2  A    between atoms: N_8  and  C_9
REMARK                            x       y       z     vdW  Elec       q    Type
REMARK                         _______ _______ _______ _____ _____    ______ ____
ROOT
ATOM      1  C   UNL     1       3.127   5.708  18.729  0.00  0.00    +0.000 A 
ATOM      2  C   UNL     1       2.317   4.563  19.014  0.00  0.00    +0.000 A 
ATOM      3  C   UNL     1       1.304   4.499  20.014  0.00  0.00    +0.000 A 
ATOM      4  C   UNL     1       0.660   3.309  20.335  0.00  0.00    +0.000 A 
ATOM      5  C   UNL     1       0.948   2.167  19.609  0.00  0.00    +0.000 A 
ATOM      6  C   UNL     1       1.855   2.241  18.550  0.00  0.00    +0.000 A 
ATOM      7  C   UNL     1       2.537   3.411  18.239  0.00  0.00    +0.000 A 
ATOM      8  N   UNL     1       3.396   3.373  17.215  0.00  0.00    +0.000 NA
ATOM      9  C   UNL     1       4.127   4.456  16.921  0.00  0.00    +0.000 A 
ATOM     10  C   UNL     1       5.017   4.348  15.859  0.00  0.00    +0.000 A 
ATOM     11  C   UNL     1       5.871   5.389  15.501  0.00  0.00    +0.000 A 
ATOM     12  C   UNL     1       5.839   6.574  16.221  0.00  0.00    +0.000 A 
ATOM     13  C   UNL     1       4.945   6.706  17.288  0.00  0.00    +0.000 A 
ATOM     14  C   UNL     1       4.062   5.657  17.653  0.00  0.00    +0.000 A 
ENDROOT
BRANCH   1  15
ATOM     15  N   UNL     1       3.098   6.856  19.570  0.00  0.00    +0.000 N 
ATOM     16  H   UNL     1       3.797   6.881  20.308  0.00  0.00    +0.000 HD
BRANCH  15  23
ATOM     17  F   UNL     1       2.531   8.456  17.378  0.00  0.00    +0.000 F 
ATOM     18  C   UNL     1       1.846   8.661  18.514  0.00  0.00    +0.000 A 
ATOM     19  C   UNL     1       0.817   9.603  18.515  0.00  0.00    +0.000 A 
ATOM     20  C   UNL     1       0.062   9.799  19.669  0.00  0.00    +0.000 A 
ATOM     21  C   UNL     1       0.349   9.063  20.816  0.00  0.00    +0.000 A 
ATOM     22  C   UNL     1       1.391   8.131  20.809  0.00  0.00    +0.000 A 
ATOM     23  C   UNL     1       2.152   7.902  19.654  0.00  0.00    +0.000 A 
ENDBRANCH  15  23
ENDBRANCH   1  15
TORSDOF 2
ENDMDL
MODEL 6
REMARK VINA RESULT:      -8.3      1.171      4.113
REMARK  Name = 
REMARK  2 active torsions:
REMARK  status: ('A' for Active; 'I' for Inactive)
REMARK    1  A    between atoms: C_7  and  N_8
REMARK    2  A    between atoms: N_8  and  C_9
REMARK                            x       y       z     vdW  Elec       q    Type
REMARK                         _______ _______ _______ _____ _____    ______ ____
ROOT
ATOM      1  C   UNL     1       3.354   5.588  18.850  0.00  0.00    +0.000 A 
ATOM      2  C   UNL     1       4.304   5.512  17.782  0.00  0.00    +0.000 A 
ATOM      3  C   UNL     1       5.313   6.480  17.508  0.00  0.00    +0.000 A 
ATOM      4  C   UNL     1       6.104   6.415  16.365  0.00  0.00    +0.000 A 
ATOM      5  C   UNL     1       5.967   5.338  15.509  0.00  0.00    +0.000 A 
ATOM      6  C   UNL     1       5.062   4.323  15.825  0.00  0.00    +0.000 A 
ATOM      7  C   UNL     1       4.236   4.389  16.941  0.00  0.00    +0.000 A 
ATOM      8  N   UNL     1       3.392   3.372  17.146  0.00  0.00    +0.000 NA
ATOM      9  C   UNL     1       2.528   3.423  18.169  0.00  0.00    +0.000 A 
ATOM     10  C   UNL     1       1.663   2.345  18.319  0.00  0.00    +0.000 A 
ATOM     11  C   UNL     1       0.683   2.316  19.309  0.00  0.00    +0.000 A 
ATOM     12  C   UNL     1       0.560   3.391  20.176  0.00  0.00    +0.000 A 
ATOM     13  C   UNL     1       1.426   4.481  20.049  0.00  0.00    +0.000 A 
ATOM     14  C   UNL     1       2.436   4.515  19.052  0.00  0.00    +0.000 A 
ENDROOT
BRANCH   1  15
ATOM     15  N   UNL     1       3.232   6.765  19.643  0.00  0.00    +0.000 N 
ATOM     16  H   UNL     1       3.828   6.808  20.464  0.00  0.00    +0.000 HD
BRANCH  15  23
ATOM     17  F   UNL     1       2.824   8.153  17.277  0.00  0.00    +0.000 F 
ATOM     18  C   UNL     1       2.073   8.471  18.344  0.00  0.00    +0.000 A 
ATOM     19  C   UNL     1       1.060   9.418  18.190  0.00  0.00    +0.000 A 
ATOM     20  C   UNL     1       0.237   9.729  19.271  0.00  0.00    +0.000 A 
ATOM     21  C   UNL     1       0.443   9.103  20.498  0.00  0.00    +0.000 A 
ATOM     22  C   UNL     1       1.469   8.166  20.644  0.00  0.00    +0.000 A 
ATOM     23  C   UNL     1       2.297   7.822  19.567  0.00  0.00    +0.000 A 
ENDBRANCH  15  23
ENDBRANCH   1  15
TORSDOF 2
ENDMDL
MODEL 7
REMARK VINA RESULT:      -8.2      1.629      4.281
REMARK  Name = 
REMARK  2 active torsions:
REMARK  status: ('A' for Active; 'I' for Inactive)
REMARK    1  A    between atoms: C_7  and  N_8
REMARK    2  A    between atoms: N_8  and  C_9
REMARK                            x       y       z     vdW  Elec       q    Type
REMARK                         _______ _______ _______ _____ _____    ______ ____
ROOT
ATOM      1  C   UNL     1       3.283   5.820  18.837  0.00  0.00    +0.000 A 
ATOM      2  C   UNL     1       4.622   5.855  18.332  0.00  0.00    +0.000 A 
ATOM      3  C   UNL     1       5.200   6.935  17.606  0.00  0.00    +0.000 A 
ATOM      4  C   UNL     1       6.457   6.838  17.018  0.00  0.00    +0.000 A 
ATOM      5  C   UNL     1       7.207   5.692  17.211  0.00  0.00    +0.000 A 
ATOM      6  C   UNL     1       6.700   4.670  18.016  0.00  0.00    +0.000 A 
ATOM      7  C   UNL     1       5.431   4.733  18.580  0.00  0.00    +0.000 A 
ATOM      8  N   UNL     1       5.033   3.694  19.323  0.00  0.00    +0.000 NA
ATOM      9  C   UNL     1       3.793   3.678  19.830  0.00  0.00    +0.000 A 
ATOM     10  C   UNL     1       3.431   2.563  20.577  0.00  0.00    +0.000 A 
ATOM     11  C   UNL     1       2.150   2.408  21.101  0.00  0.00    +0.000 A 
ATOM     12  C   UNL     1       1.200   3.392  20.876  0.00  0.00    +0.000 A 
ATOM     13  C   UNL     1       1.545   4.526  20.135  0.00  0.00    +0.000 A 
ATOM     14  C   UNL     1       2.851   4.699  19.607  0.00  0.00    +0.000 A 
ENDROOT
BRANCH   1  15
ATOM     15  N   UNL     1       2.340   6.828  18.488  0.00  0.00    +0.000 N 
ATOM     16  H   UNL     1       1.999   6.802  17.532  0.00  0.00    +0.000 HD
BRANCH  15  23
ATOM     17  F   UNL     1       1.874   9.244  17.209  0.00  0.00    +0.000 F 
ATOM     18  C   UNL     1       1.635   9.161  18.527  0.00  0.00    +0.000 A 
ATOM     19  C   UNL     1       1.075  10.262  19.176  0.00  0.00    +0.000 A 
ATOM     20  C   UNL     1       0.774  10.183  20.534  0.00  0.00    +0.000 A 
ATOM     21  C   UNL     1       1.047   9.011  21.235  0.00  0.00    +0.000 A 
ATOM     22  C   UNL     1       1.620   7.918  20.578  0.00  0.00    +0.000 A 
ATOM     23  C   UNL     1       1.914   7.967  19.209  0.00  0.00    +0.000 A 
ENDBRANCH  15  23
ENDBRANCH   1  15
TORSDOF 2
ENDMDL
MODEL 8
REMARK VINA RESULT:      -8.2      3.629      5.645
REMARK  Name = 
REMARK  2 active torsions:
REMARK  status: ('A' for Active; 'I' for Inactive)
REMARK    1  A    between atoms: C_7  and  N_8
REMARK    2  A    between atoms: N_8  and  C_9
REMARK                            x       y       z     vdW  Elec       q    Type
REMARK                         _______ _______ _______ _____ _____    ______ ____
ROOT
ATOM      1  C   UNL     1       5.768   3.774  16.152  0.00  0.00    +0.000 A 
ATOM      2  C   UNL     1       6.366   4.626  17.135  0.00  0.00    +0.000 A 
ATOM      3  C   UNL     1       6.151   4.537  18.540  0.00  0.00    +0.000 A 
ATOM      4  C   UNL     1       6.649   5.491  19.422  0.00  0.00    +0.000 A 
ATOM      5  C   UNL     1       7.445   6.511  18.936  0.00  0.00    +0.000 A 
ATOM      6  C   UNL     1       7.759   6.545  17.576  0.00  0.00    +0.000 A 
ATOM      7  C   UNL     1       7.240   5.624  16.673  0.00  0.00    +0.000 A 
ATOM      8  N   UNL     1       7.590   5.753  15.389  0.00  0.00    +0.000 NA
ATOM      9  C   UNL     1       7.061   4.932  14.472  0.00  0.00    +0.000 A 
ATOM     10  C   UNL     1       7.448   5.128  13.151  0.00  0.00    +0.000 A 
ATOM     11  C   UNL     1       6.918   4.375  12.106  0.00  0.00    +0.000 A 
ATOM     12  C   UNL     1       5.975   3.397  12.383  0.00  0.00    +0.000 A 
ATOM     13  C   UNL     1       5.578   3.177  13.705  0.00  0.00    +0.000 A 
ATOM     14  C   UNL     1       6.122   3.930  14.778  0.00  0.00    +0.000 A 
ENDROOT
BRANCH   1  15
ATOM     15  N   UNL     1       4.741   2.853  16.504  0.00  0.00    +0.000 N 
ATOM     16  H   UNL     1       4.799   1.938  16.067  0.00  0.00    +0.000 HD
BRANCH  15  23
ATOM     17  F   UNL     1       3.823   0.935  18.284  0.00  0.00    +0.000 F 
ATOM     18  C   UNL     1       3.141   2.087  18.176  0.00  0.00    +0.000 A 
ATOM     19  C   UNL     1       2.059   2.307  19.029  0.00  0.00    +0.000 A 
ATOM     20  C   UNL     1       1.366   3.514  18.968  0.00  0.00    +0.000 A 
ATOM     21  C   UNL     1       1.751   4.485  18.047  0.00  0.00    +0.000 A 
ATOM     22  C   UNL     1       2.829   4.250  17.188  0.00  0.00    +0.000 A 
ATOM     23  C   UNL     1       3.553   3.051  17.244  0.00  0.00    +0.000 A 
ENDBRANCH  15  23
ENDBRANCH   1  15
TORSDOF 2
ENDMDL
MODEL 9
REMARK VINA RESULT:      -8.0      3.530      6.203
REMARK  Name = 
REMARK  2 active torsions:
REMARK  status: ('A' for Active; 'I' for Inactive)
REMARK    1  A    between atoms: C_7  and  N_8
REMARK    2  A    between atoms: N_8  and  C_9
REMARK                            x       y       z     vdW  Elec       q    Type
REMARK                         _______ _______ _______ _____ _____    ______ ____
ROOT
ATOM      1  C   UNL     1       5.668   3.915  16.264  0.00  0.00    +0.000 A 
ATOM      2  C   UNL     1       6.002   4.058  14.880  0.00  0.00    +0.000 A 
ATOM      3  C   UNL     1       5.395   3.342  13.808  0.00  0.00    +0.000 A 
ATOM      4  C   UNL     1       5.872   3.424  12.504  0.00  0.00    +0.000 A 
ATOM      5  C   UNL     1       6.914   4.288  12.219  0.00  0.00    +0.000 A 
ATOM      6  C   UNL     1       7.443   5.082  13.238  0.00  0.00    +0.000 A 
ATOM      7  C   UNL     1       7.006   4.986  14.554  0.00  0.00    +0.000 A 
ATOM      8  N   UNL     1       7.588   5.780  15.458  0.00  0.00    +0.000 NA
ATOM      9  C   UNL     1       7.249   5.675  16.750  0.00  0.00    +0.000 A 
ATOM     10  C   UNL     1       7.904   6.514  17.645  0.00  0.00    +0.000 A 
ATOM     11  C   UNL     1       7.677   6.451  19.018  0.00  0.00    +0.000 A 
ATOM     12  C   UNL     1       6.771   5.527  19.516  0.00  0.00    +0.000 A 
ATOM     13  C   UNL     1       6.096   4.680  18.633  0.00  0.00    +0.000 A 
ATOM     14  C   UNL     1       6.310   4.744  17.232  0.00  0.00    +0.000 A 
ENDROOT
BRANCH   1  15
ATOM     15  N   UNL     1       4.793   2.882  16.706  0.00  0.00    +0.000 N 
ATOM     16  H   UNL     1       4.936   1.970  16.280  0.00  0.00    +0.000 HD
BRANCH  15  23
ATOM     17  F   UNL     1       3.253   5.184  16.835  0.00  0.00    +0.000 F 
ATOM     18  C   UNL     1       2.855   4.108  17.532  0.00  0.00    +0.000 A 
ATOM     19  C   UNL     1       1.639   4.164  18.213  0.00  0.00    +0.000 A 
ATOM     20  C   UNL     1       1.183   3.044  18.904  0.00  0.00    +0.000 A 
ATOM     21  C   UNL     1       1.951   1.882  18.921  0.00  0.00    +0.000 A 
ATOM     22  C   UNL     1       3.175   1.841  18.246  0.00  0.00    +0.000 A 
ATOM     23  C   UNL     1       3.646   2.948  17.527  0.00  0.00    +0.000 A 
ENDBRANCH  15  23
ENDBRANCH   1  15
TORSDOF 2
ENDMDL
