MODEL 1
REMARK VINA RESULT:      -7.8      0.000      0.000
REMARK  Name = 
REMARK  13 active torsions:
REMARK  status: ('A' for Active; 'I' for Inactive)
REMARK    1  A    between atoms: C_1  and  C_2
REMARK    2  A    between atoms: C_2  and  C_3
REMARK    3  A    between atoms: C_3  and  C_4
REMARK    4  A    between atoms: C_5  and  C_6
REMARK    5  A    between atoms: C_6  and  O_8
REMARK    6  A    between atoms: O_8  and  C_9
REMARK    7  A    between atoms: C_10  and  O_11
REMARK    8  A    between atoms: O_11  and  C_12
REMARK    9  A    between atoms: C_18  and  O_19
REMARK   10  A    between atoms: C_23  and  C_24
REMARK   11  A    between atoms: C_23  and  O_25
REMARK   12  A    between atoms: C_28  and  C_29
REMARK   13  A    between atoms: C_28  and  C_30
REMARK                            x       y       z     vdW  Elec       q    Type
REMARK                         _______ _______ _______ _____ _____    ______ ____
ROOT
ATOM      1  C   UNL     1       0.935   8.943  19.991  0.00  0.00    +0.000 A 
ATOM      2  C   UNL     1       0.689  10.262  19.501  0.00  0.00    +0.000 A 
ATOM      3  C   UNL     1       1.409  10.753  18.398  0.00  0.00    +0.000 A 
ATOM      4  C   UNL     1       2.374   9.940  17.800  0.00  0.00    +0.000 A 
ATOM      5  C   UNL     1       2.653   8.643  18.267  0.00  0.00    +0.000 A 
ATOM      6  C   UNL     1       3.661   7.896  17.614  0.00  0.00    +0.000 A 
ATOM      7  C   UNL     1       4.067   6.616  18.036  0.00  0.00    +0.000 A 
ATOM      8  C   UNL     1       3.390   6.078  19.137  0.00  0.00    +0.000 A 
ATOM      9  C   UNL     1       2.347   6.794  19.769  0.00  0.00    +0.000 A 
ATOM     10  C   UNL     1       1.952   8.112  19.374  0.00  0.00    +0.000 A 
ATOM     11  C   UNL     1       3.736   4.725  19.646  0.00  0.00    +0.000 C 
ATOM     12  O   UNL     1       3.362   4.363  20.764  0.00  0.00    +0.000 OA
ATOM     13  C   UNL     1       4.474   3.789  18.716  0.00  0.00    +0.000 C 
ATOM     14  C   UNL     1       3.462   3.180  17.750  0.00  0.00    +0.000 C 
ATOM     15  C   UNL     1       5.599   4.572  18.023  0.00  0.00    +0.000 C 
ATOM     16  O   UNL     1       6.765   4.166  18.012  0.00  0.00    +0.000 OA
ATOM     17  C   UNL     1       5.205   5.882  17.311  0.00  0.00    +0.000 C 
ATOM     18  C   UNL     1       6.464   6.783  17.233  0.00  0.00    +0.000 C 
ATOM     19  C   UNL     1       4.810   5.518  15.866  0.00  0.00    +0.000 C 
ENDROOT
BRANCH   2  20
ATOM     20  C   UNL     1      -0.372  11.149  20.079  0.00  0.00    +0.000 C 
ATOM     21  O   UNL     1      -0.178  11.993  20.942  0.00  0.00    +0.000 OA
BRANCH  20  22
ATOM     22  O   UNL     1      -1.570  10.885  19.502  0.00  0.00    +0.000 OA
ATOM     23  C   UNL     1      -2.290  12.024  19.021  0.00  0.00    +0.000 C 
ENDBRANCH  20  22
ENDBRANCH   2  20
BRANCH   3  24
ATOM     24  O   UNL     1       1.144  12.035  17.995  0.00  0.00    +0.000 OA
ATOM     25  C   UNL     1       2.148  13.027  18.177  0.00  0.00    +0.000 C 
ENDBRANCH   3  24
BRANCH   9  26
ATOM     26  O   UNL     1       1.659   6.190  20.798  0.00  0.00    +0.000 OA
ATOM     27  H   UNL     1       1.036   5.516  20.450  0.00  0.00    +0.000 HD
ENDBRANCH   9  26
BRANCH  13  28
ATOM     28  O   UNL     1       4.988   2.694  19.481  0.00  0.00    +0.000 OA
ATOM     29  H   UNL     1       5.837   2.986  19.868  0.00  0.00    +0.000 HD
ENDBRANCH  13  28
BRANCH   1  30
ATOM     30  C   UNL     1       0.156   8.431  21.199  0.00  0.00    +0.000 C 
BRANCH  30  32
ATOM     31  C   UNL     1      -0.303   9.582  23.403  0.00  0.00    +0.000 C 
ATOM     32  C   UNL     1       0.757   8.963  22.509  0.00  0.00    +0.000 C 
ENDBRANCH  30  32
ENDBRANCH   1  30
TORSDOF 7
ENDMDL
MODEL 2
REMARK VINA RESULT:      -6.9      1.675      7.213
REMARK  Name = 
REMARK  13 active torsions:
REMARK  status: ('A' for Active; 'I' for Inactive)
REMARK    1  A    between atoms: C_1  and  C_2
REMARK    2  A    between atoms: C_2  and  C_3
REMARK    3  A    between atoms: C_3  and  C_4
REMARK    4  A    between atoms: C_5  and  C_6
REMARK    5  A    between atoms: C_6  and  O_8
REMARK    6  A    between atoms: O_8  and  C_9
REMARK    7  A    between atoms: C_10  and  O_11
REMARK    8  A    between atoms: O_11  and  C_12
REMARK    9  A    between atoms: C_18  and  O_19
REMARK   10  A    between atoms: C_23  and  C_24
REMARK   11  A    between atoms: C_23  and  O_25
REMARK   12  A    between atoms: C_28  and  C_29
REMARK   13  A    between atoms: C_28  and  C_30
REMARK                            x       y       z     vdW  Elec       q    Type
REMARK                         _______ _______ _______ _____ _____    ______ ____
ROOT
ATOM      1  C   UNL     1       2.872   5.912  19.720  0.00  0.00    +0.000 A 
ATOM      2  C   UNL     1       3.670   5.412  18.645  0.00  0.00    +0.000 A 
ATOM      3  C   UNL     1       3.822   6.164  17.468  0.00  0.00    +0.000 A 
ATOM      4  C   UNL     1       3.172   7.395  17.358  0.00  0.00    +0.000 A 
ATOM      5  C   UNL     1       2.365   7.908  18.389  0.00  0.00    +0.000 A 
ATOM      6  C   UNL     1       1.727   9.154  18.186  0.00  0.00    +0.000 A 
ATOM      7  C   UNL     1       0.849   9.732  19.121  0.00  0.00    +0.000 A 
ATOM      8  C   UNL     1       0.651   9.023  20.312  0.00  0.00    +0.000 A 
ATOM      9  C   UNL     1       1.320   7.800  20.549  0.00  0.00    +0.000 A 
ATOM     10  C   UNL     1       2.186   7.183  19.590  0.00  0.00    +0.000 A 
ATOM     11  C   UNL     1      -0.246   9.561  21.368  0.00  0.00    +0.000 C 
ATOM     12  O   UNL     1      -0.650   8.831  22.277  0.00  0.00    +0.000 OA
ATOM     13  C   UNL     1      -0.566  11.038  21.339  0.00  0.00    +0.000 C 
ATOM     14  C   UNL     1       0.616  11.793  21.941  0.00  0.00    +0.000 C 
ATOM     15  C   UNL     1      -0.887  11.442  19.892  0.00  0.00    +0.000 C 
ATOM     16  O   UNL     1      -1.914  12.060  19.601  0.00  0.00    +0.000 OA
ATOM     17  C   UNL     1       0.149  11.064  18.813  0.00  0.00    +0.000 C 
ATOM     18  C   UNL     1      -0.584  10.986  17.450  0.00  0.00    +0.000 C 
ATOM     19  C   UNL     1       1.161  12.224  18.723  0.00  0.00    +0.000 C 
ENDROOT
BRANCH   2  20
ATOM     20  C   UNL     1       4.426   4.121  18.739  0.00  0.00    +0.000 C 
ATOM     21  O   UNL     1       5.537   4.001  19.238  0.00  0.00    +0.000 OA
BRANCH  20  22
ATOM     22  O   UNL     1       3.699   3.111  18.202  0.00  0.00    +0.000 OA
ATOM     23  C   UNL     1       3.813   1.847  18.863  0.00  0.00    +0.000 C 
ENDBRANCH  20  22
ENDBRANCH   2  20
BRANCH   3  24
ATOM     24  O   UNL     1       4.579   5.616  16.465  0.00  0.00    +0.000 OA
ATOM     25  C   UNL     1       5.278   6.488  15.585  0.00  0.00    +0.000 C 
ENDBRANCH   3  24
BRANCH   9  26
ATOM     26  O   UNL     1       1.155   7.180  21.768  0.00  0.00    +0.000 OA
ATOM     27  H   UNL     1       0.732   7.789  22.412  0.00  0.00    +0.000 HD
ENDBRANCH   9  26
BRANCH  13  28
ATOM     28  O   UNL     1      -1.670  11.286  22.212  0.00  0.00    +0.000 OA
ATOM     29  H   UNL     1      -1.851  12.246  22.184  0.00  0.00    +0.000 HD
ENDBRANCH  13  28
BRANCH   1  30
ATOM     30  C   UNL     1       2.704   5.076  20.985  0.00  0.00    +0.000 C 
BRANCH  30  32
ATOM     31  C   UNL     1       1.748   2.843  21.687  0.00  0.00    +0.000 C 
ATOM     32  C   UNL     1       1.537   4.087  20.843  0.00  0.00    +0.000 C 
ENDBRANCH  30  32
ENDBRANCH   1  30
TORSDOF 7
ENDMDL
MODEL 3
REMARK VINA RESULT:      -6.9      1.528      7.870
REMARK  Name = 
REMARK  13 active torsions:
REMARK  status: ('A' for Active; 'I' for Inactive)
REMARK    1  A    between atoms: C_1  and  C_2
REMARK    2  A    between atoms: C_2  and  C_3
REMARK    3  A    between atoms: C_3  and  C_4
REMARK    4  A    between atoms: C_5  and  C_6
REMARK    5  A    between atoms: C_6  and  O_8
REMARK    6  A    between atoms: O_8  and  C_9
REMARK    7  A    between atoms: C_10  and  O_11
REMARK    8  A    between atoms: O_11  and  C_12
REMARK    9  A    between atoms: C_18  and  O_19
REMARK   10  A    between atoms: C_23  and  C_24
REMARK   11  A    between atoms: C_23  and  O_25
REMARK   12  A    between atoms: C_28  and  C_29
REMARK   13  A    between atoms: C_28  and  C_30
REMARK                            x       y       z     vdW  Elec       q    Type
REMARK                         _______ _______ _______ _____ _____    ______ ____
ROOT
ATOM      1  C   UNL     1       3.461   5.846  18.432  0.00  0.00    +0.000 A 
ATOM      2  C   UNL     1       3.598   4.616  19.145  0.00  0.00    +0.000 A 
ATOM      3  C   UNL     1       2.917   4.421  20.358  0.00  0.00    +0.000 A 
ATOM      4  C   UNL     1       2.119   5.451  20.863  0.00  0.00    +0.000 A 
ATOM      5  C   UNL     1       1.976   6.680  20.196  0.00  0.00    +0.000 A 
ATOM      6  C   UNL     1       1.164   7.675  20.788  0.00  0.00    +0.000 A 
ATOM      7  C   UNL     1       1.000   8.962  20.243  0.00  0.00    +0.000 A 
ATOM      8  C   UNL     1       1.662   9.217  19.036  0.00  0.00    +0.000 A 
ATOM      9  C   UNL     1       2.438   8.216  18.408  0.00  0.00    +0.000 A 
ATOM     10  C   UNL     1       2.644   6.916  18.972  0.00  0.00    +0.000 A 
ATOM     11  C   UNL     1       1.537  10.542  18.374  0.00  0.00    +0.000 C 
ATOM     12  O   UNL     1       2.325  10.874  17.486  0.00  0.00    +0.000 OA
ATOM     13  C   UNL     1       0.366  11.417  18.761  0.00  0.00    +0.000 C 
ATOM     14  C   UNL     1      -0.870  10.915  18.019  0.00  0.00    +0.000 C 
ATOM     15  C   UNL     1       0.222  11.395  20.290  0.00  0.00    +0.000 C 
ATOM     16  O   UNL     1       0.149  12.434  20.953  0.00  0.00    +0.000 OA
ATOM     17  C   UNL     1       0.144  10.012  20.967  0.00  0.00    +0.000 C 
ATOM     18  C   UNL     1       0.611  10.169  22.436  0.00  0.00    +0.000 C 
ATOM     19  C   UNL     1      -1.342   9.601  21.000  0.00  0.00    +0.000 C 
ENDROOT
BRANCH   2  20
ATOM     20  C   UNL     1       4.402   3.466  18.615  0.00  0.00    +0.000 C 
ATOM     21  O   UNL     1       5.581   3.267  18.871  0.00  0.00    +0.000 OA
BRANCH  20  22
ATOM     22  O   UNL     1       3.632   2.681  17.822  0.00  0.00    +0.000 OA
ATOM     23  C   UNL     1       3.483   1.324  18.252  0.00  0.00    +0.000 C 
ENDBRANCH  20  22
ENDBRANCH   2  20
BRANCH   3  24
ATOM     24  O   UNL     1       3.112   3.229  21.005  0.00  0.00    +0.000 OA
ATOM     25  C   UNL     1       1.993   2.587  21.604  0.00  0.00    +0.000 C 
ENDBRANCH   3  24
BRANCH   9  26
ATOM     26  O   UNL     1       3.006   8.490  17.183  0.00  0.00    +0.000 OA
ATOM     27  H   UNL     1       3.841   8.994  17.294  0.00  0.00    +0.000 HD
ENDBRANCH   9  26
BRANCH  13  28
ATOM     28  O   UNL     1       0.601  12.740  18.273  0.00  0.00    +0.000 OA
ATOM     29  H   UNL     1      -0.265  13.191  18.233  0.00  0.00    +0.000 HD
ENDBRANCH  13  28
BRANCH   1  30
ATOM     30  C   UNL     1       4.219   6.047  17.123  0.00  0.00    +0.000 C 
BRANCH  30  32
ATOM     31  C   UNL     1       6.669   5.763  16.564  0.00  0.00    +0.000 C 
ATOM     32  C   UNL     1       5.652   6.536  17.385  0.00  0.00    +0.000 C 
ENDBRANCH  30  32
ENDBRANCH   1  30
TORSDOF 7
ENDMDL
MODEL 4
REMARK VINA RESULT:      -6.6      1.787      7.919
REMARK  Name = 
REMARK  13 active torsions:
REMARK  status: ('A' for Active; 'I' for Inactive)
REMARK    1  A    between atoms: C_1  and  C_2
REMARK    2  A    between atoms: C_2  and  C_3
REMARK    3  A    between atoms: C_3  and  C_4
REMARK    4  A    between atoms: C_5  and  C_6
REMARK    5  A    between atoms: C_6  and  O_8
REMARK    6  A    between atoms: O_8  and  C_9
REMARK    7  A    between atoms: C_10  and  O_11
REMARK    8  A    between atoms: O_11  and  C_12
REMARK    9  A    between atoms: C_18  and  O_19
REMARK   10  A    between atoms: C_23  and  C_24
REMARK   11  A    between atoms: C_23  and  O_25
REMARK   12  A    between atoms: C_28  and  C_29
REMARK   13  A    between atoms: C_28  and  C_30
REMARK                            x       y       z     vdW  Elec       q    Type
REMARK                         _______ _______ _______ _____ _____    ______ ____
ROOT
ATOM      1  C   UNL     1       3.177   5.060  18.668  0.00  0.00    +0.000 A 
ATOM      2  C   UNL     1       3.187   3.869  19.458  0.00  0.00    +0.000 A 
ATOM      3  C   UNL     1       2.537   3.840  20.704  0.00  0.00    +0.000 A 
ATOM      4  C   UNL     1       1.897   4.994  21.163  0.00  0.00    +0.000 A 
ATOM      5  C   UNL     1       1.882   6.187  20.419  0.00  0.00    +0.000 A 
ATOM      6  C   UNL     1       1.227   7.313  20.969  0.00  0.00    +0.000 A 
ATOM      7  C   UNL     1       1.205   8.574  20.343  0.00  0.00    +0.000 A 
ATOM      8  C   UNL     1       1.844   8.665  19.101  0.00  0.00    +0.000 A 
ATOM      9  C   UNL     1       2.461   7.535  18.517  0.00  0.00    +0.000 A 
ATOM     10  C   UNL     1       2.524   6.258  19.161  0.00  0.00    +0.000 A 
ATOM     11  C   UNL     1       1.860   9.950  18.354  0.00  0.00    +0.000 C 
ATOM     12  O   UNL     1       2.646  10.121  17.420  0.00  0.00    +0.000 OA
ATOM     13  C   UNL     1       0.825  10.991  18.719  0.00  0.00    +0.000 C 
ATOM     14  C   UNL     1      -0.493  10.606  18.054  0.00  0.00    +0.000 C 
ATOM     15  C   UNL     1       0.742  11.085  20.250  0.00  0.00    +0.000 C 
ATOM     16  O   UNL     1       0.828  12.164  20.842  0.00  0.00    +0.000 OA
ATOM     17  C   UNL     1       0.518   9.768  21.021  0.00  0.00    +0.000 C 
ATOM     18  C   UNL     1       1.061   9.957  22.461  0.00  0.00    +0.000 C 
ATOM     19  C   UNL     1      -1.005   9.555  21.131  0.00  0.00    +0.000 C 
ENDROOT
BRANCH   2  20
ATOM     20  C   UNL     1       3.817   2.595  18.982  0.00  0.00    +0.000 C 
ATOM     21  O   UNL     1       3.300   1.816  18.194  0.00  0.00    +0.000 OA
BRANCH  20  22
ATOM     22  O   UNL     1       5.041   2.438  19.545  0.00  0.00    +0.000 OA
ATOM     23  C   UNL     1       5.158   1.364  20.484  0.00  0.00    +0.000 C 
ENDBRANCH  20  22
ENDBRANCH   2  20
BRANCH   3  24
ATOM     24  O   UNL     1       2.607   2.676  21.423  0.00  0.00    +0.000 OA
ATOM     25  C   UNL     1       1.439   2.218  22.093  0.00  0.00    +0.000 C 
ENDBRANCH   3  24
BRANCH   9  26
ATOM     26  O   UNL     1       3.008   7.655  17.259  0.00  0.00    +0.000 OA
ATOM     27  H   UNL     1       2.303   7.701  16.577  0.00  0.00    +0.000 HD
ENDBRANCH   9  26
BRANCH  13  28
ATOM     28  O   UNL     1       1.205  12.240  18.134  0.00  0.00    +0.000 OA
ATOM     29  H   UNL     1       2.145  12.163  17.877  0.00  0.00    +0.000 HD
ENDBRANCH  13  28
BRANCH   1  30
ATOM     30  C   UNL     1       3.900   5.078  17.325  0.00  0.00    +0.000 C 
BRANCH  30  32
ATOM     31  C   UNL     1       6.256   4.430  16.672  0.00  0.00    +0.000 C 
ATOM     32  C   UNL     1       5.399   5.363  17.509  0.00  0.00    +0.000 C 
ENDBRANCH  30  32
ENDBRANCH   1  30
TORSDOF 7
ENDMDL
MODEL 5
REMARK VINA RESULT:      -6.4      4.003     10.345
REMARK  Name = 
REMARK  13 active torsions:
REMARK  status: ('A' for Active; 'I' for Inactive)
REMARK    1  A    between atoms: C_1  and  C_2
REMARK    2  A    between atoms: C_2  and  C_3
REMARK    3  A    between atoms: C_3  and  C_4
REMARK    4  A    between atoms: C_5  and  C_6
REMARK    5  A    between atoms: C_6  and  O_8
REMARK    6  A    between atoms: O_8  and  C_9
REMARK    7  A    between atoms: C_10  and  O_11
REMARK    8  A    between atoms: O_11  and  C_12
REMARK    9  A    between atoms: C_18  and  O_19
REMARK   10  A    between atoms: C_23  and  C_24
REMARK   11  A    between atoms: C_23  and  O_25
REMARK   12  A    between atoms: C_28  and  C_29
REMARK   13  A    between atoms: C_28  and  C_30
REMARK                            x       y       z     vdW  Elec       q    Type
REMARK                         _______ _______ _______ _____ _____    ______ ____
ROOT
ATOM      1  C   UNL     1      -1.282  11.587  19.468  0.00  0.00    +0.000 A 
ATOM      2  C   UNL     1      -0.024  11.077  19.915  0.00  0.00    +0.000 A 
ATOM      3  C   UNL     1       0.267  11.012  21.288  0.00  0.00    +0.000 A 
ATOM      4  C   UNL     1      -0.683  11.465  22.206  0.00  0.00    +0.000 A 
ATOM      5  C   UNL     1      -1.924  11.988  21.800  0.00  0.00    +0.000 A 
ATOM      6  C   UNL     1      -2.819  12.443  22.797  0.00  0.00    +0.000 A 
ATOM      7  C   UNL     1      -4.058  13.042  22.504  0.00  0.00    +0.000 A 
ATOM      8  C   UNL     1      -4.399  13.142  21.150  0.00  0.00    +0.000 A 
ATOM      9  C   UNL     1      -3.536  12.647  20.146  0.00  0.00    +0.000 A 
ATOM     10  C   UNL     1      -2.256  12.071  20.428  0.00  0.00    +0.000 A 
ATOM     11  C   UNL     1      -5.695  13.745  20.742  0.00  0.00    +0.000 C 
ATOM     12  O   UNL     1      -5.881  14.097  19.575  0.00  0.00    +0.000 OA
ATOM     13  C   UNL     1      -6.794  13.823  21.777  0.00  0.00    +0.000 C 
ATOM     14  C   UNL     1      -7.451  12.449  21.879  0.00  0.00    +0.000 C 
ATOM     15  C   UNL     1      -6.190  14.320  23.099  0.00  0.00    +0.000 C 
ATOM     16  O   UNL     1      -6.674  15.269  23.721  0.00  0.00    +0.000 OA
ATOM     17  C   UNL     1      -4.959  13.561  23.635  0.00  0.00    +0.000 C 
ATOM     18  C   UNL     1      -4.167  14.522  24.558  0.00  0.00    +0.000 C 
ATOM     19  C   UNL     1      -5.480  12.407  24.515  0.00  0.00    +0.000 C 
ENDROOT
BRANCH   2  20
ATOM     20  C   UNL     1       1.003  10.533  18.968  0.00  0.00    +0.000 C 
ATOM     21  O   UNL     1       1.847  11.208  18.395  0.00  0.00    +0.000 OA
BRANCH  20  22
ATOM     22  O   UNL     1       0.865   9.190  18.847  0.00  0.00    +0.000 OA
ATOM     23  C   UNL     1       1.935   8.515  18.176  0.00  0.00    +0.000 C 
ENDBRANCH  20  22
ENDBRANCH   2  20
BRANCH   3  24
ATOM     24  O   UNL     1       1.501  10.538  21.647  0.00  0.00    +0.000 OA
ATOM     25  C   UNL     1       1.582   9.284  22.314  0.00  0.00    +0.000 C 
ENDBRANCH   3  24
BRANCH   9  26
ATOM     26  O   UNL     1      -3.950  12.697  18.833  0.00  0.00    +0.000 OA
ATOM     27  H   UNL     1      -4.914  12.524  18.767  0.00  0.00    +0.000 HD
ENDBRANCH   9  26
BRANCH  13  28
ATOM     28  O   UNL     1      -7.813  14.705  21.299  0.00  0.00    +0.000 OA
ATOM     29  H   UNL     1      -7.872  14.580  20.331  0.00  0.00    +0.000 HD
ENDBRANCH  13  28
BRANCH   1  30
ATOM     30  C   UNL     1      -1.576  11.665  17.973  0.00  0.00    +0.000 C 
BRANCH  30  32
ATOM     31  C   UNL     1      -2.602  10.445  16.010  0.00  0.00    +0.000 C 
ATOM     32  C   UNL     1      -2.134  10.332  17.450  0.00  0.00    +0.000 C 
ENDBRANCH  30  32
ENDBRANCH   1  30
TORSDOF 7
ENDMDL
MODEL 6
REMARK VINA RESULT:      -6.2      1.524      7.832
REMARK  Name = 
REMARK  13 active torsions:
REMARK  status: ('A' for Active; 'I' for Inactive)
REMARK    1  A    between atoms: C_1  and  C_2
REMARK    2  A    between atoms: C_2  and  C_3
REMARK    3  A    between atoms: C_3  and  C_4
REMARK    4  A    between atoms: C_5  and  C_6
REMARK    5  A    between atoms: C_6  and  O_8
REMARK    6  A    between atoms: O_8  and  C_9
REMARK    7  A    between atoms: C_10  and  O_11
REMARK    8  A    between atoms: O_11  and  C_12
REMARK    9  A    between atoms: C_18  and  O_19
REMARK   10  A    between atoms: C_23  and  C_24
REMARK   11  A    between atoms: C_23  and  O_25
REMARK   12  A    between atoms: C_28  and  C_29
REMARK   13  A    between atoms: C_28  and  C_30
REMARK                            x       y       z     vdW  Elec       q    Type
REMARK                         _______ _______ _______ _____ _____    ______ ____
ROOT
ATOM      1  C   UNL     1       4.306   6.259  17.595  0.00  0.00    +0.000 A 
ATOM      2  C   UNL     1       4.831   5.009  18.048  0.00  0.00    +0.000 A 
ATOM      3  C   UNL     1       4.397   4.459  19.266  0.00  0.00    +0.000 A 
ATOM      4  C   UNL     1       3.459   5.156  20.032  0.00  0.00    +0.000 A 
ATOM      5  C   UNL     1       2.935   6.395  19.623  0.00  0.00    +0.000 A 
ATOM      6  C   UNL     1       2.004   7.041  20.470  0.00  0.00    +0.000 A 
ATOM      7  C   UNL     1       1.464   8.311  20.194  0.00  0.00    +0.000 A 
ATOM      8  C   UNL     1       1.866   8.914  18.996  0.00  0.00    +0.000 A 
ATOM      9  C   UNL     1       2.759   8.258  18.117  0.00  0.00    +0.000 A 
ATOM     10  C   UNL     1       3.345   6.984  18.405  0.00  0.00    +0.000 A 
ATOM     11  C   UNL     1       1.337  10.248  18.609  0.00  0.00    +0.000 C 
ATOM     12  O   UNL     1       1.888  10.906  17.724  0.00  0.00    +0.000 OA
ATOM     13  C   UNL     1       0.061  10.719  19.268  0.00  0.00    +0.000 C 
ATOM     14  C   UNL     1      -1.114  10.037  18.573  0.00  0.00    +0.000 C 
ATOM     15  C   UNL     1       0.147  10.423  20.773  0.00  0.00    +0.000 C 
ATOM     16  O   UNL     1      -0.074  11.292  21.621  0.00  0.00    +0.000 OA
ATOM     17  C   UNL     1       0.496   8.978  21.183  0.00  0.00    +0.000 C 
ATOM     18  C   UNL     1       1.119   9.020  22.602  0.00  0.00    +0.000 C 
ATOM     19  C   UNL     1      -0.829   8.198  21.287  0.00  0.00    +0.000 C 
ENDROOT
BRANCH   2  20
ATOM     20  C   UNL     1       5.799   4.204  17.236  0.00  0.00    +0.000 C 
ATOM     21  O   UNL     1       6.998   4.122  17.463  0.00  0.00    +0.000 OA
BRANCH  20  22
ATOM     22  O   UNL     1       5.153   3.575  16.223  0.00  0.00    +0.000 OA
ATOM     23  C   UNL     1       5.819   3.597  14.956  0.00  0.00    +0.000 C 
ENDBRANCH  20  22
ENDBRANCH   2  20
BRANCH   3  24
ATOM     24  O   UNL     1       4.960   3.272  19.656  0.00  0.00    +0.000 OA
ATOM     25  C   UNL     1       4.104   2.223  20.092  0.00  0.00    +0.000 C 
ENDBRANCH   3  24
BRANCH   9  26
ATOM     26  O   UNL     1       3.064   8.856  16.915  0.00  0.00    +0.000 OA
ATOM     27  H   UNL     1       2.308   8.786  16.292  0.00  0.00    +0.000 HD
ENDBRANCH   9  26
BRANCH  13  28
ATOM     28  O   UNL     1      -0.097  12.118  19.014  0.00  0.00    +0.000 OA
ATOM     29  H   UNL     1       0.548  12.588  19.578  0.00  0.00    +0.000 HD
ENDBRANCH  13  28
BRANCH   1  30
ATOM     30  C   UNL     1       4.799   6.850  16.278  0.00  0.00    +0.000 C 
BRANCH  30  32
ATOM     31  C   UNL     1       6.807   7.818  17.470  0.00  0.00    +0.000 C 
ATOM     32  C   UNL     1       6.327   7.006  16.281  0.00  0.00    +0.000 C 
ENDBRANCH  30  32
ENDBRANCH   1  30
TORSDOF 7
ENDMDL
MODEL 7
REMARK VINA RESULT:      -6.1      8.821     10.282
REMARK  Name = 
REMARK  13 active torsions:
REMARK  status: ('A' for Active; 'I' for Inactive)
REMARK    1  A    between atoms: C_1  and  C_2
REMARK    2  A    between atoms: C_2  and  C_3
REMARK    3  A    between atoms: C_3  and  C_4
REMARK    4  A    between atoms: C_5  and  C_6
REMARK    5  A    between atoms: C_6  and  O_8
REMARK    6  A    between atoms: O_8  and  C_9
REMARK    7  A    between atoms: C_10  and  O_11
REMARK    8  A    between atoms: O_11  and  C_12
REMARK    9  A    between atoms: C_18  and  O_19
REMARK   10  A    between atoms: C_23  and  C_24
REMARK   11  A    between atoms: C_23  and  O_25
REMARK   12  A    between atoms: C_28  and  C_29
REMARK   13  A    between atoms: C_28  and  C_30
REMARK                            x       y       z     vdW  Elec       q    Type
REMARK                         _______ _______ _______ _____ _____    ______ ____
ROOT
ATOM      1  C   UNL     1       8.420  13.229  24.213  0.00  0.00    +0.000 A 
ATOM      2  C   UNL     1       8.307  14.257  25.199  0.00  0.00    +0.000 A 
ATOM      3  C   UNL     1       8.748  15.561  24.916  0.00  0.00    +0.000 A 
ATOM      4  C   UNL     1       9.311  15.832  23.666  0.00  0.00    +0.000 A 
ATOM      5  C   UNL     1       9.452  14.840  22.680  0.00  0.00    +0.000 A 
ATOM      6  C   UNL     1      10.050  15.197  21.449  0.00  0.00    +0.000 A 
ATOM      7  C   UNL     1      10.300  14.274  20.417  0.00  0.00    +0.000 A 
ATOM      8  C   UNL     1       9.889  12.955  20.645  0.00  0.00    +0.000 A 
ATOM      9  C   UNL     1       9.245  12.594  21.852  0.00  0.00    +0.000 A 
ATOM     10  C   UNL     1       9.021  13.515  22.924  0.00  0.00    +0.000 A 
ATOM     11  C   UNL     1      10.094  11.911  19.607  0.00  0.00    +0.000 C 
ATOM     12  O   UNL     1      10.006  10.716  19.897  0.00  0.00    +0.000 OA
ATOM     13  C   UNL     1      10.321  12.367  18.183  0.00  0.00    +0.000 C 
ATOM     14  C   UNL     1       8.967  12.723  17.576  0.00  0.00    +0.000 C 
ATOM     15  C   UNL     1      11.321  13.533  18.194  0.00  0.00    +0.000 C 
ATOM     16  O   UNL     1      12.325  13.537  17.477  0.00  0.00    +0.000 OA
ATOM     17  C   UNL     1      11.001  14.720  19.125  0.00  0.00    +0.000 C 
ATOM     18  C   UNL     1      12.333  15.442  19.456  0.00  0.00    +0.000 C 
ATOM     19  C   UNL     1      10.131  15.709  18.324  0.00  0.00    +0.000 C 
ENDROOT
BRANCH   2  20
ATOM     20  C   UNL     1       7.665  14.023  26.533  0.00  0.00    +0.000 C 
ATOM     21  O   UNL     1       8.251  13.612  27.525  0.00  0.00    +0.000 OA
BRANCH  20  22
ATOM     22  O   UNL     1       6.348  14.340  26.482  0.00  0.00    +0.000 OA
ATOM     23  C   UNL     1       5.842  15.070  27.605  0.00  0.00    +0.000 C 
ENDBRANCH  20  22
ENDBRANCH   2  20
BRANCH   3  24
ATOM     24  O   UNL     1       8.637  16.493  25.914  0.00  0.00    +0.000 OA
ATOM     25  C   UNL     1       9.822  17.093  26.421  0.00  0.00    +0.000 C 
ENDBRANCH   3  24
BRANCH   9  26
ATOM     26  O   UNL     1       8.789  11.303  21.998  0.00  0.00    +0.000 OA
ATOM     27  H   UNL     1       8.405  11.171  22.891  0.00  0.00    +0.000 HD
ENDBRANCH   9  26
BRANCH  13  28
ATOM     28  O   UNL     1      10.810  11.260  17.421  0.00  0.00    +0.000 OA
ATOM     29  H   UNL     1      11.742  11.452  17.199  0.00  0.00    +0.000 HD
ENDBRANCH  13  28
BRANCH   1  30
ATOM     30  C   UNL     1       7.950  11.815  24.542  0.00  0.00    +0.000 C 
BRANCH  30  32
ATOM     31  C   UNL     1       5.701  11.065  25.420  0.00  0.00    +0.000 C 
ATOM     32  C   UNL     1       6.454  11.645  24.237  0.00  0.00    +0.000 C 
ENDBRANCH  30  32
ENDBRANCH   1  30
TORSDOF 7
ENDMDL
MODEL 8
REMARK VINA RESULT:      -6.1      1.408      1.818
REMARK  Name = 
REMARK  13 active torsions:
REMARK  status: ('A' for Active; 'I' for Inactive)
REMARK    1  A    between atoms: C_1  and  C_2
REMARK    2  A    between atoms: C_2  and  C_3
REMARK    3  A    between atoms: C_3  and  C_4
REMARK    4  A    between atoms: C_5  and  C_6
REMARK    5  A    between atoms: C_6  and  O_8
REMARK    6  A    between atoms: O_8  and  C_9
REMARK    7  A    between atoms: C_10  and  O_11
REMARK    8  A    between atoms: O_11  and  C_12
REMARK    9  A    between atoms: C_18  and  O_19
REMARK   10  A    between atoms: C_23  and  C_24
REMARK   11  A    between atoms: C_23  and  O_25
REMARK   12  A    between atoms: C_28  and  C_29
REMARK   13  A    between atoms: C_28  and  C_30
REMARK                            x       y       z     vdW  Elec       q    Type
REMARK                         _______ _______ _______ _____ _____    ______ ____
ROOT
ATOM      1  C   UNL     1       1.293   9.409  20.640  0.00  0.00    +0.000 A 
ATOM      2  C   UNL     1       1.256  10.629  19.897  0.00  0.00    +0.000 A 
ATOM      3  C   UNL     1       1.585  10.638  18.531  0.00  0.00    +0.000 A 
ATOM      4  C   UNL     1       1.962   9.442  17.916  0.00  0.00    +0.000 A 
ATOM      5  C   UNL     1       2.025   8.227  18.620  0.00  0.00    +0.000 A 
ATOM      6  C   UNL     1       2.436   7.067  17.923  0.00  0.00    +0.000 A 
ATOM      7  C   UNL     1       2.596   5.812  18.540  0.00  0.00    +0.000 A 
ATOM      8  C   UNL     1       2.290   5.745  19.905  0.00  0.00    +0.000 A 
ATOM      9  C   UNL     1       1.832   6.885  20.604  0.00  0.00    +0.000 A 
ATOM     10  C   UNL     1       1.702   8.175  19.996  0.00  0.00    +0.000 A 
ATOM     11  C   UNL     1       2.413   4.459  20.641  0.00  0.00    +0.000 C 
ATOM     12  O   UNL     1       2.428   4.444  21.874  0.00  0.00    +0.000 OA
ATOM     13  C   UNL     1       2.425   3.181  19.834  0.00  0.00    +0.000 C 
ATOM     14  C   UNL     1       0.985   2.843  19.457  0.00  0.00    +0.000 C 
ATOM     15  C   UNL     1       3.353   3.373  18.625  0.00  0.00    +0.000 C 
ATOM     16  O   UNL     1       4.252   2.570  18.360  0.00  0.00    +0.000 OA
ATOM     17  C   UNL     1       3.096   4.605  17.733  0.00  0.00    +0.000 C 
ATOM     18  C   UNL     1       4.418   4.953  17.003  0.00  0.00    +0.000 C 
ATOM     19  C   UNL     1       2.075   4.186  16.656  0.00  0.00    +0.000 C 
ENDROOT
BRANCH   2  20
ATOM     20  C   UNL     1       0.809  11.925  20.505  0.00  0.00    +0.000 C 
ATOM     21  O   UNL     1       1.524  12.668  21.162  0.00  0.00    +0.000 OA
BRANCH  20  22
ATOM     22  O   UNL     1      -0.495  12.155  20.212  0.00  0.00    +0.000 OA
ATOM     23  C   UNL     1      -0.833  13.514  19.916  0.00  0.00    +0.000 C 
ENDBRANCH  20  22
ENDBRANCH   2  20
BRANCH   3  24
ATOM     24  O   UNL     1       1.556  11.845  17.885  0.00  0.00    +0.000 OA
ATOM     25  C   UNL     1       2.734  12.642  17.877  0.00  0.00    +0.000 C 
ENDBRANCH   3  24
BRANCH   9  26
ATOM     26  O   UNL     1       1.469   6.750  21.925  0.00  0.00    +0.000 OA
ATOM     27  H   UNL     1       2.055   7.288  22.502  0.00  0.00    +0.000 HD
ENDBRANCH   9  26
BRANCH  13  28
ATOM     28  O   UNL     1       2.867   2.112  20.674  0.00  0.00    +0.000 OA
ATOM     29  H   UNL     1       2.096   1.534  20.836  0.00  0.00    +0.000 HD
ENDBRANCH  13  28
BRANCH   1  30
ATOM     30  C   UNL     1       0.947   9.420  22.125  0.00  0.00    +0.000 C 
BRANCH  30  32
ATOM     31  C   UNL     1      -1.097  10.438  23.211  0.00  0.00    +0.000 C 
ATOM     32  C   UNL     1      -0.570   9.311  22.340  0.00  0.00    +0.000 C 
ENDBRANCH  30  32
ENDBRANCH   1  30
TORSDOF 7
ENDMDL
MODEL 9
REMARK VINA RESULT:      -6.0      1.712      3.786
REMARK  Name = 
REMARK  13 active torsions:
REMARK  status: ('A' for Active; 'I' for Inactive)
REMARK    1  A    between atoms: C_1  and  C_2
REMARK    2  A    between atoms: C_2  and  C_3
REMARK    3  A    between atoms: C_3  and  C_4
REMARK    4  A    between atoms: C_5  and  C_6
REMARK    5  A    between atoms: C_6  and  O_8
REMARK    6  A    between atoms: O_8  and  C_9
REMARK    7  A    between atoms: C_10  and  O_11
REMARK    8  A    between atoms: O_11  and  C_12
REMARK    9  A    between atoms: C_18  and  O_19
REMARK   10  A    between atoms: C_23  and  C_24
REMARK   11  A    between atoms: C_23  and  O_25
REMARK   12  A    between atoms: C_28  and  C_29
REMARK   13  A    between atoms: C_28  and  C_30
REMARK                            x       y       z     vdW  Elec       q    Type
REMARK                         _______ _______ _______ _____ _____    ______ ____
ROOT
ATOM      1  C   UNL     1       1.190   9.752  19.249  0.00  0.00    +0.000 A 
ATOM      2  C   UNL     1       0.347   9.893  20.394  0.00  0.00    +0.000 A 
ATOM      3  C   UNL     1       0.269   8.864  21.347  0.00  0.00    +0.000 A 
ATOM      4  C   UNL     1       1.013   7.698  21.151  0.00  0.00    +0.000 A 
ATOM      5  C   UNL     1       1.839   7.520  20.028  0.00  0.00    +0.000 A 
ATOM      6  C   UNL     1       2.543   6.300  19.899  0.00  0.00    +0.000 A 
ATOM      7  C   UNL     1       3.347   5.987  18.786  0.00  0.00    +0.000 A 
ATOM      8  C   UNL     1       3.456   6.973  17.799  0.00  0.00    +0.000 A 
ATOM      9  C   UNL     1       2.797   8.216  17.938  0.00  0.00    +0.000 A 
ATOM     10  C   UNL     1       1.946   8.531  19.045  0.00  0.00    +0.000 A 
ATOM     11  C   UNL     1       4.296   6.742  16.594  0.00  0.00    +0.000 C 
ATOM     12  O   UNL     1       4.176   7.464  15.601  0.00  0.00    +0.000 OA
ATOM     13  C   UNL     1       5.353   5.664  16.666  0.00  0.00    +0.000 C 
ATOM     14  C   UNL     1       6.558   6.227  17.414  0.00  0.00    +0.000 C 
ATOM     15  C   UNL     1       4.740   4.420  17.326  0.00  0.00    +0.000 C 
ATOM     16  O   UNL     1       4.818   3.302  16.809  0.00  0.00    +0.000 OA
ATOM     17  C   UNL     1       4.042   4.621  18.687  0.00  0.00    +0.000 C 
ATOM     18  C   UNL     1       3.012   3.477  18.872  0.00  0.00    +0.000 C 
ATOM     19  C   UNL     1       5.114   4.454  19.782  0.00  0.00    +0.000 C 
ENDROOT
BRANCH   2  20
ATOM     20  C   UNL     1      -0.429  11.146  20.670  0.00  0.00    +0.000 C 
ATOM     21  O   UNL     1      -1.537  11.392  20.214  0.00  0.00    +0.000 OA
BRANCH  20  22
ATOM     22  O   UNL     1       0.270  11.958  21.501  0.00  0.00    +0.000 OA
ATOM     23  C   UNL     1      -0.494  12.969  22.166  0.00  0.00    +0.000 C 
ENDBRANCH  20  22
ENDBRANCH   2  20
BRANCH   3  24
ATOM     24  O   UNL     1      -0.579   9.051  22.407  0.00  0.00    +0.000 OA
ATOM     25  C   UNL     1      -0.025   9.415  23.666  0.00  0.00    +0.000 C 
ENDBRANCH   3  24
BRANCH   9  26
ATOM     26  O   UNL     1       2.999   9.184  16.978  0.00  0.00    +0.000 OA
ATOM     27  H   UNL     1       2.665  10.053  17.287  0.00  0.00    +0.000 HD
ENDBRANCH   9  26
BRANCH  13  28
ATOM     28  O   UNL     1       5.814   5.384  15.341  0.00  0.00    +0.000 OA
ATOM     29  H   UNL     1       5.071   5.569  14.733  0.00  0.00    +0.000 HD
ENDBRANCH  13  28
BRANCH   1  30
ATOM     30  C   UNL     1       1.252  10.873  18.216  0.00  0.00    +0.000 C 
BRANCH  30  32
ATOM     31  C   UNL     1       1.650  13.356  18.488  0.00  0.00    +0.000 C 
ATOM     32  C   UNL     1       2.241  11.967  18.647  0.00  0.00    +0.000 C 
ENDBRANCH  30  32
ENDBRANCH   1  30
TORSDOF 7
ENDMDL
