MODEL 1
REMARK VINA RESULT:      -7.0      0.000      0.000
REMARK  Name = 
REMARK  13 active torsions:
REMARK  status: ('A' for Active; 'I' for Inactive)
REMARK    1  A    between atoms: C_1  and  O_2
REMARK    2  A    between atoms: O_2  and  C_3
REMARK    3  A    between atoms: C_5  and  C_6
REMARK    4  A    between atoms: C_7  and  C_8
REMARK    5  A    between atoms: C_8  and  O_10
REMARK    6  A    between atoms: O_10  and  C_11
REMARK    7  A    between atoms: C_13  and  C_14
REMARK    8  A    between atoms: C_15  and  C_16
REMARK    9  A    between atoms: C_16  and  O_18
REMARK   10  A    between atoms: C_19  and  O_20
REMARK   11  A    between atoms: C_21  and  C_22
REMARK   12  A    between atoms: C_23  and  O_24
REMARK   13  A    between atoms: C_25  and  C_26
REMARK                            x       y       z     vdW  Elec       q    Type
REMARK                         _______ _______ _______ _____ _____    ______ ____
ROOT
ATOM      1  C   UNL     1       1.694   8.699  18.720  0.00  0.00    +0.000 C 
ATOM      2  O   UNL     1       1.212   8.452  17.620  0.00  0.00    +0.000 OA
ENDROOT
BRANCH   1   7
ATOM      3  C   UNL     1       0.423  11.997  21.254  0.00  0.00    +0.000 A 
ATOM      4  C   UNL     1       1.061  12.260  20.038  0.00  0.00    +0.000 A 
ATOM      5  C   UNL     1       1.470  11.232  19.160  0.00  0.00    +0.000 A 
ATOM      6  C   UNL     1       2.163  11.673  17.896  0.00  0.00    +0.000 C 
ATOM      7  C   UNL     1       1.238   9.886  19.522  0.00  0.00    +0.000 A 
ATOM      8  C   UNL     1       0.580   9.623  20.750  0.00  0.00    +0.000 A 
ATOM      9  C   UNL     1       0.174  10.665  21.611  0.00  0.00    +0.000 A 
BRANCH   3  11
ATOM     10  C   UNL     1       0.588  14.295  21.888  0.00  0.00    +0.000 C 
ATOM     11  O   UNL     1       0.102  12.984  22.143  0.00  0.00    +0.000 OA
ENDBRANCH   3  11
BRANCH   8  12
ATOM     12  O   UNL     1       0.316   8.335  21.175  0.00  0.00    +0.000 OA
ATOM     13  H   UNL     1      -0.348   8.344  21.900  0.00  0.00    +0.000 HD
ENDBRANCH   8  12
BRANCH   9  14
ATOM     14  C   UNL     1      -0.521  10.309  22.883  0.00  0.00    +0.000 C 
ATOM     15  O   UNL     1       0.019   9.795  23.856  0.00  0.00    +0.000 OA
ENDBRANCH   9  14
ENDBRANCH   1   7
BRANCH   1  16
ATOM     16  O   UNL     1       2.617   7.916  19.381  0.00  0.00    +0.000 OA
BRANCH  16  17
ATOM     17  C   UNL     1       2.630   6.524  19.137  0.00  0.00    +0.000 A 
ATOM     18  C   UNL     1       1.877   5.672  19.951  0.00  0.00    +0.000 A 
ATOM     19  C   UNL     1       1.970   4.275  19.842  0.00  0.00    +0.000 A 
ATOM     20  C   UNL     1       1.129   3.472  20.796  0.00  0.00    +0.000 C 
ATOM     21  C   UNL     1       2.862   3.734  18.887  0.00  0.00    +0.000 A 
ATOM     22  C   UNL     1       3.630   4.616  18.080  0.00  0.00    +0.000 A 
ATOM     23  C   UNL     1       3.528   6.014  18.194  0.00  0.00    +0.000 A 
ATOM     24  C   UNL     1       4.365   6.944  17.358  0.00  0.00    +0.000 C 
BRANCH  21  25
ATOM     25  C   UNL     1       3.140   2.275  18.732  0.00  0.00    +0.000 C 
ATOM     26  O   UNL     1       4.156   1.778  19.190  0.00  0.00    +0.000 OA
BRANCH  25  27
ATOM     27  O   UNL     1       2.265   1.562  18.001  0.00  0.00    +0.000 OA
ATOM     28  H   UNL     1       2.660   0.896  17.416  0.00  0.00    +0.000 HD
ENDBRANCH  25  27
ENDBRANCH  21  25
BRANCH  22  29
ATOM     29  O   UNL     1       4.527   4.143  17.146  0.00  0.00    +0.000 OA
ATOM     30  H   UNL     1       5.174   4.848  16.925  0.00  0.00    +0.000 HD
ENDBRANCH  22  29
ENDBRANCH  16  17
ENDBRANCH   1  16
TORSDOF 9
ENDMDL
MODEL 2
REMARK VINA RESULT:      -7.0      2.409      7.862
REMARK  Name = 
REMARK  13 active torsions:
REMARK  status: ('A' for Active; 'I' for Inactive)
REMARK    1  A    between atoms: C_1  and  O_2
REMARK    2  A    between atoms: O_2  and  C_3
REMARK    3  A    between atoms: C_5  and  C_6
REMARK    4  A    between atoms: C_7  and  C_8
REMARK    5  A    between atoms: C_8  and  O_10
REMARK    6  A    between atoms: O_10  and  C_11
REMARK    7  A    between atoms: C_13  and  C_14
REMARK    8  A    between atoms: C_15  and  C_16
REMARK    9  A    between atoms: C_16  and  O_18
REMARK   10  A    between atoms: C_19  and  O_20
REMARK   11  A    between atoms: C_21  and  C_22
REMARK   12  A    between atoms: C_23  and  O_24
REMARK   13  A    between atoms: C_25  and  C_26
REMARK                            x       y       z     vdW  Elec       q    Type
REMARK                         _______ _______ _______ _____ _____    ______ ____
ROOT
ATOM      1  C   UNL     1       2.742   5.474  19.788  0.00  0.00    +0.000 C 
ATOM      2  O   UNL     1       1.839   4.823  20.304  0.00  0.00    +0.000 OA
ENDROOT
BRANCH   1   7
ATOM      3  C   UNL     1       5.102   3.915  16.486  0.00  0.00    +0.000 A 
ATOM      4  C   UNL     1       3.710   3.782  16.469  0.00  0.00    +0.000 A 
ATOM      5  C   UNL     1       2.889   4.293  17.498  0.00  0.00    +0.000 A 
ATOM      6  C   UNL     1       1.409   4.054  17.349  0.00  0.00    +0.000 C 
ATOM      7  C   UNL     1       3.490   4.956  18.592  0.00  0.00    +0.000 A 
ATOM      8  C   UNL     1       4.901   5.100  18.599  0.00  0.00    +0.000 A 
ATOM      9  C   UNL     1       5.704   4.586  17.558  0.00  0.00    +0.000 A 
BRANCH   3  11
ATOM     10  C   UNL     1       5.970   3.974  14.260  0.00  0.00    +0.000 C 
ATOM     11  O   UNL     1       5.905   3.349  15.536  0.00  0.00    +0.000 OA
ENDBRANCH   3  11
BRANCH   8  12
ATOM     12  O   UNL     1       5.564   5.736  19.632  0.00  0.00    +0.000 OA
ATOM     13  H   UNL     1       5.161   5.493  20.496  0.00  0.00    +0.000 HD
ENDBRANCH   8  12
BRANCH   9  14
ATOM     14  C   UNL     1       7.181   4.786  17.633  0.00  0.00    +0.000 C 
ATOM     15  O   UNL     1       7.886   4.445  18.576  0.00  0.00    +0.000 OA
ENDBRANCH   9  14
ENDBRANCH   1   7
BRANCH   1  16
ATOM     16  O   UNL     1       3.123   6.746  20.162  0.00  0.00    +0.000 OA
BRANCH  16  17
ATOM     17  C   UNL     1       2.176   7.793  20.082  0.00  0.00    +0.000 A 
ATOM     18  C   UNL     1       1.311   8.025  21.156  0.00  0.00    +0.000 A 
ATOM     19  C   UNL     1       0.261   8.955  21.068  0.00  0.00    +0.000 A 
ATOM     20  C   UNL     1      -0.615   9.089  22.284  0.00  0.00    +0.000 C 
ATOM     21  C   UNL     1       0.083   9.653  19.852  0.00  0.00    +0.000 A 
ATOM     22  C   UNL     1       0.962   9.391  18.768  0.00  0.00    +0.000 A 
ATOM     23  C   UNL     1       2.014   8.462  18.866  0.00  0.00    +0.000 A 
ATOM     24  C   UNL     1       2.925   8.165  17.705  0.00  0.00    +0.000 C 
BRANCH  21  25
ATOM     25  C   UNL     1      -1.050  10.589  19.581  0.00  0.00    +0.000 C 
ATOM     26  O   UNL     1      -1.872  10.346  18.713  0.00  0.00    +0.000 OA
BRANCH  25  27
ATOM     27  O   UNL     1      -1.069  11.739  20.279  0.00  0.00    +0.000 OA
ATOM     28  H   UNL     1      -1.868  11.888  20.809  0.00  0.00    +0.000 HD
ENDBRANCH  25  27
ENDBRANCH  21  25
BRANCH  22  29
ATOM     29  O   UNL     1       0.823  10.031  17.555  0.00  0.00    +0.000 OA
ATOM     30  H   UNL     1       1.111   9.431  16.832  0.00  0.00    +0.000 HD
ENDBRANCH  22  29
ENDBRANCH  16  17
ENDBRANCH   1  16
TORSDOF 9
ENDMDL
MODEL 3
REMARK VINA RESULT:      -6.9      1.886      3.865
REMARK  Name = 
REMARK  13 active torsions:
REMARK  status: ('A' for Active; 'I' for Inactive)
REMARK    1  A    between atoms: C_1  and  O_2
REMARK    2  A    between atoms: O_2  and  C_3
REMARK    3  A    between atoms: C_5  and  C_6
REMARK    4  A    between atoms: C_7  and  C_8
REMARK    5  A    between atoms: C_8  and  O_10
REMARK    6  A    between atoms: O_10  and  C_11
REMARK    7  A    between atoms: C_13  and  C_14
REMARK    8  A    between atoms: C_15  and  C_16
REMARK    9  A    between atoms: C_16  and  O_18
REMARK   10  A    between atoms: C_19  and  O_20
REMARK   11  A    between atoms: C_21  and  C_22
REMARK   12  A    between atoms: C_23  and  O_24
REMARK   13  A    between atoms: C_25  and  C_26
REMARK                            x       y       z     vdW  Elec       q    Type
REMARK                         _______ _______ _______ _____ _____    ______ ____
ROOT
ATOM      1  C   UNL     1       2.147   8.257  18.031  0.00  0.00    +0.000 C 
ATOM      2  O   UNL     1       2.312   8.866  16.980  0.00  0.00    +0.000 OA
ENDROOT
BRANCH   1   7
ATOM      3  C   UNL     1       0.517  10.413  21.438  0.00  0.00    +0.000 A 
ATOM      4  C   UNL     1       0.833   9.056  21.560  0.00  0.00    +0.000 A 
ATOM      5  C   UNL     1       1.392   8.311  20.498  0.00  0.00    +0.000 A 
ATOM      6  C   UNL     1       1.660   6.854  20.776  0.00  0.00    +0.000 C 
ATOM      7  C   UNL     1       1.634   8.951  19.261  0.00  0.00    +0.000 A 
ATOM      8  C   UNL     1       1.323  10.330  19.145  0.00  0.00    +0.000 A 
ATOM      9  C   UNL     1       0.770  11.058  20.220  0.00  0.00    +0.000 A 
BRANCH   3  11
ATOM     10  C   UNL     1      -1.065  10.438  23.228  0.00  0.00    +0.000 C 
ATOM     11  O   UNL     1      -0.100  11.116  22.434  0.00  0.00    +0.000 OA
ENDBRANCH   3  11
BRANCH   8  12
ATOM     12  O   UNL     1       1.530  11.027  17.970  0.00  0.00    +0.000 OA
ATOM     13  H   UNL     1       1.520  10.412  17.203  0.00  0.00    +0.000 HD
ENDBRANCH   8  12
BRANCH   9  14
ATOM     14  C   UNL     1       0.478  12.509  20.022  0.00  0.00    +0.000 C 
ATOM     15  O   UNL     1      -0.292  12.960  19.183  0.00  0.00    +0.000 OA
ENDBRANCH   9  14
ENDBRANCH   1   7
BRANCH   1  16
ATOM     16  O   UNL     1       2.320   6.899  18.203  0.00  0.00    +0.000 OA
BRANCH  16  17
ATOM     17  C   UNL     1       3.583   6.332  17.920  0.00  0.00    +0.000 A 
ATOM     18  C   UNL     1       4.709   7.158  17.836  0.00  0.00    +0.000 A 
ATOM     19  C   UNL     1       5.955   6.665  17.416  0.00  0.00    +0.000 A 
ATOM     20  C   UNL     1       7.078   7.664  17.341  0.00  0.00    +0.000 C 
ATOM     21  C   UNL     1       6.052   5.300  17.061  0.00  0.00    +0.000 A 
ATOM     22  C   UNL     1       4.895   4.481  17.139  0.00  0.00    +0.000 A 
ATOM     23  C   UNL     1       3.651   4.982  17.564  0.00  0.00    +0.000 A 
ATOM     24  C   UNL     1       2.420   4.118  17.616  0.00  0.00    +0.000 C 
BRANCH  21  25
ATOM     25  C   UNL     1       7.283   4.666  16.500  0.00  0.00    +0.000 C 
ATOM     26  O   UNL     1       7.483   4.640  15.297  0.00  0.00    +0.000 OA
BRANCH  25  27
ATOM     27  O   UNL     1       8.108   4.060  17.373  0.00  0.00    +0.000 OA
ATOM     28  H   UNL     1       8.637   4.658  17.926  0.00  0.00    +0.000 HD
ENDBRANCH  25  27
ENDBRANCH  21  25
BRANCH  22  29
ATOM     29  O   UNL     1       4.929   3.148  16.789  0.00  0.00    +0.000 OA
ATOM     30  H   UNL     1       4.157   2.937  16.219  0.00  0.00    +0.000 HD
ENDBRANCH  22  29
ENDBRANCH  16  17
ENDBRANCH   1  16
TORSDOF 9
ENDMDL
MODEL 4
REMARK VINA RESULT:      -6.9      1.420      2.638
REMARK  Name = 
REMARK  13 active torsions:
REMARK  status: ('A' for Active; 'I' for Inactive)
REMARK    1  A    between atoms: C_1  and  O_2
REMARK    2  A    between atoms: O_2  and  C_3
REMARK    3  A    between atoms: C_5  and  C_6
REMARK    4  A    between atoms: C_7  and  C_8
REMARK    5  A    between atoms: C_8  and  O_10
REMARK    6  A    between atoms: O_10  and  C_11
REMARK    7  A    between atoms: C_13  and  C_14
REMARK    8  A    between atoms: C_15  and  C_16
REMARK    9  A    between atoms: C_16  and  O_18
REMARK   10  A    between atoms: C_19  and  O_20
REMARK   11  A    between atoms: C_21  and  C_22
REMARK   12  A    between atoms: C_23  and  O_24
REMARK   13  A    between atoms: C_25  and  C_26
REMARK                            x       y       z     vdW  Elec       q    Type
REMARK                         _______ _______ _______ _____ _____    ______ ____
ROOT
ATOM      1  C   UNL     1       1.771   8.440  18.638  0.00  0.00    +0.000 C 
ATOM      2  O   UNL     1       1.303   8.041  17.577  0.00  0.00    +0.000 OA
ENDROOT
BRANCH   1   7
ATOM      3  C   UNL     1       0.162  12.095  20.359  0.00  0.00    +0.000 A 
ATOM      4  C   UNL     1      -0.032  10.874  21.014  0.00  0.00    +0.000 A 
ATOM      5  C   UNL     1       0.492   9.659  20.518  0.00  0.00    +0.000 A 
ATOM      6  C   UNL     1       0.182   8.424  21.324  0.00  0.00    +0.000 C 
ATOM      7  C   UNL     1       1.230   9.669  19.313  0.00  0.00    +0.000 A 
ATOM      8  C   UNL     1       1.435  10.911  18.659  0.00  0.00    +0.000 A 
ATOM      9  C   UNL     1       0.908  12.115  19.173  0.00  0.00    +0.000 A 
BRANCH   3  11
ATOM     10  C   UNL     1      -1.820  13.400  20.641  0.00  0.00    +0.000 C 
ATOM     11  O   UNL     1      -0.413  13.258  20.790  0.00  0.00    +0.000 OA
ENDBRANCH   3  11
BRANCH   8  12
ATOM     12  O   UNL     1       2.146  11.004  17.478  0.00  0.00    +0.000 OA
ATOM     13  H   UNL     1       2.932  11.583  17.598  0.00  0.00    +0.000 HD
ENDBRANCH   8  12
BRANCH   9  14
ATOM     14  C   UNL     1       1.174  13.383  18.432  0.00  0.00    +0.000 C 
ATOM     15  O   UNL     1       2.287  13.802  18.140  0.00  0.00    +0.000 OA
ENDBRANCH   9  14
ENDBRANCH   1   7
BRANCH   1  16
ATOM     16  O   UNL     1       2.754   7.804  19.367  0.00  0.00    +0.000 OA
BRANCH  16  17
ATOM     17  C   UNL     1       2.903   6.405  19.236  0.00  0.00    +0.000 A 
ATOM     18  C   UNL     1       2.215   5.552  20.105  0.00  0.00    +0.000 A 
ATOM     19  C   UNL     1       2.441   4.165  20.110  0.00  0.00    +0.000 A 
ATOM     20  C   UNL     1       1.658   3.364  21.114  0.00  0.00    +0.000 C 
ATOM     21  C   UNL     1       3.401   3.639  19.214  0.00  0.00    +0.000 A 
ATOM     22  C   UNL     1       4.100   4.523  18.350  0.00  0.00    +0.000 A 
ATOM     23  C   UNL     1       3.864   5.910  18.349  0.00  0.00    +0.000 A 
ATOM     24  C   UNL     1       4.628   6.847  17.454  0.00  0.00    +0.000 C 
BRANCH  21  25
ATOM     25  C   UNL     1       3.818   2.205  19.182  0.00  0.00    +0.000 C 
ATOM     26  O   UNL     1       3.115   1.358  18.655  0.00  0.00    +0.000 OA
BRANCH  25  27
ATOM     27  O   UNL     1       4.955   1.887  19.827  0.00  0.00    +0.000 OA
ATOM     28  H   UNL     1       5.031   0.957  20.096  0.00  0.00    +0.000 HD
ENDBRANCH  25  27
ENDBRANCH  21  25
BRANCH  22  29
ATOM     29  O   UNL     1       5.057   4.065  17.470  0.00  0.00    +0.000 OA
ATOM     30  H   UNL     1       4.618   3.685  16.677  0.00  0.00    +0.000 HD
ENDBRANCH  22  29
ENDBRANCH  16  17
ENDBRANCH   1  16
TORSDOF 9
ENDMDL
MODEL 5
REMARK VINA RESULT:      -6.8      1.190      2.402
REMARK  Name = 
REMARK  13 active torsions:
REMARK  status: ('A' for Active; 'I' for Inactive)
REMARK    1  A    between atoms: C_1  and  O_2
REMARK    2  A    between atoms: O_2  and  C_3
REMARK    3  A    between atoms: C_5  and  C_6
REMARK    4  A    between atoms: C_7  and  C_8
REMARK    5  A    between atoms: C_8  and  O_10
REMARK    6  A    between atoms: O_10  and  C_11
REMARK    7  A    between atoms: C_13  and  C_14
REMARK    8  A    between atoms: C_15  and  C_16
REMARK    9  A    between atoms: C_16  and  O_18
REMARK   10  A    between atoms: C_19  and  O_20
REMARK   11  A    between atoms: C_21  and  C_22
REMARK   12  A    between atoms: C_23  and  O_24
REMARK   13  A    between atoms: C_25  and  C_26
REMARK                            x       y       z     vdW  Elec       q    Type
REMARK                         _______ _______ _______ _____ _____    ______ ____
ROOT
ATOM      1  C   UNL     1       1.524   8.800  18.848  0.00  0.00    +0.000 C 
ATOM      2  O   UNL     1       0.993   8.614  17.758  0.00  0.00    +0.000 OA
ENDROOT
BRANCH   1   7
ATOM      3  C   UNL     1       0.127  12.121  21.283  0.00  0.00    +0.000 A 
ATOM      4  C   UNL     1      -0.055  10.808  21.728  0.00  0.00    +0.000 A 
ATOM      5  C   UNL     1       0.403   9.691  20.995  0.00  0.00    +0.000 A 
ATOM      6  C   UNL     1       0.114   8.338  21.594  0.00  0.00    +0.000 C 
ATOM      7  C   UNL     1       1.061   9.900  19.762  0.00  0.00    +0.000 A 
ATOM      8  C   UNL     1       1.255  11.234  19.320  0.00  0.00    +0.000 A 
ATOM      9  C   UNL     1       0.794  12.337  20.070  0.00  0.00    +0.000 A 
BRANCH   3  11
ATOM     10  C   UNL     1      -1.335  12.956  22.979  0.00  0.00    +0.000 C 
ATOM     11  O   UNL     1      -0.387  13.199  21.947  0.00  0.00    +0.000 OA
ENDBRANCH   3  11
BRANCH   8  12
ATOM     12  O   UNL     1       1.890  11.521  18.127  0.00  0.00    +0.000 OA
ATOM     13  H   UNL     1       1.842  10.748  17.521  0.00  0.00    +0.000 HD
ENDBRANCH   8  12
BRANCH   9  14
ATOM     14  C   UNL     1       1.044  13.711  19.543  0.00  0.00    +0.000 C 
ATOM     15  O   UNL     1       0.556  14.165  18.515  0.00  0.00    +0.000 OA
ENDBRANCH   9  14
ENDBRANCH   1   7
BRANCH   1  16
ATOM     16  O   UNL     1       2.515   8.014  19.398  0.00  0.00    +0.000 OA
BRANCH  16  17
ATOM     17  C   UNL     1       2.527   6.630  19.110  0.00  0.00    +0.000 A 
ATOM     18  C   UNL     1       1.819   5.747  19.932  0.00  0.00    +0.000 A 
ATOM     19  C   UNL     1       1.917   4.355  19.775  0.00  0.00    +0.000 A 
ATOM     20  C   UNL     1       1.128   3.516  20.743  0.00  0.00    +0.000 C 
ATOM     21  C   UNL     1       2.767   3.852  18.763  0.00  0.00    +0.000 A 
ATOM     22  C   UNL     1       3.490   4.764  17.949  0.00  0.00    +0.000 A 
ATOM     23  C   UNL     1       3.382   6.158  18.111  0.00  0.00    +0.000 A 
ATOM     24  C   UNL     1       4.172   7.120  17.266  0.00  0.00    +0.000 C 
BRANCH  21  25
ATOM     25  C   UNL     1       3.049   2.400  18.551  0.00  0.00    +0.000 C 
ATOM     26  O   UNL     1       3.943   1.838  19.162  0.00  0.00    +0.000 OA
BRANCH  25  27
ATOM     27  O   UNL     1       2.329   1.773  17.603  0.00  0.00    +0.000 OA
ATOM     28  H   UNL     1       2.846   1.254  16.966  0.00  0.00    +0.000 HD
ENDBRANCH  25  27
ENDBRANCH  21  25
BRANCH  22  29
ATOM     29  O   UNL     1       4.344   4.328  16.960  0.00  0.00    +0.000 OA
ATOM     30  H   UNL     1       5.163   3.968  17.368  0.00  0.00    +0.000 HD
ENDBRANCH  22  29
ENDBRANCH  16  17
ENDBRANCH   1  16
TORSDOF 9
ENDMDL
MODEL 6
REMARK VINA RESULT:      -6.7      1.446      1.747
REMARK  Name = 
REMARK  13 active torsions:
REMARK  status: ('A' for Active; 'I' for Inactive)
REMARK    1  A    between atoms: C_1  and  O_2
REMARK    2  A    between atoms: O_2  and  C_3
REMARK    3  A    between atoms: C_5  and  C_6
REMARK    4  A    between atoms: C_7  and  C_8
REMARK    5  A    between atoms: C_8  and  O_10
REMARK    6  A    between atoms: O_10  and  C_11
REMARK    7  A    between atoms: C_13  and  C_14
REMARK    8  A    between atoms: C_15  and  C_16
REMARK    9  A    between atoms: C_16  and  O_18
REMARK   10  A    between atoms: C_19  and  O_20
REMARK   11  A    between atoms: C_21  and  C_22
REMARK   12  A    between atoms: C_23  and  O_24
REMARK   13  A    between atoms: C_25  and  C_26
REMARK                            x       y       z     vdW  Elec       q    Type
REMARK                         _______ _______ _______ _____ _____    ______ ____
ROOT
ATOM      1  C   UNL     1       1.651   7.874  20.339  0.00  0.00    +0.000 C 
ATOM      2  O   UNL     1       1.957   7.530  21.475  0.00  0.00    +0.000 OA
ENDROOT
BRANCH   1   7
ATOM      3  C   UNL     1      -0.252  11.751  19.833  0.00  0.00    +0.000 A 
ATOM      4  C   UNL     1       0.560  11.237  18.817  0.00  0.00    +0.000 A 
ATOM      5  C   UNL     1       1.180   9.971  18.912  0.00  0.00    +0.000 A 
ATOM      6  C   UNL     1       2.042   9.564  17.744  0.00  0.00    +0.000 C 
ATOM      7  C   UNL     1       0.986   9.196  20.077  0.00  0.00    +0.000 A 
ATOM      8  C   UNL     1       0.152   9.715  21.100  0.00  0.00    +0.000 A 
ATOM      9  C   UNL     1      -0.463  10.979  20.984  0.00  0.00    +0.000 A 
BRANCH   3  11
ATOM     10  C   UNL     1      -0.321  13.888  18.766  0.00  0.00    +0.000 C 
ATOM     11  O   UNL     1      -0.785  13.008  19.782  0.00  0.00    +0.000 OA
ENDBRANCH   3  11
BRANCH   8  12
ATOM     12  O   UNL     1      -0.088   9.018  22.268  0.00  0.00    +0.000 OA
ATOM     13  H   UNL     1      -0.584   8.191  22.076  0.00  0.00    +0.000 HD
ENDBRANCH   8  12
BRANCH   9  14
ATOM     14  C   UNL     1      -1.334  11.453  22.100  0.00  0.00    +0.000 C 
ATOM     15  O   UNL     1      -0.940  11.725  23.228  0.00  0.00    +0.000 OA
ENDBRANCH   9  14
ENDBRANCH   1   7
BRANCH   1  16
ATOM     16  O   UNL     1       1.935   7.168  19.187  0.00  0.00    +0.000 OA
BRANCH  16  17
ATOM     17  C   UNL     1       2.445   5.855  19.301  0.00  0.00    +0.000 A 
ATOM     18  C   UNL     1       1.875   4.970  20.222  0.00  0.00    +0.000 A 
ATOM     19  C   UNL     1       2.436   3.707  20.474  0.00  0.00    +0.000 A 
ATOM     20  C   UNL     1       1.744   2.863  21.510  0.00  0.00    +0.000 C 
ATOM     21  C   UNL     1       3.613   3.344  19.780  0.00  0.00    +0.000 A 
ATOM     22  C   UNL     1       4.185   4.263  18.860  0.00  0.00    +0.000 A 
ATOM     23  C   UNL     1       3.614   5.524  18.610  0.00  0.00    +0.000 A 
ATOM     24  C   UNL     1       4.240   6.507  17.657  0.00  0.00    +0.000 C 
BRANCH  21  25
ATOM     25  C   UNL     1       4.374   2.082  20.023  0.00  0.00    +0.000 C 
ATOM     26  O   UNL     1       4.974   1.903  21.071  0.00  0.00    +0.000 OA
BRANCH  25  27
ATOM     27  O   UNL     1       4.432   1.201  19.008  0.00  0.00    +0.000 OA
ATOM     28  H   UNL     1       4.848   1.532  18.196  0.00  0.00    +0.000 HD
ENDBRANCH  25  27
ENDBRANCH  21  25
BRANCH  22  29
ATOM     29  O   UNL     1       5.340   3.967  18.168  0.00  0.00    +0.000 OA
ATOM     30  H   UNL     1       5.133   3.858  17.214  0.00  0.00    +0.000 HD
ENDBRANCH  22  29
ENDBRANCH  16  17
ENDBRANCH   1  16
TORSDOF 9
ENDMDL
MODEL 7
REMARK VINA RESULT:      -6.7      1.541      2.236
REMARK  Name = 
REMARK  13 active torsions:
REMARK  status: ('A' for Active; 'I' for Inactive)
REMARK    1  A    between atoms: C_1  and  O_2
REMARK    2  A    between atoms: O_2  and  C_3
REMARK    3  A    between atoms: C_5  and  C_6
REMARK    4  A    between atoms: C_7  and  C_8
REMARK    5  A    between atoms: C_8  and  O_10
REMARK    6  A    between atoms: O_10  and  C_11
REMARK    7  A    between atoms: C_13  and  C_14
REMARK    8  A    between atoms: C_15  and  C_16
REMARK    9  A    between atoms: C_16  and  O_18
REMARK   10  A    between atoms: C_19  and  O_20
REMARK   11  A    between atoms: C_21  and  C_22
REMARK   12  A    between atoms: C_23  and  O_24
REMARK   13  A    between atoms: C_25  and  C_26
REMARK                            x       y       z     vdW  Elec       q    Type
REMARK                         _______ _______ _______ _____ _____    ______ ____
ROOT
ATOM      1  C   UNL     1       0.420   8.734  20.781  0.00  0.00    +0.000 C 
ATOM      2  O   UNL     1      -0.277   7.958  21.425  0.00  0.00    +0.000 OA
ENDROOT
BRANCH   1   7
ATOM      3  C   UNL     1      -0.798  12.839  20.023  0.00  0.00    +0.000 A 
ATOM      4  C   UNL     1      -0.748  11.923  18.967  0.00  0.00    +0.000 A 
ATOM      5  C   UNL     1      -0.388  10.570  19.157  0.00  0.00    +0.000 A 
ATOM      6  C   UNL     1      -0.359   9.710  17.920  0.00  0.00    +0.000 C 
ATOM      7  C   UNL     1      -0.056  10.122  20.456  0.00  0.00    +0.000 A 
ATOM      8  C   UNL     1      -0.121  11.052  21.525  0.00  0.00    +0.000 A 
ATOM      9  C   UNL     1      -0.488  12.398  21.316  0.00  0.00    +0.000 A 
BRANCH   3  11
ATOM     10  C   UNL     1      -0.191  14.905  18.986  0.00  0.00    +0.000 C 
ATOM     11  O   UNL     1      -1.064  14.166  19.830  0.00  0.00    +0.000 OA
ENDBRANCH   3  11
BRANCH   8  12
ATOM     12  O   UNL     1       0.187  10.692  22.823  0.00  0.00    +0.000 OA
ATOM     13  H   UNL     1      -0.412  11.148  23.455  0.00  0.00    +0.000 HD
ENDBRANCH   8  12
BRANCH   9  14
ATOM     14  C   UNL     1      -0.541  13.314  22.493  0.00  0.00    +0.000 C 
ATOM     15  O   UNL     1      -1.275  13.164  23.463  0.00  0.00    +0.000 OA
ENDBRANCH   9  14
ENDBRANCH   1   7
BRANCH   1  16
ATOM     16  O   UNL     1       1.708   8.486  20.354  0.00  0.00    +0.000 OA
BRANCH  16  17
ATOM     17  C   UNL     1       2.049   7.179  19.938  0.00  0.00    +0.000 A 
ATOM     18  C   UNL     1       1.865   6.105  20.816  0.00  0.00    +0.000 A 
ATOM     19  C   UNL     1       2.322   4.813  20.504  0.00  0.00    +0.000 A 
ATOM     20  C   UNL     1       2.088   3.753  21.546  0.00  0.00    +0.000 C 
ATOM     21  C   UNL     1       2.991   4.616  19.275  0.00  0.00    +0.000 A 
ATOM     22  C   UNL     1       3.181   5.722  18.405  0.00  0.00    +0.000 A 
ATOM     23  C   UNL     1       2.717   7.012  18.723  0.00  0.00    +0.000 A 
ATOM     24  C   UNL     1       2.947   8.187  17.812  0.00  0.00    +0.000 C 
BRANCH  21  25
ATOM     25  C   UNL     1       3.619   3.325  18.860  0.00  0.00    +0.000 C 
ATOM     26  O   UNL     1       2.940   2.405  18.435  0.00  0.00    +0.000 OA
BRANCH  25  27
ATOM     27  O   UNL     1       4.945   3.203  19.056  0.00  0.00    +0.000 OA
ATOM     28  H   UNL     1       5.489   3.890  18.640  0.00  0.00    +0.000 HD
ENDBRANCH  25  27
ENDBRANCH  21  25
BRANCH  22  29
ATOM     29  O   UNL     1       3.842   5.590  17.202  0.00  0.00    +0.000 OA
ATOM     30  H   UNL     1       3.653   6.370  16.636  0.00  0.00    +0.000 HD
ENDBRANCH  22  29
ENDBRANCH  16  17
ENDBRANCH   1  16
TORSDOF 9
ENDMDL
MODEL 8
REMARK VINA RESULT:      -6.6      2.211      7.979
REMARK  Name = 
REMARK  13 active torsions:
REMARK  status: ('A' for Active; 'I' for Inactive)
REMARK    1  A    between atoms: C_1  and  O_2
REMARK    2  A    between atoms: O_2  and  C_3
REMARK    3  A    between atoms: C_5  and  C_6
REMARK    4  A    between atoms: C_7  and  C_8
REMARK    5  A    between atoms: C_8  and  O_10
REMARK    6  A    between atoms: O_10  and  C_11
REMARK    7  A    between atoms: C_13  and  C_14
REMARK    8  A    between atoms: C_15  and  C_16
REMARK    9  A    between atoms: C_16  and  O_18
REMARK   10  A    between atoms: C_19  and  O_20
REMARK   11  A    between atoms: C_21  and  C_22
REMARK   12  A    between atoms: C_23  and  O_24
REMARK   13  A    between atoms: C_25  and  C_26
REMARK                            x       y       z     vdW  Elec       q    Type
REMARK                         _______ _______ _______ _____ _____    ______ ____
ROOT
ATOM      1  C   UNL     1       2.880   5.320  19.826  0.00  0.00    +0.000 C 
ATOM      2  O   UNL     1       3.235   5.023  20.962  0.00  0.00    +0.000 OA
ENDROOT
BRANCH   1   7
ATOM      3  C   UNL     1       5.329   3.952  16.503  0.00  0.00    +0.000 A 
ATOM      4  C   UNL     1       3.945   3.751  16.476  0.00  0.00    +0.000 A 
ATOM      5  C   UNL     1       3.096   4.199  17.512  0.00  0.00    +0.000 A 
ATOM      6  C   UNL     1       1.629   3.890  17.350  0.00  0.00    +0.000 C 
ATOM      7  C   UNL     1       3.659   4.866  18.623  0.00  0.00    +0.000 A 
ATOM      8  C   UNL     1       5.061   5.079  18.641  0.00  0.00    +0.000 A 
ATOM      9  C   UNL     1       5.892   4.628  17.593  0.00  0.00    +0.000 A 
BRANCH   3  11
ATOM     10  C   UNL     1       6.110   4.023  14.245  0.00  0.00    +0.000 C 
ATOM     11  O   UNL     1       6.163   3.448  15.545  0.00  0.00    +0.000 OA
ENDBRANCH   3  11
BRANCH   8  12
ATOM     12  O   UNL     1       5.687   5.723  19.691  0.00  0.00    +0.000 OA
ATOM     13  H   UNL     1       6.231   6.471  19.356  0.00  0.00    +0.000 HD
ENDBRANCH   8  12
BRANCH   9  14
ATOM     14  C   UNL     1       7.358   4.898  17.680  0.00  0.00    +0.000 C 
ATOM     15  O   UNL     1       8.066   4.610  18.638  0.00  0.00    +0.000 OA
ENDBRANCH   9  14
ENDBRANCH   1   7
BRANCH   1  16
ATOM     16  O   UNL     1       1.728   6.007  19.504  0.00  0.00    +0.000 OA
BRANCH  16  17
ATOM     17  C   UNL     1       1.637   7.378  19.836  0.00  0.00    +0.000 A 
ATOM     18  C   UNL     1       1.178   7.752  21.103  0.00  0.00    +0.000 A 
ATOM     19  C   UNL     1       0.932   9.096  21.430  0.00  0.00    +0.000 A 
ATOM     20  C   UNL     1       0.413   9.362  22.817  0.00  0.00    +0.000 C 
ATOM     21  C   UNL     1       1.147  10.079  20.437  0.00  0.00    +0.000 A 
ATOM     22  C   UNL     1       1.597   9.677  19.151  0.00  0.00    +0.000 A 
ATOM     23  C   UNL     1       1.845   8.329  18.833  0.00  0.00    +0.000 A 
ATOM     24  C   UNL     1       2.294   7.904  17.461  0.00  0.00    +0.000 C 
BRANCH  21  25
ATOM     25  C   UNL     1       0.828  11.528  20.609  0.00  0.00    +0.000 C 
ATOM     26  O   UNL     1       1.551  12.255  21.272  0.00  0.00    +0.000 OA
BRANCH  25  27
ATOM     27  O   UNL     1      -0.325  11.967  20.072  0.00  0.00    +0.000 OA
ATOM     28  H   UNL     1      -1.064  11.338  20.110  0.00  0.00    +0.000 HD
ENDBRANCH  25  27
ENDBRANCH  21  25
BRANCH  22  29
ATOM     29  O   UNL     1       1.806  10.591  18.141  0.00  0.00    +0.000 OA
ATOM     30  H   UNL     1       1.278  11.401  18.316  0.00  0.00    +0.000 HD
ENDBRANCH  22  29
ENDBRANCH  16  17
ENDBRANCH   1  16
TORSDOF 9
ENDMDL
MODEL 9
REMARK VINA RESULT:      -6.4      1.802      2.959
REMARK  Name = 
REMARK  13 active torsions:
REMARK  status: ('A' for Active; 'I' for Inactive)
REMARK    1  A    between atoms: C_1  and  O_2
REMARK    2  A    between atoms: O_2  and  C_3
REMARK    3  A    between atoms: C_5  and  C_6
REMARK    4  A    between atoms: C_7  and  C_8
REMARK    5  A    between atoms: C_8  and  O_10
REMARK    6  A    between atoms: O_10  and  C_11
REMARK    7  A    between atoms: C_13  and  C_14
REMARK    8  A    between atoms: C_15  and  C_16
REMARK    9  A    between atoms: C_16  and  O_18
REMARK   10  A    between atoms: C_19  and  O_20
REMARK   11  A    between atoms: C_21  and  C_22
REMARK   12  A    between atoms: C_23  and  O_24
REMARK   13  A    between atoms: C_25  and  C_26
REMARK                            x       y       z     vdW  Elec       q    Type
REMARK                         _______ _______ _______ _____ _____    ______ ____
ROOT
ATOM      1  C   UNL     1       0.278   8.335  20.890  0.00  0.00    +0.000 C 
ATOM      2  O   UNL     1      -0.456   7.430  21.273  0.00  0.00    +0.000 OA
ENDROOT
BRANCH   1   7
ATOM      3  C   UNL     1      -1.123  12.451  20.846  0.00  0.00    +0.000 A 
ATOM      4  C   UNL     1      -0.929  11.795  22.067  0.00  0.00    +0.000 A 
ATOM      5  C   UNL     1      -0.448  10.470  22.144  0.00  0.00    +0.000 A 
ATOM      6  C   UNL     1      -0.311   9.892  23.530  0.00  0.00    +0.000 C 
ATOM      7  C   UNL     1      -0.160   9.771  20.950  0.00  0.00    +0.000 A 
ATOM      8  C   UNL     1      -0.347  10.444  19.715  0.00  0.00    +0.000 A 
ATOM      9  C   UNL     1      -0.823  11.771  19.659  0.00  0.00    +0.000 A 
BRANCH   3  11
ATOM     10  C   UNL     1      -3.003  13.879  21.216  0.00  0.00    +0.000 C 
ATOM     11  O   UNL     1      -1.666  13.702  20.764  0.00  0.00    +0.000 OA
ENDBRANCH   3  11
BRANCH   8  12
ATOM     12  O   UNL     1      -0.087   9.830  18.505  0.00  0.00    +0.000 OA
ATOM     13  H   UNL     1      -0.898   9.389  18.166  0.00  0.00    +0.000 HD
ENDBRANCH   8  12
BRANCH   9  14
ATOM     14  C   UNL     1      -0.985  12.414  18.322  0.00  0.00    +0.000 C 
ATOM     15  O   UNL     1      -1.776  12.048  17.461  0.00  0.00    +0.000 OA
ENDBRANCH   9  14
ENDBRANCH   1   7
BRANCH   1  16
ATOM     16  O   UNL     1       1.576   8.178  20.450  0.00  0.00    +0.000 OA
BRANCH  16  17
ATOM     17  C   UNL     1       2.000   6.901  20.017  0.00  0.00    +0.000 A 
ATOM     18  C   UNL     1       1.870   5.803  20.873  0.00  0.00    +0.000 A 
ATOM     19  C   UNL     1       2.408   4.547  20.546  0.00  0.00    +0.000 A 
ATOM     20  C   UNL     1       2.225   3.456  21.567  0.00  0.00    +0.000 C 
ATOM     21  C   UNL     1       3.104   4.412  19.323  0.00  0.00    +0.000 A 
ATOM     22  C   UNL     1       3.238   5.543  18.475  0.00  0.00    +0.000 A 
ATOM     23  C   UNL     1       2.693   6.797  18.808  0.00  0.00    +0.000 A 
ATOM     24  C   UNL     1       2.863   8.000  17.920  0.00  0.00    +0.000 C 
BRANCH  21  25
ATOM     25  C   UNL     1       3.814   3.169  18.895  0.00  0.00    +0.000 C 
ATOM     26  O   UNL     1       3.194   2.206  18.474  0.00  0.00    +0.000 OA
BRANCH  25  27
ATOM     27  O   UNL     1       5.147   3.137  19.074  0.00  0.00    +0.000 OA
ATOM     28  H   UNL     1       5.493   2.314  19.456  0.00  0.00    +0.000 HD
ENDBRANCH  25  27
ENDBRANCH  21  25
BRANCH  22  29
ATOM     29  O   UNL     1       3.920   5.472  17.279  0.00  0.00    +0.000 OA
ATOM     30  H   UNL     1       3.725   6.270  16.741  0.00  0.00    +0.000 HD
ENDBRANCH  22  29
ENDBRANCH  16  17
ENDBRANCH   1  16
TORSDOF 9
ENDMDL
