MODEL 1
REMARK VINA RESULT:      -8.1      0.000      0.000
REMARK  Name = 
REMARK  8 active torsions:
REMARK  status: ('A' for Active; 'I' for Inactive)
REMARK    1  A    between atoms: C_1  and  O_2
REMARK    2  A    between atoms: O_2  and  C_3
REMARK    3  A    between atoms: C_8  and  C_9
REMARK    4  A    between atoms: C_14  and  O_15
REMARK    5  A    between atoms: O_15  and  C_16
REMARK    6  A    between atoms: C_19  and  O_21
REMARK    7  A    between atoms: O_21  and  C_22
REMARK    8  A    between atoms: C_22  and  C_23
REMARK                            x       y       z     vdW  Elec       q    Type
REMARK                         _______ _______ _______ _____ _____    ______ ____
ROOT
ATOM      1  O   UNL     1       2.709   5.927  17.591  0.00  0.00    +0.000 OA
ENDROOT
BRANCH   1   7
ATOM      2  C   UNL     1       3.935   3.877  18.062  0.00  0.00    +0.000 A 
ATOM      3  C   UNL     1       3.851   2.619  18.697  0.00  0.00    +0.000 A 
ATOM      4  C   UNL     1       2.743   2.246  19.452  0.00  0.00    +0.000 A 
ATOM      5  C   UNL     1       1.697   3.136  19.546  0.00  0.00    +0.000 A 
ATOM      6  N   UNL     1       1.688   4.339  18.942  0.00  0.00    +0.000 NA
ATOM      7  C   UNL     1       2.786   4.690  18.220  0.00  0.00    +0.000 A 
BRANCH   2  13
ATOM      8  C   UNL     1       6.405   4.593  17.792  0.00  0.00    +0.000 A 
ATOM      9  C   UNL     1       7.495   4.756  16.930  0.00  0.00    +0.000 A 
ATOM     10  N   UNL     1       7.451   4.577  15.592  0.00  0.00    +0.000 NA
ATOM     11  C   UNL     1       6.260   4.225  15.084  0.00  0.00    +0.000 A 
ATOM     12  C   UNL     1       5.118   4.026  15.847  0.00  0.00    +0.000 A 
ATOM     13  C   UNL     1       5.152   4.201  17.243  0.00  0.00    +0.000 A 
BRANCH   8  15
ATOM     14  C   UNL     1       7.570   5.658  19.591  0.00  0.00    +0.000 C 
ATOM     15  O   UNL     1       6.501   4.819  19.147  0.00  0.00    +0.000 OA
ENDBRANCH   8  15
ENDBRANCH   2  13
ENDBRANCH   1   7
BRANCH   1  16
ATOM     16  C   UNL     1       2.933   7.107  18.426  0.00  0.00    +0.000 C 
ATOM     17  C   UNL     1       2.532   8.452  17.784  0.00  0.00    +0.000 C 
ATOM     18  N   UNL     1       1.664   8.692  18.919  0.00  0.00    +0.000 N 
ATOM     19  C   UNL     1       1.135   9.878  19.348  0.00  0.00    +0.000 C 
ATOM     20  O   UNL     1       1.205  10.913  18.691  0.00  0.00    +0.000 OA
ATOM     21  C   UNL     1       1.932   7.425  19.569  0.00  0.00    +0.000 C 
BRANCH  19  22
ATOM     22  O   UNL     1       0.560   9.790  20.580  0.00  0.00    +0.000 OA
BRANCH  22  23
ATOM     23  C   UNL     1       0.607  10.987  21.379  0.00  0.00    +0.000 C 
BRANCH  23  24
ATOM     24  C   UNL     1      -0.767  11.539  21.689  0.00  0.00    +0.000 A 
ATOM     25  C   UNL     1      -1.340  11.372  22.959  0.00  0.00    +0.000 A 
ATOM     26  C   UNL     1      -2.590  11.924  23.255  0.00  0.00    +0.000 A 
ATOM     27  C   UNL     1      -3.284  12.648  22.288  0.00  0.00    +0.000 A 
ATOM     28  C   UNL     1      -2.726  12.822  21.022  0.00  0.00    +0.000 A 
ATOM     29  C   UNL     1      -1.477  12.269  20.723  0.00  0.00    +0.000 A 
ENDBRANCH  23  24
ENDBRANCH  22  23
ENDBRANCH  19  22
ENDBRANCH   1  16
TORSDOF 7
ENDMDL
MODEL 2
REMARK VINA RESULT:      -8.0      2.158      4.154
REMARK  Name = 
REMARK  8 active torsions:
REMARK  status: ('A' for Active; 'I' for Inactive)
REMARK    1  A    between atoms: C_1  and  O_2
REMARK    2  A    between atoms: O_2  and  C_3
REMARK    3  A    between atoms: C_8  and  C_9
REMARK    4  A    between atoms: C_14  and  O_15
REMARK    5  A    between atoms: O_15  and  C_16
REMARK    6  A    between atoms: C_19  and  O_21
REMARK    7  A    between atoms: O_21  and  C_22
REMARK    8  A    between atoms: C_22  and  C_23
REMARK                            x       y       z     vdW  Elec       q    Type
REMARK                         _______ _______ _______ _____ _____    ______ ____
ROOT
ATOM      1  O   UNL     1       4.209   6.456  18.521  0.00  0.00    +0.000 OA
ENDROOT
BRANCH   1   7
ATOM      2  C   UNL     1       4.183   4.350  17.300  0.00  0.00    +0.000 A 
ATOM      3  C   UNL     1       4.795   3.636  16.247  0.00  0.00    +0.000 A 
ATOM      4  C   UNL     1       5.768   4.208  15.434  0.00  0.00    +0.000 A 
ATOM      5  C   UNL     1       6.150   5.504  15.699  0.00  0.00    +0.000 A 
ATOM      6  N   UNL     1       5.637   6.239  16.705  0.00  0.00    +0.000 NA
ATOM      7  C   UNL     1       4.678   5.665  17.480  0.00  0.00    +0.000 A 
BRANCH   2  13
ATOM      8  C   UNL     1       3.448   3.002  19.380  0.00  0.00    +0.000 A 
ATOM      9  C   UNL     1       2.387   2.495  20.140  0.00  0.00    +0.000 A 
ATOM     10  N   UNL     1       1.085   2.573  19.789  0.00  0.00    +0.000 NA
ATOM     11  C   UNL     1       0.824   3.178  18.620  0.00  0.00    +0.000 A 
ATOM     12  C   UNL     1       1.797   3.725  17.794  0.00  0.00    +0.000 A 
ATOM     13  C   UNL     1       3.157   3.658  18.152  0.00  0.00    +0.000 A 
BRANCH   8  15
ATOM     14  C   UNL     1       5.079   1.748  20.603  0.00  0.00    +0.000 C 
ATOM     15  O   UNL     1       4.760   2.867  19.774  0.00  0.00    +0.000 OA
ENDBRANCH   8  15
ENDBRANCH   2  13
ENDBRANCH   1   7
BRANCH   1  16
ATOM     16  C   UNL     1       2.807   6.864  18.461  0.00  0.00    +0.000 C 
ATOM     17  C   UNL     1       2.150   7.165  19.824  0.00  0.00    +0.000 C 
ATOM     18  N   UNL     1       1.818   8.487  19.330  0.00  0.00    +0.000 N 
ATOM     19  C   UNL     1       0.884   9.364  19.810  0.00  0.00    +0.000 C 
ATOM     20  O   UNL     1       0.297   9.192  20.875  0.00  0.00    +0.000 OA
ATOM     21  C   UNL     1       2.461   8.319  18.043  0.00  0.00    +0.000 C 
BRANCH  19  22
ATOM     22  O   UNL     1       0.659  10.414  18.972  0.00  0.00    +0.000 OA
BRANCH  22  23
ATOM     23  C   UNL     1      -0.485  11.229  19.284  0.00  0.00    +0.000 C 
BRANCH  23  24
ATOM     24  C   UNL     1      -1.654  10.978  18.357  0.00  0.00    +0.000 A 
ATOM     25  C   UNL     1      -2.864  11.671  18.519  0.00  0.00    +0.000 A 
ATOM     26  C   UNL     1      -3.925  11.470  17.632  0.00  0.00    +0.000 A 
ATOM     27  C   UNL     1      -3.794  10.573  16.574  0.00  0.00    +0.000 A 
ATOM     28  C   UNL     1      -2.599   9.878  16.400  0.00  0.00    +0.000 A 
ATOM     29  C   UNL     1      -1.536  10.076  17.288  0.00  0.00    +0.000 A 
ENDBRANCH  23  24
ENDBRANCH  22  23
ENDBRANCH  19  22
ENDBRANCH   1  16
TORSDOF 7
ENDMDL
MODEL 3
REMARK VINA RESULT:      -7.9      1.954      2.522
REMARK  Name = 
REMARK  8 active torsions:
REMARK  status: ('A' for Active; 'I' for Inactive)
REMARK    1  A    between atoms: C_1  and  O_2
REMARK    2  A    between atoms: O_2  and  C_3
REMARK    3  A    between atoms: C_8  and  C_9
REMARK    4  A    between atoms: C_14  and  O_15
REMARK    5  A    between atoms: O_15  and  C_16
REMARK    6  A    between atoms: C_19  and  O_21
REMARK    7  A    between atoms: O_21  and  C_22
REMARK    8  A    between atoms: C_22  and  C_23
REMARK                            x       y       z     vdW  Elec       q    Type
REMARK                         _______ _______ _______ _____ _____    ______ ____
ROOT
ATOM      1  O   UNL     1       3.473   6.314  19.621  0.00  0.00    +0.000 OA
ENDROOT
BRANCH   1   7
ATOM      2  C   UNL     1       4.276   4.178  18.771  0.00  0.00    +0.000 A 
ATOM      3  C   UNL     1       4.153   2.779  18.907  0.00  0.00    +0.000 A 
ATOM      4  C   UNL     1       3.364   2.200  19.897  0.00  0.00    +0.000 A 
ATOM      5  C   UNL     1       2.671   3.037  20.742  0.00  0.00    +0.000 A 
ATOM      6  N   UNL     1       2.710   4.381  20.654  0.00  0.00    +0.000 NA
ATOM      7  C   UNL     1       3.497   4.926  19.688  0.00  0.00    +0.000 A 
BRANCH   2  13
ATOM      8  C   UNL     1       6.533   4.924  17.754  0.00  0.00    +0.000 A 
ATOM      9  C   UNL     1       7.230   5.339  16.614  0.00  0.00    +0.000 A 
ATOM     10  N   UNL     1       6.662   5.584  15.413  0.00  0.00    +0.000 NA
ATOM     11  C   UNL     1       5.333   5.417  15.344  0.00  0.00    +0.000 A 
ATOM     12  C   UNL     1       4.546   4.999  16.408  0.00  0.00    +0.000 A 
ATOM     13  C   UNL     1       5.126   4.732  17.663  0.00  0.00    +0.000 A 
BRANCH   8  15
ATOM     14  C   UNL     1       7.939   5.799  19.482  0.00  0.00    +0.000 C 
ATOM     15  O   UNL     1       7.161   4.719  18.962  0.00  0.00    +0.000 OA
ENDBRANCH   8  15
ENDBRANCH   2  13
ENDBRANCH   1   7
BRANCH   1  16
ATOM     16  C   UNL     1       2.169   6.943  19.416  0.00  0.00    +0.000 C 
ATOM     17  C   UNL     1       1.647   7.776  20.606  0.00  0.00    +0.000 C 
ATOM     18  N   UNL     1       1.541   8.913  19.714  0.00  0.00    +0.000 N 
ATOM     19  C   UNL     1       0.810  10.058  19.878  0.00  0.00    +0.000 C 
ATOM     20  O   UNL     1       0.255  10.344  20.935  0.00  0.00    +0.000 OA
ATOM     21  C   UNL     1       2.079   8.230  18.554  0.00  0.00    +0.000 C 
BRANCH  19  22
ATOM     22  O   UNL     1       0.743  10.815  18.748  0.00  0.00    +0.000 OA
BRANCH  22  23
ATOM     23  C   UNL     1      -0.259  11.848  18.746  0.00  0.00    +0.000 C 
BRANCH  23  24
ATOM     24  C   UNL     1      -1.616  11.348  18.303  0.00  0.00    +0.000 A 
ATOM     25  C   UNL     1      -2.793  11.961  18.759  0.00  0.00    +0.000 A 
ATOM     26  C   UNL     1      -4.044  11.526  18.312  0.00  0.00    +0.000 A 
ATOM     27  C   UNL     1      -4.136  10.472  17.405  0.00  0.00    +0.000 A 
ATOM     28  C   UNL     1      -2.975   9.853  16.944  0.00  0.00    +0.000 A 
ATOM     29  C   UNL     1      -1.723  10.286  17.392  0.00  0.00    +0.000 A 
ENDBRANCH  23  24
ENDBRANCH  22  23
ENDBRANCH  19  22
ENDBRANCH   1  16
TORSDOF 7
ENDMDL
MODEL 4
REMARK VINA RESULT:      -7.8      1.165      1.381
REMARK  Name = 
REMARK  8 active torsions:
REMARK  status: ('A' for Active; 'I' for Inactive)
REMARK    1  A    between atoms: C_1  and  O_2
REMARK    2  A    between atoms: O_2  and  C_3
REMARK    3  A    between atoms: C_8  and  C_9
REMARK    4  A    between atoms: C_14  and  O_15
REMARK    5  A    between atoms: O_15  and  C_16
REMARK    6  A    between atoms: C_19  and  O_21
REMARK    7  A    between atoms: O_21  and  C_22
REMARK    8  A    between atoms: C_22  and  C_23
REMARK                            x       y       z     vdW  Elec       q    Type
REMARK                         _______ _______ _______ _____ _____    ______ ____
ROOT
ATOM      1  O   UNL     1       2.042   5.431  19.005  0.00  0.00    +0.000 OA
ENDROOT
BRANCH   1   7
ATOM      2  C   UNL     1       3.798   3.784  19.364  0.00  0.00    +0.000 A 
ATOM      3  C   UNL     1       4.183   2.683  20.159  0.00  0.00    +0.000 A 
ATOM      4  C   UNL     1       3.430   2.263  21.252  0.00  0.00    +0.000 A 
ATOM      5  C   UNL     1       2.264   2.940  21.531  0.00  0.00    +0.000 A 
ATOM      6  N   UNL     1       1.813   3.977  20.799  0.00  0.00    +0.000 NA
ATOM      7  C   UNL     1       2.570   4.380  19.744  0.00  0.00    +0.000 A 
BRANCH   2  13
ATOM      8  C   UNL     1       5.926   4.782  18.287  0.00  0.00    +0.000 A 
ATOM      9  C   UNL     1       6.670   4.983  17.119  0.00  0.00    +0.000 A 
ATOM     10  N   UNL     1       6.261   4.639  15.878  0.00  0.00    +0.000 NA
ATOM     11  C   UNL     1       5.047   4.074  15.793  0.00  0.00    +0.000 A 
ATOM     12  C   UNL     1       4.231   3.820  16.886  0.00  0.00    +0.000 A 
ATOM     13  C   UNL     1       4.648   4.165  18.185  0.00  0.00    +0.000 A 
BRANCH   8  15
ATOM     14  C   UNL     1       7.752   5.576  19.615  0.00  0.00    +0.000 C 
ATOM     15  O   UNL     1       6.382   5.181  19.523  0.00  0.00    +0.000 OA
ENDBRANCH   8  15
ENDBRANCH   2  13
ENDBRANCH   1   7
BRANCH   1  16
ATOM     16  C   UNL     1       2.640   6.749  19.210  0.00  0.00    +0.000 C 
ATOM     17  C   UNL     1       2.684   7.654  17.961  0.00  0.00    +0.000 C 
ATOM     18  N   UNL     1       1.951   8.656  18.707  0.00  0.00    +0.000 N 
ATOM     19  C   UNL     1       1.834   9.994  18.445  0.00  0.00    +0.000 C 
ATOM     20  O   UNL     1       2.224  10.502  17.397  0.00  0.00    +0.000 OA
ATOM     21  C   UNL     1       1.806   7.858  19.907  0.00  0.00    +0.000 C 
BRANCH  19  22
ATOM     22  O   UNL     1       1.275  10.691  19.473  0.00  0.00    +0.000 OA
BRANCH  22  23
ATOM     23  C   UNL     1      -0.129  10.984  19.340  0.00  0.00    +0.000 C 
BRANCH  23  24
ATOM     24  C   UNL     1      -0.813  11.193  20.673  0.00  0.00    +0.000 A 
ATOM     25  C   UNL     1      -0.422  10.461  21.805  0.00  0.00    +0.000 A 
ATOM     26  C   UNL     1      -1.025  10.690  23.046  0.00  0.00    +0.000 A 
ATOM     27  C   UNL     1      -2.027  11.650  23.171  0.00  0.00    +0.000 A 
ATOM     28  C   UNL     1      -2.425  12.384  22.056  0.00  0.00    +0.000 A 
ATOM     29  C   UNL     1      -1.824  12.155  20.813  0.00  0.00    +0.000 A 
ENDBRANCH  23  24
ENDBRANCH  22  23
ENDBRANCH  19  22
ENDBRANCH   1  16
TORSDOF 7
ENDMDL
MODEL 5
REMARK VINA RESULT:      -7.8      0.975      1.732
REMARK  Name = 
REMARK  8 active torsions:
REMARK  status: ('A' for Active; 'I' for Inactive)
REMARK    1  A    between atoms: C_1  and  O_2
REMARK    2  A    between atoms: O_2  and  C_3
REMARK    3  A    between atoms: C_8  and  C_9
REMARK    4  A    between atoms: C_14  and  O_15
REMARK    5  A    between atoms: O_15  and  C_16
REMARK    6  A    between atoms: C_19  and  O_21
REMARK    7  A    between atoms: O_21  and  C_22
REMARK    8  A    between atoms: C_22  and  C_23
REMARK                            x       y       z     vdW  Elec       q    Type
REMARK                         _______ _______ _______ _____ _____    ______ ____
ROOT
ATOM      1  O   UNL     1       2.808   5.997  17.436  0.00  0.00    +0.000 OA
ENDROOT
BRANCH   1   7
ATOM      2  C   UNL     1       3.867   4.032  18.408  0.00  0.00    +0.000 A 
ATOM      3  C   UNL     1       3.619   2.744  18.928  0.00  0.00    +0.000 A 
ATOM      4  C   UNL     1       2.328   2.248  19.088  0.00  0.00    +0.000 A 
ATOM      5  C   UNL     1       1.277   3.047  18.695  0.00  0.00    +0.000 A 
ATOM      6  N   UNL     1       1.434   4.272  18.160  0.00  0.00    +0.000 NA
ATOM      7  C   UNL     1       2.703   4.743  18.024  0.00  0.00    +0.000 A 
BRANCH   2  13
ATOM      8  C   UNL     1       6.018   4.405  17.022  0.00  0.00    +0.000 A 
ATOM      9  C   UNL     1       7.296   4.972  16.963  0.00  0.00    +0.000 A 
ATOM     10  N   UNL     1       7.907   5.598  17.993  0.00  0.00    +0.000 NA
ATOM     11  C   UNL     1       7.217   5.657  19.141  0.00  0.00    +0.000 A 
ATOM     12  C   UNL     1       5.940   5.138  19.307  0.00  0.00    +0.000 A 
ATOM     13  C   UNL     1       5.288   4.490  18.241  0.00  0.00    +0.000 A 
BRANCH   8  15
ATOM     14  C   UNL     1       5.660   4.329  14.657  0.00  0.00    +0.000 C 
ATOM     15  O   UNL     1       5.457   3.751  15.949  0.00  0.00    +0.000 OA
ENDBRANCH   8  15
ENDBRANCH   2  13
ENDBRANCH   1   7
BRANCH   1  16
ATOM     16  C   UNL     1       2.986   7.136  18.336  0.00  0.00    +0.000 C 
ATOM     17  C   UNL     1       2.580   8.505  17.752  0.00  0.00    +0.000 C 
ATOM     18  N   UNL     1       1.675   8.672  18.872  0.00  0.00    +0.000 N 
ATOM     19  C   UNL     1       1.112   9.825  19.346  0.00  0.00    +0.000 C 
ATOM     20  O   UNL     1       1.183  10.894  18.745  0.00  0.00    +0.000 OA
ATOM     21  C   UNL     1       1.947   7.377  19.464  0.00  0.00    +0.000 C 
BRANCH  19  22
ATOM     22  O   UNL     1       0.504   9.664  20.554  0.00  0.00    +0.000 OA
BRANCH  22  23
ATOM     23  C   UNL     1       0.576  10.792  21.445  0.00  0.00    +0.000 C 
BRANCH  23  24
ATOM     24  C   UNL     1      -0.779  11.407  21.722  0.00  0.00    +0.000 A 
ATOM     25  C   UNL     1      -1.340  11.363  23.007  0.00  0.00    +0.000 A 
ATOM     26  C   UNL     1      -2.570  11.974  23.270  0.00  0.00    +0.000 A 
ATOM     27  C   UNL     1      -3.256  12.633  22.252  0.00  0.00    +0.000 A 
ATOM     28  C   UNL     1      -2.711  12.684  20.971  0.00  0.00    +0.000 A 
ATOM     29  C   UNL     1      -1.481  12.073  20.705  0.00  0.00    +0.000 A 
ENDBRANCH  23  24
ENDBRANCH  22  23
ENDBRANCH  19  22
ENDBRANCH   1  16
TORSDOF 7
ENDMDL
MODEL 6
REMARK VINA RESULT:      -7.7      2.180      2.876
REMARK  Name = 
REMARK  8 active torsions:
REMARK  status: ('A' for Active; 'I' for Inactive)
REMARK    1  A    between atoms: C_1  and  O_2
REMARK    2  A    between atoms: O_2  and  C_3
REMARK    3  A    between atoms: C_8  and  C_9
REMARK    4  A    between atoms: C_14  and  O_15
REMARK    5  A    between atoms: O_15  and  C_16
REMARK    6  A    between atoms: C_19  and  O_21
REMARK    7  A    between atoms: O_21  and  C_22
REMARK    8  A    between atoms: C_22  and  C_23
REMARK                            x       y       z     vdW  Elec       q    Type
REMARK                         _______ _______ _______ _____ _____    ______ ____
ROOT
ATOM      1  O   UNL     1       3.174   6.176  18.323  0.00  0.00    +0.000 OA
ENDROOT
BRANCH   1   7
ATOM      2  C   UNL     1       3.884   3.931  17.701  0.00  0.00    +0.000 A 
ATOM      3  C   UNL     1       3.509   2.571  17.723  0.00  0.00    +0.000 A 
ATOM      4  C   UNL     1       2.348   2.135  18.355  0.00  0.00    +0.000 A 
ATOM      5  C   UNL     1       1.543   3.081  18.948  0.00  0.00    +0.000 A 
ATOM      6  N   UNL     1       1.815   4.399  18.941  0.00  0.00    +0.000 NA
ATOM      7  C   UNL     1       2.961   4.803  18.329  0.00  0.00    +0.000 A 
BRANCH   2  13
ATOM      8  C   UNL     1       6.358   4.679  17.625  0.00  0.00    +0.000 A 
ATOM      9  C   UNL     1       7.490   4.922  16.839  0.00  0.00    +0.000 A 
ATOM     10  N   UNL     1       7.517   4.860  15.490  0.00  0.00    +0.000 NA
ATOM     11  C   UNL     1       6.357   4.549  14.891  0.00  0.00    +0.000 A 
ATOM     12  C   UNL     1       5.178   4.279  15.573  0.00  0.00    +0.000 A 
ATOM     13  C   UNL     1       5.139   4.332  16.979  0.00  0.00    +0.000 A 
BRANCH   8  15
ATOM     14  C   UNL     1       7.436   5.565  19.570  0.00  0.00    +0.000 C 
ATOM     15  O   UNL     1       6.383   4.787  18.997  0.00  0.00    +0.000 OA
ENDBRANCH   8  15
ENDBRANCH   2  13
ENDBRANCH   1   7
BRANCH   1  16
ATOM     16  C   UNL     1       1.990   7.028  18.426  0.00  0.00    +0.000 C 
ATOM     17  C   UNL     1       1.826   7.764  19.772  0.00  0.00    +0.000 C 
ATOM     18  N   UNL     1       1.787   9.015  19.041  0.00  0.00    +0.000 N 
ATOM     19  C   UNL     1       1.313  10.229  19.456  0.00  0.00    +0.000 C 
ATOM     20  O   UNL     1       0.995  10.454  20.621  0.00  0.00    +0.000 OA
ATOM     21  C   UNL     1       1.999   8.419  17.737  0.00  0.00    +0.000 C 
BRANCH  19  22
ATOM     22  O   UNL     1       1.204  11.134  18.444  0.00  0.00    +0.000 OA
BRANCH  22  23
ATOM     23  C   UNL     1       2.289  12.073  18.326  0.00  0.00    +0.000 C 
BRANCH  23  24
ATOM     24  C   UNL     1       1.832  13.512  18.420  0.00  0.00    +0.000 A 
ATOM     25  C   UNL     1       0.494  13.824  18.708  0.00  0.00    +0.000 A 
ATOM     26  C   UNL     1       0.085  15.155  18.840  0.00  0.00    +0.000 A 
ATOM     27  C   UNL     1       1.005  16.189  18.684  0.00  0.00    +0.000 A 
ATOM     28  C   UNL     1       2.337  15.894  18.397  0.00  0.00    +0.000 A 
ATOM     29  C   UNL     1       2.748  14.563  18.263  0.00  0.00    +0.000 A 
ENDBRANCH  23  24
ENDBRANCH  22  23
ENDBRANCH  19  22
ENDBRANCH   1  16
TORSDOF 7
ENDMDL
MODEL 7
REMARK VINA RESULT:      -7.7      1.777      2.318
REMARK  Name = 
REMARK  8 active torsions:
REMARK  status: ('A' for Active; 'I' for Inactive)
REMARK    1  A    between atoms: C_1  and  O_2
REMARK    2  A    between atoms: O_2  and  C_3
REMARK    3  A    between atoms: C_8  and  C_9
REMARK    4  A    between atoms: C_14  and  O_15
REMARK    5  A    between atoms: O_15  and  C_16
REMARK    6  A    between atoms: C_19  and  O_21
REMARK    7  A    between atoms: O_21  and  C_22
REMARK    8  A    between atoms: C_22  and  C_23
REMARK                            x       y       z     vdW  Elec       q    Type
REMARK                         _______ _______ _______ _____ _____    ______ ____
ROOT
ATOM      1  O   UNL     1       2.469   5.596  18.446  0.00  0.00    +0.000 OA
ENDROOT
BRANCH   1   7
ATOM      2  C   UNL     1       4.064   3.836  18.982  0.00  0.00    +0.000 A 
ATOM      3  C   UNL     1       4.305   2.739  19.837  0.00  0.00    +0.000 A 
ATOM      4  C   UNL     1       3.446   2.416  20.883  0.00  0.00    +0.000 A 
ATOM      5  C   UNL     1       2.319   3.188  21.055  0.00  0.00    +0.000 A 
ATOM      6  N   UNL     1       2.002   4.228  20.262  0.00  0.00    +0.000 NA
ATOM      7  C   UNL     1       2.862   4.536  19.253  0.00  0.00    +0.000 A 
BRANCH   2  13
ATOM      8  C   UNL     1       6.355   4.574  18.039  0.00  0.00    +0.000 A 
ATOM      9  C   UNL     1       7.187   4.681  16.918  0.00  0.00    +0.000 A 
ATOM     10  N   UNL     1       6.816   4.382  15.654  0.00  0.00    +0.000 NA
ATOM     11  C   UNL     1       5.551   3.964  15.494  0.00  0.00    +0.000 A 
ATOM     12  C   UNL     1       4.646   3.811  16.535  0.00  0.00    +0.000 A 
ATOM     13  C   UNL     1       5.022   4.110  17.858  0.00  0.00    +0.000 A 
BRANCH   8  15
ATOM     14  C   UNL     1       7.831   5.885  19.392  0.00  0.00    +0.000 C 
ATOM     15  O   UNL     1       6.779   4.922  19.302  0.00  0.00    +0.000 OA
ENDBRANCH   8  15
ENDBRANCH   2  13
ENDBRANCH   1   7
BRANCH   1  16
ATOM     16  C   UNL     1       2.879   6.935  18.869  0.00  0.00    +0.000 C 
ATOM     17  C   UNL     1       2.911   7.997  17.750  0.00  0.00    +0.000 C 
ATOM     18  N   UNL     1       1.999   8.801  18.539  0.00  0.00    +0.000 N 
ATOM     19  C   UNL     1       1.736  10.139  18.434  0.00  0.00    +0.000 C 
ATOM     20  O   UNL     1       2.144  10.824  17.499  0.00  0.00    +0.000 OA
ATOM     21  C   UNL     1       1.858   7.838  19.612  0.00  0.00    +0.000 C 
BRANCH  19  22
ATOM     22  O   UNL     1       1.012  10.624  19.481  0.00  0.00    +0.000 OA
BRANCH  22  23
ATOM     23  C   UNL     1      -0.253   9.979  19.718  0.00  0.00    +0.000 C 
BRANCH  23  24
ATOM     24  C   UNL     1      -1.315  10.386  18.720  0.00  0.00    +0.000 A 
ATOM     25  C   UNL     1      -2.209  11.429  19.007  0.00  0.00    +0.000 A 
ATOM     26  C   UNL     1      -3.159  11.833  18.064  0.00  0.00    +0.000 A 
ATOM     27  C   UNL     1      -3.230  11.201  16.825  0.00  0.00    +0.000 A 
ATOM     28  C   UNL     1      -2.348  10.164  16.527  0.00  0.00    +0.000 A 
ATOM     29  C   UNL     1      -1.398   9.756  17.469  0.00  0.00    +0.000 A 
ENDBRANCH  23  24
ENDBRANCH  22  23
ENDBRANCH  19  22
ENDBRANCH   1  16
TORSDOF 7
ENDMDL
MODEL 8
REMARK VINA RESULT:      -7.7      0.961      1.034
REMARK  Name = 
REMARK  8 active torsions:
REMARK  status: ('A' for Active; 'I' for Inactive)
REMARK    1  A    between atoms: C_1  and  O_2
REMARK    2  A    between atoms: O_2  and  C_3
REMARK    3  A    between atoms: C_8  and  C_9
REMARK    4  A    between atoms: C_14  and  O_15
REMARK    5  A    between atoms: O_15  and  C_16
REMARK    6  A    between atoms: C_19  and  O_21
REMARK    7  A    between atoms: O_21  and  C_22
REMARK    8  A    between atoms: C_22  and  C_23
REMARK                            x       y       z     vdW  Elec       q    Type
REMARK                         _______ _______ _______ _____ _____    ______ ____
ROOT
ATOM      1  O   UNL     1       2.414   5.711  18.249  0.00  0.00    +0.000 OA
ENDROOT
BRANCH   1   7
ATOM      2  C   UNL     1       3.887   3.859  18.824  0.00  0.00    +0.000 A 
ATOM      3  C   UNL     1       4.010   2.711  19.636  0.00  0.00    +0.000 A 
ATOM      4  C   UNL     1       3.051   2.372  20.585  0.00  0.00    +0.000 A 
ATOM      5  C   UNL     1       1.943   3.182  20.701  0.00  0.00    +0.000 A 
ATOM      6  N   UNL     1       1.737   4.274  19.941  0.00  0.00    +0.000 NA
ATOM      7  C   UNL     1       2.693   4.595  19.028  0.00  0.00    +0.000 A 
BRANCH   2  13
ATOM      8  C   UNL     1       6.240   4.661  18.115  0.00  0.00    +0.000 A 
ATOM      9  C   UNL     1       7.182   4.780  17.087  0.00  0.00    +0.000 A 
ATOM     10  N   UNL     1       6.958   4.449  15.797  0.00  0.00    +0.000 NA
ATOM     11  C   UNL     1       5.733   3.984  15.511  0.00  0.00    +0.000 A 
ATOM     12  C   UNL     1       4.727   3.816  16.454  0.00  0.00    +0.000 A 
ATOM     13  C   UNL     1       4.949   4.149  17.803  0.00  0.00    +0.000 A 
BRANCH   8  15
ATOM     14  C   UNL     1       7.739   5.748  19.632  0.00  0.00    +0.000 C 
ATOM     15  O   UNL     1       6.515   5.044  19.408  0.00  0.00    +0.000 OA
ENDBRANCH   8  15
ENDBRANCH   2  13
ENDBRANCH   1   7
BRANCH   1  16
ATOM     16  C   UNL     1       2.808   7.010  18.792  0.00  0.00    +0.000 C 
ATOM     17  C   UNL     1       2.637   8.204  17.829  0.00  0.00    +0.000 C 
ATOM     18  N   UNL     1       1.799   8.840  18.827  0.00  0.00    +0.000 N 
ATOM     19  C   UNL     1       1.457  10.160  18.935  0.00  0.00    +0.000 C 
ATOM     20  O   UNL     1       1.701  10.982  18.056  0.00  0.00    +0.000 OA
ATOM     21  C   UNL     1       1.852   7.742  19.771  0.00  0.00    +0.000 C 
BRANCH  19  22
ATOM     22  O   UNL     1       0.856  10.460  20.120  0.00  0.00    +0.000 OA
BRANCH  22  23
ATOM     23  C   UNL     1       1.032  11.810  20.586  0.00  0.00    +0.000 C 
BRANCH  23  24
ATOM     24  C   UNL     1      -0.034  12.233  21.572  0.00  0.00    +0.000 A 
ATOM     25  C   UNL     1      -0.926  11.295  22.114  0.00  0.00    +0.000 A 
ATOM     26  C   UNL     1      -1.880  11.682  23.061  0.00  0.00    +0.000 A 
ATOM     27  C   UNL     1      -1.957  13.009  23.476  0.00  0.00    +0.000 A 
ATOM     28  C   UNL     1      -1.078  13.952  22.946  0.00  0.00    +0.000 A 
ATOM     29  C   UNL     1      -0.124  13.568  21.998  0.00  0.00    +0.000 A 
ENDBRANCH  23  24
ENDBRANCH  22  23
ENDBRANCH  19  22
ENDBRANCH   1  16
TORSDOF 7
ENDMDL
MODEL 9
REMARK VINA RESULT:      -7.7      2.361      3.165
REMARK  Name = 
REMARK  8 active torsions:
REMARK  status: ('A' for Active; 'I' for Inactive)
REMARK    1  A    between atoms: C_1  and  O_2
REMARK    2  A    between atoms: O_2  and  C_3
REMARK    3  A    between atoms: C_8  and  C_9
REMARK    4  A    between atoms: C_14  and  O_15
REMARK    5  A    between atoms: O_15  and  C_16
REMARK    6  A    between atoms: C_19  and  O_21
REMARK    7  A    between atoms: O_21  and  C_22
REMARK    8  A    between atoms: C_22  and  C_23
REMARK                            x       y       z     vdW  Elec       q    Type
REMARK                         _______ _______ _______ _____ _____    ______ ____
ROOT
ATOM      1  O   UNL     1       3.123   6.218  18.139  0.00  0.00    +0.000 OA
ENDROOT
BRANCH   1   7
ATOM      2  C   UNL     1       3.856   3.963  17.587  0.00  0.00    +0.000 A 
ATOM      3  C   UNL     1       3.481   2.603  17.618  0.00  0.00    +0.000 A 
ATOM      4  C   UNL     1       2.296   2.177  18.212  0.00  0.00    +0.000 A 
ATOM      5  C   UNL     1       1.468   3.133  18.757  0.00  0.00    +0.000 A 
ATOM      6  N   UNL     1       1.740   4.452  18.736  0.00  0.00    +0.000 NA
ATOM      7  C   UNL     1       2.909   4.845  18.162  0.00  0.00    +0.000 A 
BRANCH   2  13
ATOM      8  C   UNL     1       6.346   4.661  17.592  0.00  0.00    +0.000 A 
ATOM      9  C   UNL     1       7.504   4.895  16.841  0.00  0.00    +0.000 A 
ATOM     10  N   UNL     1       7.566   4.858  15.492  0.00  0.00    +0.000 NA
ATOM     11  C   UNL     1       6.417   4.582  14.856  0.00  0.00    +0.000 A 
ATOM     12  C   UNL     1       5.215   4.323  15.501  0.00  0.00    +0.000 A 
ATOM     13  C   UNL     1       5.138   4.350  16.906  0.00  0.00    +0.000 A 
BRANCH   8  15
ATOM     14  C   UNL     1       7.350   5.540  19.578  0.00  0.00    +0.000 C 
ATOM     15  O   UNL     1       6.335   4.742  18.966  0.00  0.00    +0.000 OA
ENDBRANCH   8  15
ENDBRANCH   2  13
ENDBRANCH   1   7
BRANCH   1  16
ATOM     16  C   UNL     1       1.947   7.071  18.302  0.00  0.00    +0.000 C 
ATOM     17  C   UNL     1       1.801   7.731  19.690  0.00  0.00    +0.000 C 
ATOM     18  N   UNL     1       1.765   9.021  19.030  0.00  0.00    +0.000 N 
ATOM     19  C   UNL     1       1.304  10.213  19.518  0.00  0.00    +0.000 C 
ATOM     20  O   UNL     1       0.999  10.374  20.697  0.00  0.00    +0.000 OA
ATOM     21  C   UNL     1       1.959   8.499  17.693  0.00  0.00    +0.000 C 
BRANCH  19  22
ATOM     22  O   UNL     1       1.193  11.175  18.560  0.00  0.00    +0.000 OA
BRANCH  22  23
ATOM     23  C   UNL     1       0.607  12.418  18.987  0.00  0.00    +0.000 C 
BRANCH  23  24
ATOM     24  C   UNL     1       1.509  13.607  18.738  0.00  0.00    +0.000 A 
ATOM     25  C   UNL     1       2.844  13.428  18.347  0.00  0.00    +0.000 A 
ATOM     26  C   UNL     1       3.661  14.529  18.073  0.00  0.00    +0.000 A 
ATOM     27  C   UNL     1       3.156  15.822  18.189  0.00  0.00    +0.000 A 
ATOM     28  C   UNL     1       1.832  16.015  18.577  0.00  0.00    +0.000 A 
ATOM     29  C   UNL     1       1.013  14.915  18.853  0.00  0.00    +0.000 A 
ENDBRANCH  23  24
ENDBRANCH  22  23
ENDBRANCH  19  22
ENDBRANCH   1  16
TORSDOF 7
ENDMDL
