MODEL 1
REMARK VINA RESULT:      -7.1      0.000      0.000
REMARK  Name = 
REMARK  5 active torsions:
REMARK  status: ('A' for Active; 'I' for Inactive)
REMARK    1  A    between atoms: C_2  and  C_3
REMARK    2  A    between atoms: C_3  and  O_4
REMARK    3  A    between atoms: O_4  and  C_5
REMARK    4  A    between atoms: N_12  and  N_13
REMARK    5  A    between atoms: C_14  and  C_15
REMARK                            x       y       z     vdW  Elec       q    Type
REMARK                         _______ _______ _______ _____ _____    ______ ____
ROOT
ATOM      1  O   UNL     1       8.149   5.160  19.210  0.00  0.00    +0.000 OA
ATOM      2  C   UNL     1       7.538   5.554  18.217  0.00  0.00    +0.000 C 
ATOM      3  N   UNL     1       7.509   6.874  17.787  0.00  0.00    +0.000 N 
ATOM      4  H   UNL     1       6.953   7.150  16.986  0.00  0.00    +0.000 HD
ENDROOT
BRANCH   3   5
ATOM      5  N   UNL     1       8.261   7.810  18.448  0.00  0.00    +0.000 NA
ATOM      6  C   UNL     1       8.221   9.011  17.973  0.00  0.00    +0.000 C 
BRANCH   6   7
ATOM      7  C   UNL     1       8.988  10.061  18.589  0.00  0.00    +0.000 A 
ATOM      8  C   UNL     1       9.564  11.176  18.009  0.00  0.00    +0.000 A 
ATOM      9  C   UNL     1      10.220  11.910  19.026  0.00  0.00    +0.000 A 
ATOM     10  C   UNL     1      10.033  11.227  20.206  0.00  0.00    +0.000 A 
ATOM     11  N   UNL     1       9.285  10.110  19.935  0.00  0.00    +0.000 N 
ATOM     12  H   UNL     1       8.986   9.413  20.605  0.00  0.00    +0.000 HD
ENDBRANCH   6   7
ENDBRANCH   3   5
BRANCH   2  13
ATOM     13  C   UNL     1       6.769   4.586  17.315  0.00  0.00    +0.000 C 
BRANCH  13  14
ATOM     14  O   UNL     1       5.644   5.222  16.730  0.00  0.00    +0.000 OA
BRANCH  14  15
ATOM     15  C   UNL     1       4.391   4.913  17.192  0.00  0.00    +0.000 A 
ATOM     16  C   UNL     1       4.100   3.540  17.081  0.00  0.00    +0.000 A 
ATOM     17  C   UNL     1       2.855   3.021  17.449  0.00  0.00    +0.000 A 
ATOM     18  C   UNL     1       1.866   3.870  17.928  0.00  0.00    +0.000 A 
ATOM     19  C   UNL     1       2.126   5.235  18.029  0.00  0.00    +0.000 A 
ATOM     20  C   UNL     1       3.374   5.764  17.658  0.00  0.00    +0.000 A 
ATOM     21 CL   UNL     1       3.475   7.485  17.756  0.00  0.00    +0.000 Cl
ENDBRANCH  14  15
ENDBRANCH  13  14
ENDBRANCH   2  13
TORSDOF 5
ENDMDL
MODEL 2
REMARK VINA RESULT:      -6.9      4.665      7.249
REMARK  Name = 
REMARK  5 active torsions:
REMARK  status: ('A' for Active; 'I' for Inactive)
REMARK    1  A    between atoms: C_2  and  C_3
REMARK    2  A    between atoms: C_3  and  O_4
REMARK    3  A    between atoms: O_4  and  C_5
REMARK    4  A    between atoms: N_12  and  N_13
REMARK    5  A    between atoms: C_14  and  C_15
REMARK                            x       y       z     vdW  Elec       q    Type
REMARK                         _______ _______ _______ _____ _____    ______ ____
ROOT
ATOM      1  O   UNL     1       5.332   5.843  17.433  0.00  0.00    +0.000 OA
ATOM      2  C   UNL     1       6.174   4.946  17.488  0.00  0.00    +0.000 C 
ATOM      3  N   UNL     1       6.190   3.945  18.449  0.00  0.00    +0.000 N 
ATOM      4  H   UNL     1       6.934   3.256  18.472  0.00  0.00    +0.000 HD
ENDROOT
BRANCH   3   5
ATOM      5  N   UNL     1       5.174   3.880  19.366  0.00  0.00    +0.000 NA
ATOM      6  C   UNL     1       4.110   3.248  18.993  0.00  0.00    +0.000 C 
BRANCH   6   7
ATOM      7  C   UNL     1       2.983   3.138  19.880  0.00  0.00    +0.000 A 
ATOM      8  C   UNL     1       1.664   3.496  19.664  0.00  0.00    +0.000 A 
ATOM      9  C   UNL     1       0.932   3.199  20.838  0.00  0.00    +0.000 A 
ATOM     10  C   UNL     1       1.817   2.667  21.747  0.00  0.00    +0.000 A 
ATOM     11  N   UNL     1       3.056   2.631  21.161  0.00  0.00    +0.000 N 
ATOM     12  H   UNL     1       3.909   2.289  21.585  0.00  0.00    +0.000 HD
ENDBRANCH   6   7
ENDBRANCH   3   5
BRANCH   2  13
ATOM     13  C   UNL     1       7.285   4.828  16.442  0.00  0.00    +0.000 C 
BRANCH  13  14
ATOM     14  O   UNL     1       6.986   5.607  15.295  0.00  0.00    +0.000 OA
BRANCH  14  15
ATOM     15  C   UNL     1       6.828   4.978  14.087  0.00  0.00    +0.000 A 
ATOM     16  C   UNL     1       5.742   4.082  14.086  0.00  0.00    +0.000 A 
ATOM     17  C   UNL     1       5.436   3.300  12.969  0.00  0.00    +0.000 A 
ATOM     18  C   UNL     1       6.219   3.391  11.825  0.00  0.00    +0.000 A 
ATOM     19  C   UNL     1       7.309   4.258  11.810  0.00  0.00    +0.000 A 
ATOM     20  C   UNL     1       7.625   5.044  12.932  0.00  0.00    +0.000 A 
ATOM     21 CL   UNL     1       9.066   5.980  12.762  0.00  0.00    +0.000 Cl
ENDBRANCH  14  15
ENDBRANCH  13  14
ENDBRANCH   2  13
TORSDOF 5
ENDMDL
MODEL 3
REMARK VINA RESULT:      -6.8      3.745      6.406
REMARK  Name = 
REMARK  5 active torsions:
REMARK  status: ('A' for Active; 'I' for Inactive)
REMARK    1  A    between atoms: C_2  and  C_3
REMARK    2  A    between atoms: C_3  and  O_4
REMARK    3  A    between atoms: O_4  and  C_5
REMARK    4  A    between atoms: N_12  and  N_13
REMARK    5  A    between atoms: C_14  and  C_15
REMARK                            x       y       z     vdW  Elec       q    Type
REMARK                         _______ _______ _______ _____ _____    ______ ____
ROOT
ATOM      1  O   UNL     1       7.999   4.166  17.136  0.00  0.00    +0.000 OA
ATOM      2  C   UNL     1       7.329   5.197  17.188  0.00  0.00    +0.000 C 
ATOM      3  N   UNL     1       6.715   5.789  16.092  0.00  0.00    +0.000 N 
ATOM      4  H   UNL     1       6.211   6.663  16.186  0.00  0.00    +0.000 HD
ENDROOT
BRANCH   3   5
ATOM      5  N   UNL     1       6.779   5.167  14.872  0.00  0.00    +0.000 NA
ATOM      6  C   UNL     1       5.767   4.429  14.556  0.00  0.00    +0.000 C 
BRANCH   6   7
ATOM      7  C   UNL     1       5.746   3.724  13.302  0.00  0.00    +0.000 A 
ATOM      8  C   UNL     1       4.700   3.555  12.413  0.00  0.00    +0.000 A 
ATOM      9  C   UNL     1       5.170   2.780  11.326  0.00  0.00    +0.000 A 
ATOM     10  C   UNL     1       6.492   2.489  11.574  0.00  0.00    +0.000 A 
ATOM     11  N   UNL     1       6.835   3.065  12.770  0.00  0.00    +0.000 N 
ATOM     12  H   UNL     1       7.744   3.025  13.216  0.00  0.00    +0.000 HD
ENDBRANCH   6   7
ENDBRANCH   3   5
BRANCH   2  13
ATOM     13  C   UNL     1       7.069   5.915  18.514  0.00  0.00    +0.000 C 
BRANCH  13  14
ATOM     14  O   UNL     1       6.256   5.126  19.367  0.00  0.00    +0.000 OA
BRANCH  14  15
ATOM     15  C   UNL     1       4.935   4.947  19.048  0.00  0.00    +0.000 A 
ATOM     16  C   UNL     1       4.343   6.117  18.535  0.00  0.00    +0.000 A 
ATOM     17  C   UNL     1       2.988   6.165  18.194  0.00  0.00    +0.000 A 
ATOM     18  C   UNL     1       2.190   5.041  18.368  0.00  0.00    +0.000 A 
ATOM     19  C   UNL     1       2.751   3.879  18.891  0.00  0.00    +0.000 A 
ATOM     20  C   UNL     1       4.111   3.824  19.240  0.00  0.00    +0.000 A 
ATOM     21 CL   UNL     1       4.602   2.335  19.964  0.00  0.00    +0.000 Cl
ENDBRANCH  14  15
ENDBRANCH  13  14
ENDBRANCH   2  13
TORSDOF 5
ENDMDL
MODEL 4
REMARK VINA RESULT:      -6.7      1.843      2.207
REMARK  Name = 
REMARK  5 active torsions:
REMARK  status: ('A' for Active; 'I' for Inactive)
REMARK    1  A    between atoms: C_2  and  C_3
REMARK    2  A    between atoms: C_3  and  O_4
REMARK    3  A    between atoms: O_4  and  C_5
REMARK    4  A    between atoms: N_12  and  N_13
REMARK    5  A    between atoms: C_14  and  C_15
REMARK                            x       y       z     vdW  Elec       q    Type
REMARK                         _______ _______ _______ _____ _____    ______ ____
ROOT
ATOM      1  O   UNL     1       6.900   5.483  19.912  0.00  0.00    +0.000 OA
ATOM      2  C   UNL     1       6.624   5.539  18.714  0.00  0.00    +0.000 C 
ATOM      3  N   UNL     1       7.130   6.488  17.836  0.00  0.00    +0.000 N 
ATOM      4  H   UNL     1       6.834   6.512  16.867  0.00  0.00    +0.000 HD
ENDROOT
BRANCH   3   5
ATOM      5  N   UNL     1       8.057   7.390  18.288  0.00  0.00    +0.000 NA
ATOM      6  C   UNL     1       7.822   8.632  18.017  0.00  0.00    +0.000 C 
BRANCH   6   7
ATOM      7  C   UNL     1       8.744   9.654  18.436  0.00  0.00    +0.000 A 
ATOM      8  C   UNL     1       9.324  10.664  17.690  0.00  0.00    +0.000 A 
ATOM      9  C   UNL     1      10.165  11.413  18.548  0.00  0.00    +0.000 A 
ATOM     10  C   UNL     1      10.082  10.845  19.798  0.00  0.00    +0.000 A 
ATOM     11  N   UNL     1       9.219   9.782  19.724  0.00  0.00    +0.000 N 
ATOM     12  H   UNL     1       8.956   9.170  20.487  0.00  0.00    +0.000 HD
ENDBRANCH   6   7
ENDBRANCH   3   5
BRANCH   2  13
ATOM     13  C   UNL     1       5.705   4.506  18.057  0.00  0.00    +0.000 C 
BRANCH  13  14
ATOM     14  O   UNL     1       4.412   5.045  17.835  0.00  0.00    +0.000 OA
BRANCH  14  15
ATOM     15  C   UNL     1       3.380   4.653  18.648  0.00  0.00    +0.000 A 
ATOM     16  C   UNL     1       3.035   5.638  19.592  0.00  0.00    +0.000 A 
ATOM     17  C   UNL     1       2.041   5.421  20.550  0.00  0.00    +0.000 A 
ATOM     18  C   UNL     1       1.373   4.204  20.591  0.00  0.00    +0.000 A 
ATOM     19  C   UNL     1       1.711   3.208  19.677  0.00  0.00    +0.000 A 
ATOM     20  C   UNL     1       2.712   3.418  18.714  0.00  0.00    +0.000 A 
ATOM     21 CL   UNL     1       3.061   2.038  17.736  0.00  0.00    +0.000 Cl
ENDBRANCH  14  15
ENDBRANCH  13  14
ENDBRANCH   2  13
TORSDOF 5
ENDMDL
MODEL 5
REMARK VINA RESULT:      -6.7      1.925      2.342
REMARK  Name = 
REMARK  5 active torsions:
REMARK  status: ('A' for Active; 'I' for Inactive)
REMARK    1  A    between atoms: C_2  and  C_3
REMARK    2  A    between atoms: C_3  and  O_4
REMARK    3  A    between atoms: O_4  and  C_5
REMARK    4  A    between atoms: N_12  and  N_13
REMARK    5  A    between atoms: C_14  and  C_15
REMARK                            x       y       z     vdW  Elec       q    Type
REMARK                         _______ _______ _______ _____ _____    ______ ____
ROOT
ATOM      1  O   UNL     1       7.632   6.889  16.921  0.00  0.00    +0.000 OA
ATOM      2  C   UNL     1       7.862   6.852  18.129  0.00  0.00    +0.000 C 
ATOM      3  N   UNL     1       8.391   7.907  18.859  0.00  0.00    +0.000 N 
ATOM      4  H   UNL     1       8.602   7.806  19.846  0.00  0.00    +0.000 HD
ENDROOT
BRANCH   3   5
ATOM      5  N   UNL     1       8.612   9.108  18.236  0.00  0.00    +0.000 NA
ATOM      6  C   UNL     1       9.336   9.961  18.883  0.00  0.00    +0.000 C 
BRANCH   6   7
ATOM      7  C   UNL     1       9.612  11.255  18.319  0.00  0.00    +0.000 A 
ATOM      8  C   UNL     1      10.782  11.729  17.755  0.00  0.00    +0.000 A 
ATOM      9  C   UNL     1      10.561  13.067  17.347  0.00  0.00    +0.000 A 
ATOM     10  C   UNL     1       9.262  13.382  17.672  0.00  0.00    +0.000 A 
ATOM     11  N   UNL     1       8.693  12.281  18.258  0.00  0.00    +0.000 N 
ATOM     12  H   UNL     1       7.743  12.210  18.602  0.00  0.00    +0.000 HD
ENDBRANCH   6   7
ENDBRANCH   3   5
BRANCH   2  13
ATOM     13  C   UNL     1       7.535   5.613  18.967  0.00  0.00    +0.000 C 
BRANCH  13  14
ATOM     14  O   UNL     1       7.089   4.548  18.145  0.00  0.00    +0.000 OA
BRANCH  14  15
ATOM     15  C   UNL     1       5.742   4.336  18.003  0.00  0.00    +0.000 A 
ATOM     16  C   UNL     1       5.077   4.258  19.241  0.00  0.00    +0.000 A 
ATOM     17  C   UNL     1       3.706   3.995  19.322  0.00  0.00    +0.000 A 
ATOM     18  C   UNL     1       2.969   3.796  18.162  0.00  0.00    +0.000 A 
ATOM     19  C   UNL     1       3.611   3.852  16.927  0.00  0.00    +0.000 A 
ATOM     20  C   UNL     1       4.989   4.110  16.838  0.00  0.00    +0.000 A 
ATOM     21 CL   UNL     1       5.624   4.040  15.233  0.00  0.00    +0.000 Cl
ENDBRANCH  14  15
ENDBRANCH  13  14
ENDBRANCH   2  13
TORSDOF 5
ENDMDL
MODEL 6
REMARK VINA RESULT:      -6.6      4.444      5.872
REMARK  Name = 
REMARK  5 active torsions:
REMARK  status: ('A' for Active; 'I' for Inactive)
REMARK    1  A    between atoms: C_2  and  C_3
REMARK    2  A    between atoms: C_3  and  O_4
REMARK    3  A    between atoms: O_4  and  C_5
REMARK    4  A    between atoms: N_12  and  N_13
REMARK    5  A    between atoms: C_14  and  C_15
REMARK                            x       y       z     vdW  Elec       q    Type
REMARK                         _______ _______ _______ _____ _____    ______ ____
ROOT
ATOM      1  O   UNL     1       5.011   3.725  17.903  0.00  0.00    +0.000 OA
ATOM      2  C   UNL     1       4.992   4.941  18.095  0.00  0.00    +0.000 C 
ATOM      3  N   UNL     1       5.151   5.894  17.099  0.00  0.00    +0.000 N 
ATOM      4  H   UNL     1       5.170   6.883  17.322  0.00  0.00    +0.000 HD
ENDROOT
BRANCH   3   5
ATOM      5  N   UNL     1       5.265   5.488  15.795  0.00  0.00    +0.000 NA
ATOM      6  C   UNL     1       6.447   5.134  15.411  0.00  0.00    +0.000 C 
BRANCH   6   7
ATOM      7  C   UNL     1       6.672   4.706  14.056  0.00  0.00    +0.000 A 
ATOM      8  C   UNL     1       6.093   3.656  13.366  0.00  0.00    +0.000 A 
ATOM      9  C   UNL     1       6.643   3.634  12.062  0.00  0.00    +0.000 A 
ATOM     10  C   UNL     1       7.547   4.668  11.982  0.00  0.00    +0.000 A 
ATOM     11  N   UNL     1       7.558   5.314  13.192  0.00  0.00    +0.000 N 
ATOM     12  H   UNL     1       8.124   6.117  13.436  0.00  0.00    +0.000 HD
ENDBRANCH   6   7
ENDBRANCH   3   5
BRANCH   2  13
ATOM     13  C   UNL     1       4.737   5.526  19.487  0.00  0.00    +0.000 C 
BRANCH  13  14
ATOM     14  O   UNL     1       3.359   5.802  19.677  0.00  0.00    +0.000 OA
BRANCH  14  15
ATOM     15  C   UNL     1       2.509   4.769  19.977  0.00  0.00    +0.000 A 
ATOM     16  C   UNL     1       2.665   4.311  21.299  0.00  0.00    +0.000 A 
ATOM     17  C   UNL     1       1.930   3.230  21.792  0.00  0.00    +0.000 A 
ATOM     18  C   UNL     1       1.025   2.573  20.968  0.00  0.00    +0.000 A 
ATOM     19  C   UNL     1       0.868   2.999  19.651  0.00  0.00    +0.000 A 
ATOM     20  C   UNL     1       1.607   4.082  19.146  0.00  0.00    +0.000 A 
ATOM     21 CL   UNL     1       1.352   4.398  17.468  0.00  0.00    +0.000 Cl
ENDBRANCH  14  15
ENDBRANCH  13  14
ENDBRANCH   2  13
TORSDOF 5
ENDMDL
MODEL 7
REMARK VINA RESULT:      -6.6      3.950      5.667
REMARK  Name = 
REMARK  5 active torsions:
REMARK  status: ('A' for Active; 'I' for Inactive)
REMARK    1  A    between atoms: C_2  and  C_3
REMARK    2  A    between atoms: C_3  and  O_4
REMARK    3  A    between atoms: O_4  and  C_5
REMARK    4  A    between atoms: N_12  and  N_13
REMARK    5  A    between atoms: C_14  and  C_15
REMARK                            x       y       z     vdW  Elec       q    Type
REMARK                         _______ _______ _______ _____ _____    ______ ____
ROOT
ATOM      1  O   UNL     1       5.891   6.452  17.427  0.00  0.00    +0.000 OA
ATOM      2  C   UNL     1       6.267   5.436  18.011  0.00  0.00    +0.000 C 
ATOM      3  N   UNL     1       6.926   4.378  17.400  0.00  0.00    +0.000 N 
ATOM      4  H   UNL     1       7.174   3.546  17.922  0.00  0.00    +0.000 HD
ENDROOT
BRANCH   3   5
ATOM      5  N   UNL     1       7.261   4.475  16.074  0.00  0.00    +0.000 NA
ATOM      6  C   UNL     1       6.398   4.007  15.233  0.00  0.00    +0.000 C 
BRANCH   6   7
ATOM      7  C   UNL     1       6.665   4.050  13.821  0.00  0.00    +0.000 A 
ATOM      8  C   UNL     1       7.381   4.985  13.095  0.00  0.00    +0.000 A 
ATOM      9  C   UNL     1       7.358   4.596  11.735  0.00  0.00    +0.000 A 
ATOM     10  C   UNL     1       6.628   3.432  11.656  0.00  0.00    +0.000 A 
ATOM     11  N   UNL     1       6.213   3.106  12.922  0.00  0.00    +0.000 N 
ATOM     12  H   UNL     1       5.657   2.300  13.181  0.00  0.00    +0.000 HD
ENDBRANCH   6   7
ENDBRANCH   3   5
BRANCH   2  13
ATOM     13  C   UNL     1       6.073   5.264  19.520  0.00  0.00    +0.000 C 
BRANCH  13  14
ATOM     14  O   UNL     1       4.699   5.330  19.865  0.00  0.00    +0.000 OA
BRANCH  14  15
ATOM     15  C   UNL     1       3.813   4.496  19.233  0.00  0.00    +0.000 A 
ATOM     16  C   UNL     1       4.120   3.136  19.433  0.00  0.00    +0.000 A 
ATOM     17  C   UNL     1       3.371   2.120  18.833  0.00  0.00    +0.000 A 
ATOM     18  C   UNL     1       2.300   2.442  18.009  0.00  0.00    +0.000 A 
ATOM     19  C   UNL     1       1.991   3.781  17.783  0.00  0.00    +0.000 A 
ATOM     20  C   UNL     1       2.742   4.809  18.380  0.00  0.00    +0.000 A 
ATOM     21 CL   UNL     1       2.273   6.401  17.904  0.00  0.00    +0.000 Cl
ENDBRANCH  14  15
ENDBRANCH  13  14
ENDBRANCH   2  13
TORSDOF 5
ENDMDL
MODEL 8
REMARK VINA RESULT:      -6.6      1.395      1.492
REMARK  Name = 
REMARK  5 active torsions:
REMARK  status: ('A' for Active; 'I' for Inactive)
REMARK    1  A    between atoms: C_2  and  C_3
REMARK    2  A    between atoms: C_3  and  O_4
REMARK    3  A    between atoms: O_4  and  C_5
REMARK    4  A    between atoms: N_12  and  N_13
REMARK    5  A    between atoms: C_14  and  C_15
REMARK                            x       y       z     vdW  Elec       q    Type
REMARK                         _______ _______ _______ _____ _____    ______ ____
ROOT
ATOM      1  O   UNL     1       5.242   7.205  17.371  0.00  0.00    +0.000 OA
ATOM      2  C   UNL     1       6.121   6.373  17.151  0.00  0.00    +0.000 C 
ATOM      3  N   UNL     1       7.466   6.677  16.987  0.00  0.00    +0.000 N 
ATOM      4  H   UNL     1       8.141   5.954  16.764  0.00  0.00    +0.000 HD
ENDROOT
BRANCH   3   5
ATOM      5  N   UNL     1       7.883   7.972  17.150  0.00  0.00    +0.000 NA
ATOM      6  C   UNL     1       8.325   8.285  18.323  0.00  0.00    +0.000 C 
BRANCH   6   7
ATOM      7  C   UNL     1       8.773   9.624  18.596  0.00  0.00    +0.000 A 
ATOM      8  C   UNL     1       8.667  10.758  17.810  0.00  0.00    +0.000 A 
ATOM      9  C   UNL     1       9.263  11.834  18.510  0.00  0.00    +0.000 A 
ATOM     10  C   UNL     1       9.722  11.336  19.708  0.00  0.00    +0.000 A 
ATOM     11  N   UNL     1       9.421   9.999  19.755  0.00  0.00    +0.000 N 
ATOM     12  H   UNL     1       9.633   9.364  20.514  0.00  0.00    +0.000 HD
ENDBRANCH   6   7
ENDBRANCH   3   5
BRANCH   2  13
ATOM     13  C   UNL     1       5.805   4.876  17.081  0.00  0.00    +0.000 C 
BRANCH  13  14
ATOM     14  O   UNL     1       4.498   4.657  16.576  0.00  0.00    +0.000 OA
BRANCH  14  15
ATOM     15  C   UNL     1       3.544   4.131  17.408  0.00  0.00    +0.000 A 
ATOM     16  C   UNL     1       3.584   2.725  17.451  0.00  0.00    +0.000 A 
ATOM     17  C   UNL     1       2.662   1.987  18.199  0.00  0.00    +0.000 A 
ATOM     18  C   UNL     1       1.671   2.642  18.918  0.00  0.00    +0.000 A 
ATOM     19  C   UNL     1       1.602   4.033  18.876  0.00  0.00    +0.000 A 
ATOM     20  C   UNL     1       2.522   4.781  18.122  0.00  0.00    +0.000 A 
ATOM     21 CL   UNL     1       2.218   6.481  18.110  0.00  0.00    +0.000 Cl
ENDBRANCH  14  15
ENDBRANCH  13  14
ENDBRANCH   2  13
TORSDOF 5
ENDMDL
MODEL 9
REMARK VINA RESULT:      -6.6      2.048      2.476
REMARK  Name = 
REMARK  5 active torsions:
REMARK  status: ('A' for Active; 'I' for Inactive)
REMARK    1  A    between atoms: C_2  and  C_3
REMARK    2  A    between atoms: C_3  and  O_4
REMARK    3  A    between atoms: O_4  and  C_5
REMARK    4  A    between atoms: N_12  and  N_13
REMARK    5  A    between atoms: C_14  and  C_15
REMARK                            x       y       z     vdW  Elec       q    Type
REMARK                         _______ _______ _______ _____ _____    ______ ____
ROOT
ATOM      1  O   UNL     1       5.490   6.889  16.051  0.00  0.00    +0.000 OA
ATOM      2  C   UNL     1       6.207   6.110  16.677  0.00  0.00    +0.000 C 
ATOM      3  N   UNL     1       7.421   6.454  17.256  0.00  0.00    +0.000 N 
ATOM      4  H   UNL     1       7.992   5.759  17.724  0.00  0.00    +0.000 HD
ENDROOT
BRANCH   3   5
ATOM      5  N   UNL     1       7.839   7.759  17.209  0.00  0.00    +0.000 NA
ATOM      6  C   UNL     1       8.189   8.285  18.336  0.00  0.00    +0.000 C 
BRANCH   6   7
ATOM      7  C   UNL     1       8.629   9.654  18.392  0.00  0.00    +0.000 A 
ATOM      8  C   UNL     1       9.548  10.241  19.243  0.00  0.00    +0.000 A 
ATOM      9  C   UNL     1       9.638  11.614  18.910  0.00  0.00    +0.000 A 
ATOM     10  C   UNL     1       8.772  11.838  17.865  0.00  0.00    +0.000 A 
ATOM     11  N   UNL     1       8.166  10.648  17.555  0.00  0.00    +0.000 N 
ATOM     12  H   UNL     1       7.478  10.498  16.827  0.00  0.00    +0.000 HD
ENDBRANCH   6   7
ENDBRANCH   3   5
BRANCH   2  13
ATOM     13  C   UNL     1       5.789   4.657  16.917  0.00  0.00    +0.000 C 
BRANCH  13  14
ATOM     14  O   UNL     1       5.259   4.491  18.222  0.00  0.00    +0.000 OA
BRANCH  14  15
ATOM     15  C   UNL     1       4.021   3.920  18.369  0.00  0.00    +0.000 A 
ATOM     16  C   UNL     1       3.026   4.602  17.643  0.00  0.00    +0.000 A 
ATOM     17  C   UNL     1       1.684   4.214  17.696  0.00  0.00    +0.000 A 
ATOM     18  C   UNL     1       1.305   3.137  18.487  0.00  0.00    +0.000 A 
ATOM     19  C   UNL     1       2.271   2.460  19.227  0.00  0.00    +0.000 A 
ATOM     20  C   UNL     1       3.621   2.847  19.183  0.00  0.00    +0.000 A 
ATOM     21 CL   UNL     1       4.653   1.955  20.243  0.00  0.00    +0.000 Cl
ENDBRANCH  14  15
ENDBRANCH  13  14
ENDBRANCH   2  13
TORSDOF 5
ENDMDL
