MODEL 1
REMARK VINA RESULT:      -7.8      0.000      0.000
REMARK  Name = 
REMARK  6 active torsions:
REMARK  status: ('A' for Active; 'I' for Inactive)
REMARK    1  A    between atoms: C_1  and  O_2
REMARK    2  A    between atoms: O_2  and  C_3
REMARK    3  A    between atoms: C_6  and  C_7
REMARK    4  A    between atoms: C_9  and  C_10
REMARK    5  A    between atoms: N_12  and  C_13
REMARK    6  A    between atoms: C_17  and  C_18
REMARK                            x       y       z     vdW  Elec       q    Type
REMARK                         _______ _______ _______ _____ _____    ______ ____
ROOT
ATOM      1  C   UNL     1       0.919  10.239  19.610  0.00  0.00    +0.000 C 
ATOM      2  O   UNL     1       1.382  11.263  19.117  0.00  0.00    +0.000 OA
ATOM      3  N   UNL     1      -0.155  10.138  20.487  0.00  0.00    +0.000 N 
ATOM      4  H   UNL     1      -0.339   9.209  20.862  0.00  0.00    +0.000 HD
ENDROOT
BRANCH   3   5
ATOM      5  C   UNL     1      -0.979  11.174  20.911  0.00  0.00    +0.000 A 
ATOM      6  S   UNL     1      -0.926  11.669  22.540  0.00  0.00    +0.000 S 
ATOM      7  C   UNL     1      -2.021  12.924  22.279  0.00  0.00    +0.000 A 
ATOM      8  C   UNL     1      -2.457  12.985  20.971  0.00  0.00    +0.000 A 
ATOM      9  C   UNL     1      -1.845  11.955  20.148  0.00  0.00    +0.000 A 
ATOM     10  C   UNL     1      -3.482  14.003  20.547  0.00  0.00    +0.000 C 
ATOM     11  C   UNL     1      -3.577  15.168  21.546  0.00  0.00    +0.000 C 
ATOM     12  C   UNL     1      -3.648  14.672  22.996  0.00  0.00    +0.000 C 
ATOM     13  C   UNL     1      -2.405  13.861  23.381  0.00  0.00    +0.000 C 
BRANCH   9  14
ATOM     14  C   UNL     1      -2.105  11.790  18.717  0.00  0.00    +0.000 C 
ATOM     15  N   UNL     1      -1.325  12.530  17.868  0.00  0.00    +0.000 N 
ATOM     16  O   UNL     1      -2.924  11.005  18.255  0.00  0.00    +0.000 OA
ATOM     17  H   UNL     1      -0.410  12.829  18.175  0.00  0.00    +0.000 HD
ATOM     18  H   UNL     1      -1.414  12.265  16.894  0.00  0.00    +0.000 HD
ENDBRANCH   9  14
ENDBRANCH   3   5
BRANCH   1  21
ATOM     19  C   UNL     1       2.696   7.314  18.360  0.00  0.00    +0.000 A 
ATOM     20  C   UNL     1       2.162   8.554  18.109  0.00  0.00    +0.000 A 
ATOM     21  C   UNL     1       1.564   8.953  19.333  0.00  0.00    +0.000 A 
ATOM     22  N   UNL     1       1.692   7.993  20.264  0.00  0.00    +0.000 NA
ATOM     23  O   UNL     1       2.389   6.968  19.645  0.00  0.00    +0.000 OA
BRANCH  19  27
ATOM     24  C   UNL     1       5.219   4.535  16.300  0.00  0.00    +0.000 A 
ATOM     25  C   UNL     1       5.453   5.905  16.202  0.00  0.00    +0.000 A 
ATOM     26  C   UNL     1       4.617   6.819  16.855  0.00  0.00    +0.000 A 
ATOM     27  C   UNL     1       3.519   6.374  17.607  0.00  0.00    +0.000 A 
ATOM     28  C   UNL     1       3.264   4.996  17.651  0.00  0.00    +0.000 A 
ATOM     29  C   UNL     1       4.106   4.083  17.005  0.00  0.00    +0.000 A 
BRANCH  24  31
ATOM     30  C   UNL     1       6.193   3.925  14.241  0.00  0.00    +0.000 C 
ATOM     31  O   UNL     1       6.114   3.731  15.651  0.00  0.00    +0.000 OA
ENDBRANCH  24  31
ENDBRANCH  19  27
ENDBRANCH   1  21
TORSDOF 5
ENDMDL
MODEL 2
REMARK VINA RESULT:      -7.7      6.037      9.696
REMARK  Name = 
REMARK  6 active torsions:
REMARK  status: ('A' for Active; 'I' for Inactive)
REMARK    1  A    between atoms: C_1  and  O_2
REMARK    2  A    between atoms: O_2  and  C_3
REMARK    3  A    between atoms: C_6  and  C_7
REMARK    4  A    between atoms: C_9  and  C_10
REMARK    5  A    between atoms: N_12  and  C_13
REMARK    6  A    between atoms: C_17  and  C_18
REMARK                            x       y       z     vdW  Elec       q    Type
REMARK                         _______ _______ _______ _____ _____    ______ ____
ROOT
ATOM      1  C   UNL     1       6.551   7.116  17.449  0.00  0.00    +0.000 C 
ATOM      2  O   UNL     1       6.311   6.986  16.253  0.00  0.00    +0.000 OA
ATOM      3  N   UNL     1       5.906   6.489  18.509  0.00  0.00    +0.000 N 
ATOM      4  H   UNL     1       6.184   6.790  19.441  0.00  0.00    +0.000 HD
ENDROOT
BRANCH   3   5
ATOM      5  C   UNL     1       4.917   5.517  18.419  0.00  0.00    +0.000 A 
ATOM      6  S   UNL     1       5.365   3.892  18.172  0.00  0.00    +0.000 S 
ATOM      7  C   UNL     1       3.772   3.351  18.276  0.00  0.00    +0.000 A 
ATOM      8  C   UNL     1       2.875   4.379  18.482  0.00  0.00    +0.000 A 
ATOM      9  C   UNL     1       3.541   5.668  18.573  0.00  0.00    +0.000 A 
ATOM     10  C   UNL     1       1.395   4.110  18.548  0.00  0.00    +0.000 C 
ATOM     11  C   UNL     1       1.097   2.630  18.838  0.00  0.00    +0.000 C 
ATOM     12  C   UNL     1       1.936   1.695  17.958  0.00  0.00    +0.000 C 
ATOM     13  C   UNL     1       3.439   1.895  18.186  0.00  0.00    +0.000 C 
BRANCH   9  14
ATOM     14  C   UNL     1       2.844   6.934  18.807  0.00  0.00    +0.000 C 
ATOM     15  N   UNL     1       2.296   7.106  20.051  0.00  0.00    +0.000 N 
ATOM     16  O   UNL     1       2.776   7.842  17.987  0.00  0.00    +0.000 OA
ATOM     17  H   UNL     1       2.688   6.602  20.834  0.00  0.00    +0.000 HD
ATOM     18  H   UNL     1       1.976   8.050  20.232  0.00  0.00    +0.000 HD
ENDBRANCH   9  14
ENDBRANCH   3   5
BRANCH   1  21
ATOM     19  C   UNL     1       8.767   9.918  18.163  0.00  0.00    +0.000 A 
ATOM     20  C   UNL     1       7.730   9.407  17.423  0.00  0.00    +0.000 A 
ATOM     21  C   UNL     1       7.577   8.071  17.877  0.00  0.00    +0.000 A 
ATOM     22  N   UNL     1       8.494   7.774  18.812  0.00  0.00    +0.000 NA
ATOM     23  O   UNL     1       9.241   8.929  18.977  0.00  0.00    +0.000 OA
BRANCH  19  27
ATOM     24  C   UNL     1      10.507  13.792  18.712  0.00  0.00    +0.000 A 
ATOM     25  C   UNL     1       9.340  13.643  17.963  0.00  0.00    +0.000 A 
ATOM     26  C   UNL     1       8.781  12.375  17.762  0.00  0.00    +0.000 A 
ATOM     27  C   UNL     1       9.391  11.230  18.296  0.00  0.00    +0.000 A 
ATOM     28  C   UNL     1      10.593  11.390  18.999  0.00  0.00    +0.000 A 
ATOM     29  C   UNL     1      11.147  12.659  19.207  0.00  0.00    +0.000 A 
BRANCH  24  31
ATOM     30  C   UNL     1       9.944  16.081  18.775  0.00  0.00    +0.000 C 
ATOM     31  O   UNL     1      10.949  15.075  18.873  0.00  0.00    +0.000 OA
ENDBRANCH  24  31
ENDBRANCH  19  27
ENDBRANCH   1  21
TORSDOF 5
ENDMDL
MODEL 3
REMARK VINA RESULT:      -7.6      0.487      1.031
REMARK  Name = 
REMARK  6 active torsions:
REMARK  status: ('A' for Active; 'I' for Inactive)
REMARK    1  A    between atoms: C_1  and  O_2
REMARK    2  A    between atoms: O_2  and  C_3
REMARK    3  A    between atoms: C_6  and  C_7
REMARK    4  A    between atoms: C_9  and  C_10
REMARK    5  A    between atoms: N_12  and  C_13
REMARK    6  A    between atoms: C_17  and  C_18
REMARK                            x       y       z     vdW  Elec       q    Type
REMARK                         _______ _______ _______ _____ _____    ______ ____
ROOT
ATOM      1  C   UNL     1       1.093   9.930  19.425  0.00  0.00    +0.000 C 
ATOM      2  O   UNL     1       1.467  10.966  18.883  0.00  0.00    +0.000 OA
ATOM      3  N   UNL     1       0.074   9.791  20.360  0.00  0.00    +0.000 N 
ATOM      4  H   UNL     1      -0.035   8.864  20.767  0.00  0.00    +0.000 HD
ENDROOT
BRANCH   3   5
ATOM      5  C   UNL     1      -0.788  10.788  20.802  0.00  0.00    +0.000 A 
ATOM      6  S   UNL     1      -0.740  11.268  22.435  0.00  0.00    +0.000 S 
ATOM      7  C   UNL     1      -1.888  12.480  22.198  0.00  0.00    +0.000 A 
ATOM      8  C   UNL     1      -2.338  12.536  20.894  0.00  0.00    +0.000 A 
ATOM      9  C   UNL     1      -1.692  11.541  20.055  0.00  0.00    +0.000 A 
ATOM     10  C   UNL     1      -3.408  13.516  20.490  0.00  0.00    +0.000 C 
ATOM     11  C   UNL     1      -3.542  14.665  21.502  0.00  0.00    +0.000 C 
ATOM     12  C   UNL     1      -3.578  14.152  22.947  0.00  0.00    +0.000 C 
ATOM     13  C   UNL     1      -2.300  13.389  23.312  0.00  0.00    +0.000 C 
BRANCH   9  14
ATOM     14  C   UNL     1      -1.958  11.379  18.625  0.00  0.00    +0.000 C 
ATOM     15  N   UNL     1      -1.661  12.451  17.825  0.00  0.00    +0.000 N 
ATOM     16  O   UNL     1      -2.371  10.343  18.116  0.00  0.00    +0.000 OA
ATOM     17  H   UNL     1      -0.956  13.109  18.128  0.00  0.00    +0.000 HD
ATOM     18  H   UNL     1      -1.695  12.246  16.834  0.00  0.00    +0.000 HD
ENDBRANCH   9  14
ENDBRANCH   3   5
BRANCH   1  21
ATOM     19  C   UNL     1       3.012   7.099  18.171  0.00  0.00    +0.000 A 
ATOM     20  C   UNL     1       2.424   8.314  17.923  0.00  0.00    +0.000 A 
ATOM     21  C   UNL     1       1.798   8.677  19.144  0.00  0.00    +0.000 A 
ATOM     22  N   UNL     1       1.964   7.719  20.071  0.00  0.00    +0.000 NA
ATOM     23  O   UNL     1       2.712   6.731  19.451  0.00  0.00    +0.000 OA
BRANCH  19  27
ATOM     24  C   UNL     1       5.458   4.489  15.816  0.00  0.00    +0.000 A 
ATOM     25  C   UNL     1       4.448   3.970  16.624  0.00  0.00    +0.000 A 
ATOM     26  C   UNL     1       3.661   4.818  17.413  0.00  0.00    +0.000 A 
ATOM     27  C   UNL     1       3.884   6.203  17.418  0.00  0.00    +0.000 A 
ATOM     28  C   UNL     1       4.939   6.704  16.643  0.00  0.00    +0.000 A 
ATOM     29  C   UNL     1       5.720   5.857  15.849  0.00  0.00    +0.000 A 
BRANCH  24  31
ATOM     30  C   UNL     1       6.131   3.817  13.659  0.00  0.00    +0.000 C 
ATOM     31  O   UNL     1       6.144   3.578  15.063  0.00  0.00    +0.000 OA
ENDBRANCH  24  31
ENDBRANCH  19  27
ENDBRANCH   1  21
TORSDOF 5
ENDMDL
MODEL 4
REMARK VINA RESULT:      -7.6      6.042      9.708
REMARK  Name = 
REMARK  6 active torsions:
REMARK  status: ('A' for Active; 'I' for Inactive)
REMARK    1  A    between atoms: C_1  and  O_2
REMARK    2  A    between atoms: O_2  and  C_3
REMARK    3  A    between atoms: C_6  and  C_7
REMARK    4  A    between atoms: C_9  and  C_10
REMARK    5  A    between atoms: N_12  and  C_13
REMARK    6  A    between atoms: C_17  and  C_18
REMARK                            x       y       z     vdW  Elec       q    Type
REMARK                         _______ _______ _______ _____ _____    ______ ____
ROOT
ATOM      1  C   UNL     1       6.621   7.114  17.451  0.00  0.00    +0.000 C 
ATOM      2  O   UNL     1       6.443   6.940  16.250  0.00  0.00    +0.000 OA
ATOM      3  N   UNL     1       5.919   6.530  18.499  0.00  0.00    +0.000 N 
ATOM      4  H   UNL     1       6.150   6.865  19.433  0.00  0.00    +0.000 HD
ENDROOT
BRANCH   3   5
ATOM      5  C   UNL     1       4.930   5.559  18.395  0.00  0.00    +0.000 A 
ATOM      6  S   UNL     1       5.379   3.932  18.171  0.00  0.00    +0.000 S 
ATOM      7  C   UNL     1       3.782   3.395  18.243  0.00  0.00    +0.000 A 
ATOM      8  C   UNL     1       2.883   4.427  18.421  0.00  0.00    +0.000 A 
ATOM      9  C   UNL     1       3.550   5.716  18.517  0.00  0.00    +0.000 A 
ATOM     10  C   UNL     1       1.402   4.162  18.457  0.00  0.00    +0.000 C 
ATOM     11  C   UNL     1       1.093   2.685  18.752  0.00  0.00    +0.000 C 
ATOM     12  C   UNL     1       1.949   1.741  17.898  0.00  0.00    +0.000 C 
ATOM     13  C   UNL     1       3.447   1.940  18.158  0.00  0.00    +0.000 C 
BRANCH   9  14
ATOM     14  C   UNL     1       2.852   6.985  18.725  0.00  0.00    +0.000 C 
ATOM     15  N   UNL     1       2.808   7.838  17.653  0.00  0.00    +0.000 N 
ATOM     16  O   UNL     1       2.276   7.290  19.762  0.00  0.00    +0.000 OA
ATOM     17  H   UNL     1       2.881   7.458  16.720  0.00  0.00    +0.000 HD
ATOM     18  H   UNL     1       2.178   8.621  17.778  0.00  0.00    +0.000 HD
ENDBRANCH   9  14
ENDBRANCH   3   5
BRANCH   1  21
ATOM     19  C   UNL     1       8.795   9.939  18.200  0.00  0.00    +0.000 A 
ATOM     20  C   UNL     1       7.777   9.416  17.442  0.00  0.00    +0.000 A 
ATOM     21  C   UNL     1       7.630   8.079  17.895  0.00  0.00    +0.000 A 
ATOM     22  N   UNL     1       8.534   7.793  18.846  0.00  0.00    +0.000 NA
ATOM     23  O   UNL     1       9.267   8.955  19.022  0.00  0.00    +0.000 OA
BRANCH  19  27
ATOM     24  C   UNL     1      10.665  13.783  18.454  0.00  0.00    +0.000 A 
ATOM     25  C   UNL     1      11.254  12.671  19.053  0.00  0.00    +0.000 A 
ATOM     26  C   UNL     1      10.635  11.417  18.993  0.00  0.00    +0.000 A 
ATOM     27  C   UNL     1       9.403  11.258  18.341  0.00  0.00    +0.000 A 
ATOM     28  C   UNL     1       8.795  12.396  17.791  0.00  0.00    +0.000 A 
ATOM     29  C   UNL     1       9.420  13.647  17.845  0.00  0.00    +0.000 A 
BRANCH  24  31
ATOM     30  C   UNL     1      11.601  15.419  19.871  0.00  0.00    +0.000 C 
ATOM     31  O   UNL     1      11.369  14.951  18.545  0.00  0.00    +0.000 OA
ENDBRANCH  24  31
ENDBRANCH  19  27
ENDBRANCH   1  21
TORSDOF 5
ENDMDL
MODEL 5
REMARK VINA RESULT:      -7.6      2.935     10.434
REMARK  Name = 
REMARK  6 active torsions:
REMARK  status: ('A' for Active; 'I' for Inactive)
REMARK    1  A    between atoms: C_1  and  O_2
REMARK    2  A    between atoms: O_2  and  C_3
REMARK    3  A    between atoms: C_6  and  C_7
REMARK    4  A    between atoms: C_9  and  C_10
REMARK    5  A    between atoms: N_12  and  C_13
REMARK    6  A    between atoms: C_17  and  C_18
REMARK                            x       y       z     vdW  Elec       q    Type
REMARK                         _______ _______ _______ _____ _____    ______ ____
ROOT
ATOM      1  C   UNL     1       1.208   9.023  19.953  0.00  0.00    +0.000 C 
ATOM      2  O   UNL     1       1.082   9.469  18.817  0.00  0.00    +0.000 OA
ATOM      3  N   UNL     1       1.779   7.811  20.323  0.00  0.00    +0.000 N 
ATOM      4  H   UNL     1       1.714   7.569  21.310  0.00  0.00    +0.000 HD
ENDROOT
BRANCH   3   5
ATOM      5  C   UNL     1       2.407   6.900  19.481  0.00  0.00    +0.000 A 
ATOM      6  S   UNL     1       3.287   7.472  18.140  0.00  0.00    +0.000 S 
ATOM      7  C   UNL     1       3.798   5.924  17.711  0.00  0.00    +0.000 A 
ATOM      8  C   UNL     1       3.306   4.950  18.555  0.00  0.00    +0.000 A 
ATOM      9  C   UNL     1       2.482   5.514  19.611  0.00  0.00    +0.000 A 
ATOM     10  C   UNL     1       3.602   3.494  18.308  0.00  0.00    +0.000 C 
ATOM     11  C   UNL     1       4.820   3.308  17.387  0.00  0.00    +0.000 C 
ATOM     12  C   UNL     1       4.752   4.222  16.158  0.00  0.00    +0.000 C 
ATOM     13  C   UNL     1       4.719   5.704  16.552  0.00  0.00    +0.000 C 
BRANCH   9  14
ATOM     14  C   UNL     1       1.843   4.722  20.662  0.00  0.00    +0.000 C 
ATOM     15  N   UNL     1       0.611   4.200  20.366  0.00  0.00    +0.000 N 
ATOM     16  O   UNL     1       2.363   4.464  21.741  0.00  0.00    +0.000 OA
ATOM     17  H   UNL     1       0.367   4.033  19.400  0.00  0.00    +0.000 HD
ATOM     18  H   UNL     1       0.278   3.523  21.043  0.00  0.00    +0.000 HD
ENDBRANCH   9  14
ENDBRANCH   3   5
BRANCH   1  21
ATOM     19  C   UNL     1      -0.499  11.207  22.318  0.00  0.00    +0.000 A 
ATOM     20  C   UNL     1      -0.188  10.911  21.014  0.00  0.00    +0.000 A 
ATOM     21  C   UNL     1       0.659   9.774  21.085  0.00  0.00    +0.000 A 
ATOM     22  N   UNL     1       0.883   9.423  22.362  0.00  0.00    +0.000 NA
ATOM     23  O   UNL     1       0.167  10.330  23.126  0.00  0.00    +0.000 OA
BRANCH  19  27
ATOM     24  C   UNL     1      -3.152  14.065  24.084  0.00  0.00    +0.000 A 
ATOM     25  C   UNL     1      -1.847  14.425  23.755  0.00  0.00    +0.000 A 
ATOM     26  C   UNL     1      -0.968  13.488  23.199  0.00  0.00    +0.000 A 
ATOM     27  C   UNL     1      -1.380  12.165  22.976  0.00  0.00    +0.000 A 
ATOM     28  C   UNL     1      -2.678  11.804  23.364  0.00  0.00    +0.000 A 
ATOM     29  C   UNL     1      -3.558  12.744  23.912  0.00  0.00    +0.000 A 
BRANCH  24  31
ATOM     30  C   UNL     1      -5.172  15.270  23.916  0.00  0.00    +0.000 C 
ATOM     31  O   UNL     1      -3.934  15.065  24.591  0.00  0.00    +0.000 OA
ENDBRANCH  24  31
ENDBRANCH  19  27
ENDBRANCH   1  21
TORSDOF 5
ENDMDL
MODEL 6
REMARK VINA RESULT:      -7.5      1.476      1.957
REMARK  Name = 
REMARK  6 active torsions:
REMARK  status: ('A' for Active; 'I' for Inactive)
REMARK    1  A    between atoms: C_1  and  O_2
REMARK    2  A    between atoms: O_2  and  C_3
REMARK    3  A    between atoms: C_6  and  C_7
REMARK    4  A    between atoms: C_9  and  C_10
REMARK    5  A    between atoms: N_12  and  C_13
REMARK    6  A    between atoms: C_17  and  C_18
REMARK                            x       y       z     vdW  Elec       q    Type
REMARK                         _______ _______ _______ _____ _____    ______ ____
ROOT
ATOM      1  C   UNL     1       0.961  10.733  19.159  0.00  0.00    +0.000 C 
ATOM      2  O   UNL     1       1.404  11.867  19.004  0.00  0.00    +0.000 OA
ATOM      3  N   UNL     1      -0.160  10.361  19.892  0.00  0.00    +0.000 N 
ATOM      4  H   UNL     1      -0.323   9.359  19.980  0.00  0.00    +0.000 HD
ENDROOT
BRANCH   3   5
ATOM      5  C   UNL     1      -1.058  11.213  20.523  0.00  0.00    +0.000 A 
ATOM      6  S   UNL     1      -0.924  11.470  22.202  0.00  0.00    +0.000 S 
ATOM      7  C   UNL     1      -2.173  12.602  22.211  0.00  0.00    +0.000 A 
ATOM      8  C   UNL     1      -2.723  12.796  20.960  0.00  0.00    +0.000 A 
ATOM      9  C   UNL     1      -2.069  11.981  19.949  0.00  0.00    +0.000 A 
ATOM     10  C   UNL     1      -3.889  13.728  20.767  0.00  0.00    +0.000 C 
ATOM     11  C   UNL     1      -4.032  14.715  21.937  0.00  0.00    +0.000 C 
ATOM     12  C   UNL     1      -3.922  14.010  23.295  0.00  0.00    +0.000 C 
ATOM     13  C   UNL     1      -2.567  13.314  23.467  0.00  0.00    +0.000 C 
BRANCH   9  14
ATOM     14  C   UNL     1      -2.429  11.992  18.531  0.00  0.00    +0.000 C 
ATOM     15  N   UNL     1      -1.510  12.539  17.674  0.00  0.00    +0.000 N 
ATOM     16  O   UNL     1      -3.457  11.502  18.079  0.00  0.00    +0.000 OA
ATOM     17  H   UNL     1      -0.535  12.547  17.940  0.00  0.00    +0.000 HD
ATOM     18  H   UNL     1      -1.713  12.376  16.695  0.00  0.00    +0.000 HD
ENDBRANCH   9  14
ENDBRANCH   3   5
BRANCH   1  21
ATOM     19  C   UNL     1       2.519   7.573  18.233  0.00  0.00    +0.000 A 
ATOM     20  C   UNL     1       1.849   8.315  19.174  0.00  0.00    +0.000 A 
ATOM     21  C   UNL     1       1.683   9.595  18.584  0.00  0.00    +0.000 A 
ATOM     22  N   UNL     1       2.255   9.641  17.370  0.00  0.00    +0.000 NA
ATOM     23  O   UNL     1       2.785   8.379  17.162  0.00  0.00    +0.000 OA
BRANCH  19  27
ATOM     24  C   UNL     1       3.700   3.489  17.719  0.00  0.00    +0.000 A 
ATOM     25  C   UNL     1       2.371   3.810  17.993  0.00  0.00    +0.000 A 
ATOM     26  C   UNL     1       1.985   5.141  18.184  0.00  0.00    +0.000 A 
ATOM     27  C   UNL     1       2.929   6.177  18.120  0.00  0.00    +0.000 A 
ATOM     28  C   UNL     1       4.271   5.835  17.899  0.00  0.00    +0.000 A 
ATOM     29  C   UNL     1       4.654   4.504  17.699  0.00  0.00    +0.000 A 
BRANCH  24  31
ATOM     30  C   UNL     1       3.544   1.295  18.567  0.00  0.00    +0.000 C 
ATOM     31  O   UNL     1       3.962   2.163  17.517  0.00  0.00    +0.000 OA
ENDBRANCH  24  31
ENDBRANCH  19  27
ENDBRANCH   1  21
TORSDOF 5
ENDMDL
MODEL 7
REMARK VINA RESULT:      -7.5      1.586      2.100
REMARK  Name = 
REMARK  6 active torsions:
REMARK  status: ('A' for Active; 'I' for Inactive)
REMARK    1  A    between atoms: C_1  and  O_2
REMARK    2  A    between atoms: O_2  and  C_3
REMARK    3  A    between atoms: C_6  and  C_7
REMARK    4  A    between atoms: C_9  and  C_10
REMARK    5  A    between atoms: N_12  and  C_13
REMARK    6  A    between atoms: C_17  and  C_18
REMARK                            x       y       z     vdW  Elec       q    Type
REMARK                         _______ _______ _______ _____ _____    ______ ____
ROOT
ATOM      1  C   UNL     1       0.779   9.949  19.623  0.00  0.00    +0.000 C 
ATOM      2  O   UNL     1       0.303  10.582  18.685  0.00  0.00    +0.000 OA
ATOM      3  N   UNL     1       0.760  10.297  20.969  0.00  0.00    +0.000 N 
ATOM      4  H   UNL     1       1.286   9.689  21.594  0.00  0.00    +0.000 HD
ENDROOT
BRANCH   3   5
ATOM      5  C   UNL     1       0.115  11.391  21.533  0.00  0.00    +0.000 A 
ATOM      6  S   UNL     1      -1.249  11.137  22.521  0.00  0.00    +0.000 S 
ATOM      7  C   UNL     1      -1.392  12.776  22.887  0.00  0.00    +0.000 A 
ATOM      8  C   UNL     1      -0.429  13.545  22.264  0.00  0.00    +0.000 A 
ATOM      9  C   UNL     1       0.473  12.736  21.461  0.00  0.00    +0.000 A 
ATOM     10  C   UNL     1      -0.419  15.042  22.420  0.00  0.00    +0.000 C 
ATOM     11  C   UNL     1      -1.226  15.494  23.648  0.00  0.00    +0.000 C 
ATOM     12  C   UNL     1      -2.590  14.796  23.723  0.00  0.00    +0.000 C 
ATOM     13  C   UNL     1      -2.445  13.273  23.827  0.00  0.00    +0.000 C 
BRANCH   9  14
ATOM     14  C   UNL     1       1.601  13.277  20.702  0.00  0.00    +0.000 C 
ATOM     15  N   UNL     1       1.392  13.478  19.362  0.00  0.00    +0.000 N 
ATOM     16  O   UNL     1       2.672  13.601  21.201  0.00  0.00    +0.000 OA
ATOM     17  H   UNL     1       0.451  13.629  19.029  0.00  0.00    +0.000 HD
ATOM     18  H   UNL     1       2.127  14.007  18.908  0.00  0.00    +0.000 HD
ENDBRANCH   9  14
ENDBRANCH   3   5
BRANCH   1  21
ATOM     19  C   UNL     1       2.703   7.124  18.362  0.00  0.00    +0.000 A 
ATOM     20  C   UNL     1       2.026   8.289  18.098  0.00  0.00    +0.000 A 
ATOM     21  C   UNL     1       1.517   8.713  19.353  0.00  0.00    +0.000 A 
ATOM     22  N   UNL     1       1.833   7.835  20.319  0.00  0.00    +0.000 NA
ATOM     23  O   UNL     1       2.563   6.839  19.691  0.00  0.00    +0.000 OA
BRANCH  19  27
ATOM     24  C   UNL     1       5.260   4.441  16.218  0.00  0.00    +0.000 A 
ATOM     25  C   UNL     1       5.437   5.819  16.112  0.00  0.00    +0.000 A 
ATOM     26  C   UNL     1       4.589   6.701  16.792  0.00  0.00    +0.000 A 
ATOM     27  C   UNL     1       3.536   6.215  17.582  0.00  0.00    +0.000 A 
ATOM     28  C   UNL     1       3.336   4.828  17.635  0.00  0.00    +0.000 A 
ATOM     29  C   UNL     1       4.190   3.948  16.961  0.00  0.00    +0.000 A 
BRANCH  24  31
ATOM     30  C   UNL     1       6.333   4.006  14.164  0.00  0.00    +0.000 C 
ATOM     31  O   UNL     1       6.163   3.672  15.539  0.00  0.00    +0.000 OA
ENDBRANCH  24  31
ENDBRANCH  19  27
ENDBRANCH   1  21
TORSDOF 5
ENDMDL
MODEL 8
REMARK VINA RESULT:      -7.5      2.096      3.379
REMARK  Name = 
REMARK  6 active torsions:
REMARK  status: ('A' for Active; 'I' for Inactive)
REMARK    1  A    between atoms: C_1  and  O_2
REMARK    2  A    between atoms: O_2  and  C_3
REMARK    3  A    between atoms: C_6  and  C_7
REMARK    4  A    between atoms: C_9  and  C_10
REMARK    5  A    between atoms: N_12  and  C_13
REMARK    6  A    between atoms: C_17  and  C_18
REMARK                            x       y       z     vdW  Elec       q    Type
REMARK                         _______ _______ _______ _____ _____    ______ ____
ROOT
ATOM      1  C   UNL     1       2.159   6.546  20.018  0.00  0.00    +0.000 C 
ATOM      2  O   UNL     1       1.483   5.874  20.792  0.00  0.00    +0.000 OA
ATOM      3  N   UNL     1       2.011   7.897  19.727  0.00  0.00    +0.000 N 
ATOM      4  H   UNL     1       2.609   8.263  18.989  0.00  0.00    +0.000 HD
ENDROOT
BRANCH   3   5
ATOM      5  C   UNL     1       1.121   8.781  20.326  0.00  0.00    +0.000 A 
ATOM      6  S   UNL     1       0.908   8.734  22.015  0.00  0.00    +0.000 S 
ATOM      7  C   UNL     1      -0.142  10.053  22.002  0.00  0.00    +0.000 A 
ATOM      8  C   UNL     1      -0.363  10.543  20.731  0.00  0.00    +0.000 A 
ATOM      9  C   UNL     1       0.382   9.800  19.728  0.00  0.00    +0.000 A 
ATOM     10  C   UNL     1      -1.315  11.686  20.500  0.00  0.00    +0.000 C 
ATOM     11  C   UNL     1      -1.579  12.479  21.791  0.00  0.00    +0.000 C 
ATOM     12  C   UNL     1      -1.877  11.554  22.978  0.00  0.00    +0.000 C 
ATOM     13  C   UNL     1      -0.705  10.610  23.272  0.00  0.00    +0.000 C 
BRANCH   9  14
ATOM     14  C   UNL     1       0.356  10.106  18.297  0.00  0.00    +0.000 C 
ATOM     15  N   UNL     1       1.510  10.616  17.763  0.00  0.00    +0.000 N 
ATOM     16  O   UNL     1      -0.601   9.884  17.565  0.00  0.00    +0.000 OA
ATOM     17  H   UNL     1       2.392  10.410  18.211  0.00  0.00    +0.000 HD
ATOM     18  H   UNL     1       1.512  10.654  16.750  0.00  0.00    +0.000 HD
ENDBRANCH   9  14
ENDBRANCH   3   5
BRANCH   1  21
ATOM     19  C   UNL     1       4.526   5.247  17.572  0.00  0.00    +0.000 A 
ATOM     20  C   UNL     1       3.356   5.919  17.824  0.00  0.00    +0.000 A 
ATOM     21  C   UNL     1       3.214   5.896  19.236  0.00  0.00    +0.000 A 
ATOM     22  N   UNL     1       4.221   5.215  19.808  0.00  0.00    +0.000 NA
ATOM     23  O   UNL     1       5.029   4.802  18.762  0.00  0.00    +0.000 OA
BRANCH  19  27
ATOM     24  C   UNL     1       6.813   4.614  14.008  0.00  0.00    +0.000 A 
ATOM     25  C   UNL     1       5.513   4.120  14.109  0.00  0.00    +0.000 A 
ATOM     26  C   UNL     1       4.770   4.304  15.281  0.00  0.00    +0.000 A 
ATOM     27  C   UNL     1       5.324   4.976  16.381  0.00  0.00    +0.000 A 
ATOM     28  C   UNL     1       6.651   5.419  16.285  0.00  0.00    +0.000 A 
ATOM     29  C   UNL     1       7.390   5.241  15.110  0.00  0.00    +0.000 A 
BRANCH  24  31
ATOM     30  C   UNL     1       6.773   3.504  11.928  0.00  0.00    +0.000 C 
ATOM     31  O   UNL     1       7.436   4.407  12.809  0.00  0.00    +0.000 OA
ENDBRANCH  24  31
ENDBRANCH  19  27
ENDBRANCH   1  21
TORSDOF 5
ENDMDL
MODEL 9
REMARK VINA RESULT:      -7.4      2.660      2.829
REMARK  Name = 
REMARK  6 active torsions:
REMARK  status: ('A' for Active; 'I' for Inactive)
REMARK    1  A    between atoms: C_1  and  O_2
REMARK    2  A    between atoms: O_2  and  C_3
REMARK    3  A    between atoms: C_6  and  C_7
REMARK    4  A    between atoms: C_9  and  C_10
REMARK    5  A    between atoms: N_12  and  C_13
REMARK    6  A    between atoms: C_17  and  C_18
REMARK                            x       y       z     vdW  Elec       q    Type
REMARK                         _______ _______ _______ _____ _____    ______ ____
ROOT
ATOM      1  C   UNL     1       1.037  10.360  19.862  0.00  0.00    +0.000 C 
ATOM      2  O   UNL     1       0.166  10.476  20.719  0.00  0.00    +0.000 OA
ATOM      3  N   UNL     1       1.580  11.367  19.072  0.00  0.00    +0.000 N 
ATOM      4  H   UNL     1       2.232  11.066  18.350  0.00  0.00    +0.000 HD
ENDROOT
BRANCH   3   5
ATOM      5  C   UNL     1       1.306  12.727  19.159  0.00  0.00    +0.000 A 
ATOM      6  S   UNL     1       2.560  13.806  19.562  0.00  0.00    +0.000 S 
ATOM      7  C   UNL     1       1.568  15.157  19.378  0.00  0.00    +0.000 A 
ATOM      8  C   UNL     1       0.276  14.822  19.027  0.00  0.00    +0.000 A 
ATOM      9  C   UNL     1       0.107  13.385  18.890  0.00  0.00    +0.000 A 
ATOM     10  C   UNL     1      -0.779  15.885  18.869  0.00  0.00    +0.000 C 
ATOM     11  C   UNL     1      -0.161  17.278  18.669  0.00  0.00    +0.000 C 
ATOM     12  C   UNL     1       0.960  17.556  19.679  0.00  0.00    +0.000 C 
ATOM     13  C   UNL     1       2.104  16.543  19.551  0.00  0.00    +0.000 C 
BRANCH   9  14
ATOM     14  C   UNL     1      -1.151  12.742  18.509  0.00  0.00    +0.000 C 
ATOM     15  N   UNL     1      -1.288  12.409  17.187  0.00  0.00    +0.000 N 
ATOM     16  O   UNL     1      -2.038  12.447  19.301  0.00  0.00    +0.000 OA
ATOM     17  H   UNL     1      -0.459  12.246  16.633  0.00  0.00    +0.000 HD
ATOM     18  H   UNL     1      -2.088  11.818  16.994  0.00  0.00    +0.000 HD
ENDBRANCH   9  14
ENDBRANCH   3   5
BRANCH   1  21
ATOM     19  C   UNL     1       2.570   7.331  18.540  0.00  0.00    +0.000 A 
ATOM     20  C   UNL     1       2.179   8.631  18.332  0.00  0.00    +0.000 A 
ATOM     21  C   UNL     1       1.561   9.029  19.546  0.00  0.00    +0.000 A 
ATOM     22  N   UNL     1       1.541   8.016  20.428  0.00  0.00    +0.000 NA
ATOM     23  O   UNL     1       2.161   6.956  19.788  0.00  0.00    +0.000 OA
BRANCH  19  27
ATOM     24  C   UNL     1       4.909   4.416  16.451  0.00  0.00    +0.000 A 
ATOM     25  C   UNL     1       5.241   5.768  16.380  0.00  0.00    +0.000 A 
ATOM     26  C   UNL     1       4.465   6.727  17.043  0.00  0.00    +0.000 A 
ATOM     27  C   UNL     1       3.331   6.348  17.777  0.00  0.00    +0.000 A 
ATOM     28  C   UNL     1       2.978   4.991  17.793  0.00  0.00    +0.000 A 
ATOM     29  C   UNL     1       3.759   4.032  17.137  0.00  0.00    +0.000 A 
BRANCH  24  31
ATOM     30  C   UNL     1       6.134   3.975  14.485  0.00  0.00    +0.000 C 
ATOM     31  O   UNL     1       5.751   3.563  15.794  0.00  0.00    +0.000 OA
ENDBRANCH  24  31
ENDBRANCH  19  27
ENDBRANCH   1  21
TORSDOF 5
ENDMDL
