MODEL 1
REMARK VINA RESULT:      -6.5      0.000      0.000
REMARK  Name = 
REMARK  8 active torsions:
REMARK  status: ('A' for Active; 'I' for Inactive)
REMARK    1  A    between atoms: N_5  and  C_6
REMARK    2  A    between atoms: C_6  and  C_7
REMARK    3  A    between atoms: C_7  and  C_8
REMARK    4  A    between atoms: C_7  and  O_10
REMARK    5  A    between atoms: O_10  and  C_11
REMARK    6  A    between atoms: C_11  and  P_12
REMARK    7  A    between atoms: P_12  and  O_14
REMARK    8  A    between atoms: P_12  and  O_15
REMARK                            x       y       z     vdW  Elec       q    Type
REMARK                         _______ _______ _______ _____ _____    ______ ____
ROOT
ATOM      1  C   UNL     1       4.760   3.455  16.954  0.00  0.00    +0.000 C 
ENDROOT
BRANCH   1   6
ATOM      2  N   UNL     1       0.645   3.154  20.635  0.00  0.00    +0.000 N 
ATOM      3  C   UNL     1       1.655   3.215  19.715  0.00  0.00    +0.000 A 
ATOM      4  C   UNL     1       1.332   3.535  18.311  0.00  0.00    +0.000 A 
ATOM      5  C   UNL     1       2.369   3.621  17.481  0.00  0.00    +0.000 A 
ATOM      6  N   UNL     1       3.654   3.397  17.920  0.00  0.00    +0.000 N 
ATOM      7  C   UNL     1       3.914   3.027  19.242  0.00  0.00    +0.000 A 
ATOM      8  O   UNL     1       5.061   2.740  19.596  0.00  0.00    +0.000 OA
ATOM      9  N   UNL     1       2.863   2.995  20.138  0.00  0.00    +0.000 NA
ATOM     10  H   UNL     1      -0.220   3.636  20.434  0.00  0.00    +0.000 HD
ATOM     11  H   UNL     1       0.964   3.247  21.594  0.00  0.00    +0.000 HD
ENDBRANCH   1   6
BRANCH   1  12
ATOM     12  C   UNL     1       4.933   4.850  16.323  0.00  0.00    +0.000 C 
BRANCH  12  13
ATOM     13  C   UNL     1       6.030   4.799  15.253  0.00  0.00    +0.000 C 
ATOM     14  F   UNL     1       5.458   4.687  14.022  0.00  0.00    +0.000 F 
ENDBRANCH  12  13
BRANCH  12  15
ATOM     15  O   UNL     1       5.274   5.788  17.367  0.00  0.00    +0.000 OA
BRANCH  15  16
ATOM     16  C   UNL     1       6.642   6.197  17.314  0.00  0.00    +0.000 C 
BRANCH  16  17
ATOM     17  P   UNL     1       7.448   5.772  18.901  0.00  0.00    +0.000 P 
ATOM     18  O   UNL     1       6.091   5.674  19.608  0.00  0.00    +0.000 OA
BRANCH  17  19
ATOM     19  O   UNL     1       7.744   4.240  18.394  0.00  0.00    +0.000 OA
ATOM     20  H   UNL     1       7.166   3.604  18.856  0.00  0.00    +0.000 HD
ENDBRANCH  17  19
BRANCH  17  21
ATOM     21  O   UNL     1       8.211   5.371  20.401  0.00  0.00    +0.000 OA
ATOM     22  H   UNL     1       8.164   4.394  20.448  0.00  0.00    +0.000 HD
ENDBRANCH  17  21
ENDBRANCH  16  17
ENDBRANCH  15  16
ENDBRANCH  12  15
ENDBRANCH   1  12
TORSDOF 8
ENDMDL
MODEL 2
REMARK VINA RESULT:      -6.3      3.357      5.285
REMARK  Name = 
REMARK  8 active torsions:
REMARK  status: ('A' for Active; 'I' for Inactive)
REMARK    1  A    between atoms: N_5  and  C_6
REMARK    2  A    between atoms: C_6  and  C_7
REMARK    3  A    between atoms: C_7  and  C_8
REMARK    4  A    between atoms: C_7  and  O_10
REMARK    5  A    between atoms: O_10  and  C_11
REMARK    6  A    between atoms: C_11  and  P_12
REMARK    7  A    between atoms: P_12  and  O_14
REMARK    8  A    between atoms: P_12  and  O_15
REMARK                            x       y       z     vdW  Elec       q    Type
REMARK                         _______ _______ _______ _____ _____    ______ ____
ROOT
ATOM      1  C   UNL     1       4.468   5.701  19.303  0.00  0.00    +0.000 C 
ENDROOT
BRANCH   1   6
ATOM      2  N   UNL     1       7.586   5.248  14.759  0.00  0.00    +0.000 N 
ATOM      3  C   UNL     1       6.814   5.378  15.881  0.00  0.00    +0.000 A 
ATOM      4  C   UNL     1       5.462   5.958  15.762  0.00  0.00    +0.000 A 
ATOM      5  C   UNL     1       4.752   6.013  16.886  0.00  0.00    +0.000 A 
ATOM      6  N   UNL     1       5.274   5.573  18.080  0.00  0.00    +0.000 N 
ATOM      7  C   UNL     1       6.584   5.094  18.167  0.00  0.00    +0.000 A 
ATOM      8  O   UNL     1       7.067   4.790  19.261  0.00  0.00    +0.000 OA
ATOM      9  N   UNL     1       7.318   4.966  17.004  0.00  0.00    +0.000 NA
ATOM     10  H   UNL     1       7.128   5.231  13.858  0.00  0.00    +0.000 HD
ATOM     11  H   UNL     1       8.338   4.574  14.860  0.00  0.00    +0.000 HD
ENDBRANCH   1   6
BRANCH   1  12
ATOM     12  C   UNL     1       2.954   5.733  19.023  0.00  0.00    +0.000 C 
BRANCH  12  13
ATOM     13  C   UNL     1       2.255   6.614  20.066  0.00  0.00    +0.000 C 
ATOM     14  F   UNL     1       1.264   5.901  20.671  0.00  0.00    +0.000 F 
ENDBRANCH  12  13
BRANCH  12  15
ATOM     15  O   UNL     1       2.448   4.381  19.068  0.00  0.00    +0.000 OA
BRANCH  15  16
ATOM     16  C   UNL     1       3.128   3.571  20.028  0.00  0.00    +0.000 C 
BRANCH  16  17
ATOM     17  P   UNL     1       3.698   2.036  19.210  0.00  0.00    +0.000 P 
ATOM     18  O   UNL     1       3.594   2.689  17.827  0.00  0.00    +0.000 OA
BRANCH  17  19
ATOM     19  O   UNL     1       5.250   2.314  19.665  0.00  0.00    +0.000 OA
ATOM     20  H   UNL     1       5.745   2.762  18.954  0.00  0.00    +0.000 HD
ENDBRANCH  17  19
BRANCH  17  21
ATOM     21  O   UNL     1       4.237   0.585  18.438  0.00  0.00    +0.000 OA
ATOM     22  H   UNL     1       5.184   0.742  18.250  0.00  0.00    +0.000 HD
ENDBRANCH  17  21
ENDBRANCH  16  17
ENDBRANCH  15  16
ENDBRANCH  12  15
ENDBRANCH   1  12
TORSDOF 8
ENDMDL
MODEL 3
REMARK VINA RESULT:      -6.2      1.089      1.089
REMARK  Name = 
REMARK  8 active torsions:
REMARK  status: ('A' for Active; 'I' for Inactive)
REMARK    1  A    between atoms: N_5  and  C_6
REMARK    2  A    between atoms: C_6  and  C_7
REMARK    3  A    between atoms: C_7  and  C_8
REMARK    4  A    between atoms: C_7  and  O_10
REMARK    5  A    between atoms: O_10  and  C_11
REMARK    6  A    between atoms: C_11  and  P_12
REMARK    7  A    between atoms: P_12  and  O_14
REMARK    8  A    between atoms: P_12  and  O_15
REMARK                            x       y       z     vdW  Elec       q    Type
REMARK                         _______ _______ _______ _____ _____    ______ ____
ROOT
ATOM      1  C   UNL     1       4.928   3.438  16.734  0.00  0.00    +0.000 C 
ENDROOT
BRANCH   1   6
ATOM      2  N   UNL     1       0.628   3.931  20.176  0.00  0.00    +0.000 N 
ATOM      3  C   UNL     1       1.681   3.814  19.311  0.00  0.00    +0.000 A 
ATOM      4  C   UNL     1       2.143   5.006  18.573  0.00  0.00    +0.000 A 
ATOM      5  C   UNL     1       3.199   4.828  17.782  0.00  0.00    +0.000 A 
ATOM      6  N   UNL     1       3.795   3.594  17.657  0.00  0.00    +0.000 N 
ATOM      7  C   UNL     1       3.285   2.473  18.318  0.00  0.00    +0.000 A 
ATOM      8  O   UNL     1       3.776   1.357  18.122  0.00  0.00    +0.000 OA
ATOM      9  N   UNL     1       2.231   2.644  19.194  0.00  0.00    +0.000 NA
ATOM     10  H   UNL     1       0.405   4.846  20.543  0.00  0.00    +0.000 HD
ATOM     11  H   UNL     1       0.579   3.181  20.858  0.00  0.00    +0.000 HD
ENDBRANCH   1   6
BRANCH   1  12
ATOM     12  C   UNL     1       5.349   4.763  16.072  0.00  0.00    +0.000 C 
BRANCH  12  13
ATOM     13  C   UNL     1       5.376   4.592  14.548  0.00  0.00    +0.000 C 
ATOM     14  F   UNL     1       6.667   4.475  14.128  0.00  0.00    +0.000 F 
ENDBRANCH  12  13
BRANCH  12  15
ATOM     15  O   UNL     1       6.652   5.134  16.572  0.00  0.00    +0.000 OA
BRANCH  15  16
ATOM     16  C   UNL     1       6.602   6.250  17.464  0.00  0.00    +0.000 C 
BRANCH  16  17
ATOM     17  P   UNL     1       7.428   5.792  19.032  0.00  0.00    +0.000 P 
ATOM     18  O   UNL     1       6.097   5.345  19.647  0.00  0.00    +0.000 OA
BRANCH  17  19
ATOM     19  O   UNL     1       8.037   4.421  18.365  0.00  0.00    +0.000 OA
ATOM     20  H   UNL     1       7.831   3.645  18.918  0.00  0.00    +0.000 HD
ENDBRANCH  17  19
BRANCH  17  21
ATOM     21  O   UNL     1       8.210   5.359  20.513  0.00  0.00    +0.000 OA
ATOM     22  H   UNL     1       8.172   6.171  21.058  0.00  0.00    +0.000 HD
ENDBRANCH  17  21
ENDBRANCH  16  17
ENDBRANCH  15  16
ENDBRANCH  12  15
ENDBRANCH   1  12
TORSDOF 8
ENDMDL
MODEL 4
REMARK VINA RESULT:      -6.2      3.293      5.281
REMARK  Name = 
REMARK  8 active torsions:
REMARK  status: ('A' for Active; 'I' for Inactive)
REMARK    1  A    between atoms: N_5  and  C_6
REMARK    2  A    between atoms: C_6  and  C_7
REMARK    3  A    between atoms: C_7  and  C_8
REMARK    4  A    between atoms: C_7  and  O_10
REMARK    5  A    between atoms: O_10  and  C_11
REMARK    6  A    between atoms: C_11  and  P_12
REMARK    7  A    between atoms: P_12  and  O_14
REMARK    8  A    between atoms: P_12  and  O_15
REMARK                            x       y       z     vdW  Elec       q    Type
REMARK                         _______ _______ _______ _____ _____    ______ ____
ROOT
ATOM      1  C   UNL     1       3.760   5.900  19.355  0.00  0.00    +0.000 C 
ENDROOT
BRANCH   1   6
ATOM      2  N   UNL     1       7.398   5.415  15.219  0.00  0.00    +0.000 N 
ATOM      3  C   UNL     1       6.502   5.552  16.244  0.00  0.00    +0.000 A 
ATOM      4  C   UNL     1       5.365   6.479  16.087  0.00  0.00    +0.000 A 
ATOM      5  C   UNL     1       4.510   6.530  17.106  0.00  0.00    +0.000 A 
ATOM      6  N   UNL     1       4.706   5.772  18.237  0.00  0.00    +0.000 N 
ATOM      7  C   UNL     1       5.833   4.958  18.379  0.00  0.00    +0.000 A 
ATOM      8  O   UNL     1       6.040   4.357  19.437  0.00  0.00    +0.000 OA
ATOM      9  N   UNL     1       6.700   4.839  17.310  0.00  0.00    +0.000 NA
ATOM     10  H   UNL     1       7.106   5.671  14.286  0.00  0.00    +0.000 HD
ATOM     11  H   UNL     1       7.942   4.559  15.269  0.00  0.00    +0.000 HD
ENDBRANCH   1   6
BRANCH   1  12
ATOM     12  C   UNL     1       2.341   5.420  18.998  0.00  0.00    +0.000 C 
BRANCH  12  13
ATOM     13  C   UNL     1       1.589   5.035  20.277  0.00  0.00    +0.000 C 
ATOM     14  F   UNL     1       2.479   4.884  21.298  0.00  0.00    +0.000 F 
ENDBRANCH  12  13
BRANCH  12  15
ATOM     15  O   UNL     1       2.448   4.291  18.103  0.00  0.00    +0.000 OA
BRANCH  15  16
ATOM     16  C   UNL     1       1.917   3.090  18.668  0.00  0.00    +0.000 C 
BRANCH  16  17
ATOM     17  P   UNL     1       3.203   1.789  18.604  0.00  0.00    +0.000 P 
ATOM     18  O   UNL     1       3.913   2.494  17.443  0.00  0.00    +0.000 OA
BRANCH  17  19
ATOM     19  O   UNL     1       3.940   2.387  19.942  0.00  0.00    +0.000 OA
ATOM     20  H   UNL     1       3.853   3.358  19.982  0.00  0.00    +0.000 HD
ENDBRANCH  17  19
BRANCH  17  21
ATOM     21  O   UNL     1       4.417   0.559  18.545  0.00  0.00    +0.000 OA
ATOM     22  H   UNL     1       3.946  -0.265  18.783  0.00  0.00    +0.000 HD
ENDBRANCH  17  21
ENDBRANCH  16  17
ENDBRANCH  15  16
ENDBRANCH  12  15
ENDBRANCH   1  12
TORSDOF 8
ENDMDL
MODEL 5
REMARK VINA RESULT:      -6.1      2.687      3.133
REMARK  Name = 
REMARK  8 active torsions:
REMARK  status: ('A' for Active; 'I' for Inactive)
REMARK    1  A    between atoms: N_5  and  C_6
REMARK    2  A    between atoms: C_6  and  C_7
REMARK    3  A    between atoms: C_7  and  C_8
REMARK    4  A    between atoms: C_7  and  O_10
REMARK    5  A    between atoms: O_10  and  C_11
REMARK    6  A    between atoms: C_11  and  P_12
REMARK    7  A    between atoms: P_12  and  O_14
REMARK    8  A    between atoms: P_12  and  O_15
REMARK                            x       y       z     vdW  Elec       q    Type
REMARK                         _______ _______ _______ _____ _____    ______ ____
ROOT
ATOM      1  C   UNL     1       2.654   5.486  17.806  0.00  0.00    +0.000 C 
ENDROOT
BRANCH   1   6
ATOM      2  N   UNL     1       1.443   2.317  22.171  0.00  0.00    +0.000 N 
ATOM      3  C   UNL     1       1.731   3.114  21.098  0.00  0.00    +0.000 A 
ATOM      4  C   UNL     1       2.329   4.443  21.327  0.00  0.00    +0.000 A 
ATOM      5  C   UNL     1       2.623   5.145  20.235  0.00  0.00    +0.000 A 
ATOM      6  N   UNL     1       2.356   4.653  18.979  0.00  0.00    +0.000 N 
ATOM      7  C   UNL     1       1.724   3.418  18.803  0.00  0.00    +0.000 A 
ATOM      8  O   UNL     1       1.409   3.034  17.673  0.00  0.00    +0.000 OA
ATOM      9  N   UNL     1       1.468   2.642  19.917  0.00  0.00    +0.000 NA
ATOM     10  H   UNL     1       1.926   2.488  23.042  0.00  0.00    +0.000 HD
ATOM     11  H   UNL     1       1.342   1.335  21.933  0.00  0.00    +0.000 HD
ENDBRANCH   1   6
BRANCH   1  12
ATOM     12  C   UNL     1       3.569   6.681  18.136  0.00  0.00    +0.000 C 
BRANCH  12  13
ATOM     13  C   UNL     1       2.819   7.992  17.874  0.00  0.00    +0.000 C 
ATOM     14  F   UNL     1       2.181   8.385  19.012  0.00  0.00    +0.000 F 
ENDBRANCH  12  13
BRANCH  12  15
ATOM     15  O   UNL     1       4.755   6.593  17.316  0.00  0.00    +0.000 OA
BRANCH  15  16
ATOM     16  C   UNL     1       4.937   5.294  16.749  0.00  0.00    +0.000 C 
BRANCH  16  17
ATOM     17  P   UNL     1       6.598   4.676  17.205  0.00  0.00    +0.000 P 
ATOM     18  O   UNL     1       7.032   6.072  17.668  0.00  0.00    +0.000 OA
BRANCH  17  19
ATOM     19  O   UNL     1       6.014   3.970  18.566  0.00  0.00    +0.000 OA
ATOM     20  H   UNL     1       6.618   4.112  19.317  0.00  0.00    +0.000 HD
ENDBRANCH  17  19
BRANCH  17  21
ATOM     21  O   UNL     1       8.168   4.092  17.635  0.00  0.00    +0.000 OA
ATOM     22  H   UNL     1       8.001   3.231  18.069  0.00  0.00    +0.000 HD
ENDBRANCH  17  21
ENDBRANCH  16  17
ENDBRANCH  15  16
ENDBRANCH  12  15
ENDBRANCH   1  12
TORSDOF 8
ENDMDL
MODEL 6
REMARK VINA RESULT:      -6.1      1.758      2.238
REMARK  Name = 
REMARK  8 active torsions:
REMARK  status: ('A' for Active; 'I' for Inactive)
REMARK    1  A    between atoms: N_5  and  C_6
REMARK    2  A    between atoms: C_6  and  C_7
REMARK    3  A    between atoms: C_7  and  C_8
REMARK    4  A    between atoms: C_7  and  O_10
REMARK    5  A    between atoms: O_10  and  C_11
REMARK    6  A    between atoms: C_11  and  P_12
REMARK    7  A    between atoms: P_12  and  O_14
REMARK    8  A    between atoms: P_12  and  O_15
REMARK                            x       y       z     vdW  Elec       q    Type
REMARK                         _______ _______ _______ _____ _____    ______ ____
ROOT
ATOM      1  C   UNL     1       2.566   5.465  17.859  0.00  0.00    +0.000 C 
ENDROOT
BRANCH   1   6
ATOM      2  N   UNL     1       1.323   2.358  22.261  0.00  0.00    +0.000 N 
ATOM      3  C   UNL     1       1.621   3.141  21.180  0.00  0.00    +0.000 A 
ATOM      4  C   UNL     1       2.436   4.356  21.374  0.00  0.00    +0.000 A 
ATOM      5  C   UNL     1       2.724   5.045  20.272  0.00  0.00    +0.000 A 
ATOM      6  N   UNL     1       2.261   4.644  19.040  0.00  0.00    +0.000 N 
ATOM      7  C   UNL     1       1.434   3.526  18.905  0.00  0.00    +0.000 A 
ATOM      8  O   UNL     1       0.953   3.234  17.806  0.00  0.00    +0.000 OA
ATOM      9  N   UNL     1       1.174   2.758  20.023  0.00  0.00    +0.000 NA
ATOM     10  H   UNL     1       1.911   2.423  23.081  0.00  0.00    +0.000 HD
ATOM     11  H   UNL     1       1.050   1.412  22.014  0.00  0.00    +0.000 HD
ENDBRANCH   1   6
BRANCH   1  12
ATOM     12  C   UNL     1       3.998   5.252  17.334  0.00  0.00    +0.000 C 
BRANCH  12  13
ATOM     13  C   UNL     1       4.340   3.758  17.359  0.00  0.00    +0.000 C 
ATOM     14  F   UNL     1       5.027   3.431  16.229  0.00  0.00    +0.000 F 
ENDBRANCH  12  13
BRANCH  12  15
ATOM     15  O   UNL     1       4.910   6.004  18.165  0.00  0.00    +0.000 OA
BRANCH  15  16
ATOM     16  C   UNL     1       6.218   6.103  17.597  0.00  0.00    +0.000 C 
BRANCH  16  17
ATOM     17  P   UNL     1       7.452   5.670  18.877  0.00  0.00    +0.000 P 
ATOM     18  O   UNL     1       6.349   5.238  19.850  0.00  0.00    +0.000 OA
BRANCH  17  19
ATOM     19  O   UNL     1       7.852   4.286  18.090  0.00  0.00    +0.000 OA
ATOM     20  H   UNL     1       7.229   3.569  18.310  0.00  0.00    +0.000 HD
ENDBRANCH  17  19
BRANCH  17  21
ATOM     21  O   UNL     1       8.620   5.260  20.085  0.00  0.00    +0.000 OA
ATOM     22  H   UNL     1       9.112   4.503  19.707  0.00  0.00    +0.000 HD
ENDBRANCH  17  21
ENDBRANCH  16  17
ENDBRANCH  15  16
ENDBRANCH  12  15
ENDBRANCH   1  12
TORSDOF 8
ENDMDL
MODEL 7
REMARK VINA RESULT:      -6.1      1.807      1.991
REMARK  Name = 
REMARK  8 active torsions:
REMARK  status: ('A' for Active; 'I' for Inactive)
REMARK    1  A    between atoms: N_5  and  C_6
REMARK    2  A    between atoms: C_6  and  C_7
REMARK    3  A    between atoms: C_7  and  C_8
REMARK    4  A    between atoms: C_7  and  O_10
REMARK    5  A    between atoms: O_10  and  C_11
REMARK    6  A    between atoms: C_11  and  P_12
REMARK    7  A    between atoms: P_12  and  O_14
REMARK    8  A    between atoms: P_12  and  O_15
REMARK                            x       y       z     vdW  Elec       q    Type
REMARK                         _______ _______ _______ _____ _____    ______ ____
ROOT
ATOM      1  C   UNL     1       4.472   3.985  16.691  0.00  0.00    +0.000 C 
ENDROOT
BRANCH   1   6
ATOM      2  N   UNL     1       2.037   6.613  20.902  0.00  0.00    +0.000 N 
ATOM      3  C   UNL     1       2.623   5.963  19.851  0.00  0.00    +0.000 A 
ATOM      4  C   UNL     1       2.696   6.635  18.540  0.00  0.00    +0.000 A 
ATOM      5  C   UNL     1       3.319   5.962  17.575  0.00  0.00    +0.000 A 
ATOM      6  N   UNL     1       3.836   4.708  17.801  0.00  0.00    +0.000 N 
ATOM      7  C   UNL     1       3.686   4.074  19.038  0.00  0.00    +0.000 A 
ATOM      8  O   UNL     1       4.075   2.913  19.196  0.00  0.00    +0.000 OA
ATOM      9  N   UNL     1       3.102   4.777  20.074  0.00  0.00    +0.000 NA
ATOM     10  H   UNL     1       1.968   7.621  20.869  0.00  0.00    +0.000 HD
ATOM     11  H   UNL     1       2.303   6.240  21.809  0.00  0.00    +0.000 HD
ENDBRANCH   1   6
BRANCH   1  12
ATOM     12  C   UNL     1       5.427   4.870  15.868  0.00  0.00    +0.000 C 
BRANCH  12  13
ATOM     13  C   UNL     1       5.557   4.305  14.448  0.00  0.00    +0.000 C 
ATOM     14  F   UNL     1       6.873   4.268  14.094  0.00  0.00    +0.000 F 
ENDBRANCH  12  13
BRANCH  12  15
ATOM     15  O   UNL     1       6.710   4.901  16.530  0.00  0.00    +0.000 OA
BRANCH  15  16
ATOM     16  C   UNL     1       6.950   6.137  17.207  0.00  0.00    +0.000 C 
BRANCH  16  17
ATOM     17  P   UNL     1       7.415   5.781  18.940  0.00  0.00    +0.000 P 
ATOM     18  O   UNL     1       8.232   4.557  18.510  0.00  0.00    +0.000 OA
BRANCH  17  19
ATOM     19  O   UNL     1       8.509   7.005  18.947  0.00  0.00    +0.000 OA
ATOM     20  H   UNL     1       9.375   6.695  19.269  0.00  0.00    +0.000 HD
ENDBRANCH  17  19
BRANCH  17  21
ATOM     21  O   UNL     1       7.855   5.446  20.580  0.00  0.00    +0.000 OA
ATOM     22  H   UNL     1       8.328   4.590  20.539  0.00  0.00    +0.000 HD
ENDBRANCH  17  21
ENDBRANCH  16  17
ENDBRANCH  15  16
ENDBRANCH  12  15
ENDBRANCH   1  12
TORSDOF 8
ENDMDL
MODEL 8
REMARK VINA RESULT:      -6.1      3.447      5.519
REMARK  Name = 
REMARK  8 active torsions:
REMARK  status: ('A' for Active; 'I' for Inactive)
REMARK    1  A    between atoms: N_5  and  C_6
REMARK    2  A    between atoms: C_6  and  C_7
REMARK    3  A    between atoms: C_7  and  C_8
REMARK    4  A    between atoms: C_7  and  O_10
REMARK    5  A    between atoms: O_10  and  C_11
REMARK    6  A    between atoms: C_11  and  P_12
REMARK    7  A    between atoms: P_12  and  O_14
REMARK    8  A    between atoms: P_12  and  O_15
REMARK                            x       y       z     vdW  Elec       q    Type
REMARK                         _______ _______ _______ _____ _____    ______ ____
ROOT
ATOM      1  C   UNL     1       4.263   3.884  17.997  0.00  0.00    +0.000 C 
ENDROOT
BRANCH   1   6
ATOM      2  N   UNL     1       8.009   5.396  14.222  0.00  0.00    +0.000 N 
ATOM      3  C   UNL     1       7.073   5.038  15.152  0.00  0.00    +0.000 A 
ATOM      4  C   UNL     1       5.678   4.818  14.723  0.00  0.00    +0.000 A 
ATOM      5  C   UNL     1       4.831   4.428  15.673  0.00  0.00    +0.000 A 
ATOM      6  N   UNL     1       5.246   4.268  16.975  0.00  0.00    +0.000 N 
ATOM      7  C   UNL     1       6.560   4.553  17.357  0.00  0.00    +0.000 A 
ATOM      8  O   UNL     1       6.892   4.493  18.545  0.00  0.00    +0.000 OA
ATOM      9  N   UNL     1       7.473   4.896  16.379  0.00  0.00    +0.000 NA
ATOM     10  H   UNL     1       7.827   5.188  13.250  0.00  0.00    +0.000 HD
ATOM     11  H   UNL     1       8.963   5.219  14.518  0.00  0.00    +0.000 HD
ENDBRANCH   1   6
BRANCH   1  12
ATOM     12  C   UNL     1       2.908   4.598  17.825  0.00  0.00    +0.000 C 
BRANCH  12  13
ATOM     13  C   UNL     1       2.925   5.925  18.592  0.00  0.00    +0.000 C 
ATOM     14  F   UNL     1       2.824   6.960  17.711  0.00  0.00    +0.000 F 
ENDBRANCH  12  13
BRANCH  12  15
ATOM     15  O   UNL     1       1.864   3.730  18.318  0.00  0.00    +0.000 OA
BRANCH  15  16
ATOM     16  C   UNL     1       2.378   2.587  19.004  0.00  0.00    +0.000 C 
BRANCH  16  17
ATOM     17  P   UNL     1       1.738   2.589  20.719  0.00  0.00    +0.000 P 
ATOM     18  O   UNL     1       2.900   3.468  21.193  0.00  0.00    +0.000 OA
BRANCH  17  19
ATOM     19  O   UNL     1       0.561   3.664  20.327  0.00  0.00    +0.000 OA
ATOM     20  H   UNL     1      -0.279   3.435  20.767  0.00  0.00    +0.000 HD
ENDBRANCH  17  19
BRANCH  17  21
ATOM     21  O   UNL     1       1.131   2.590  22.339  0.00  0.00    +0.000 OA
ATOM     22  H   UNL     1       1.827   2.146  22.864  0.00  0.00    +0.000 HD
ENDBRANCH  17  21
ENDBRANCH  16  17
ENDBRANCH  15  16
ENDBRANCH  12  15
ENDBRANCH   1  12
TORSDOF 8
ENDMDL
MODEL 9
REMARK VINA RESULT:      -6.1      3.562      5.581
REMARK  Name = 
REMARK  8 active torsions:
REMARK  status: ('A' for Active; 'I' for Inactive)
REMARK    1  A    between atoms: N_5  and  C_6
REMARK    2  A    between atoms: C_6  and  C_7
REMARK    3  A    between atoms: C_7  and  C_8
REMARK    4  A    between atoms: C_7  and  O_10
REMARK    5  A    between atoms: O_10  and  C_11
REMARK    6  A    between atoms: C_11  and  P_12
REMARK    7  A    between atoms: P_12  and  O_14
REMARK    8  A    between atoms: P_12  and  O_15
REMARK                            x       y       z     vdW  Elec       q    Type
REMARK                         _______ _______ _______ _____ _____    ______ ____
ROOT
ATOM      1  C   UNL     1       4.413   5.189  18.377  0.00  0.00    +0.000 C 
ENDROOT
BRANCH   1   6
ATOM      2  N   UNL     1       7.741   5.171  13.961  0.00  0.00    +0.000 N 
ATOM      3  C   UNL     1       6.905   5.184  15.043  0.00  0.00    +0.000 A 
ATOM      4  C   UNL     1       5.620   4.463  14.969  0.00  0.00    +0.000 A 
ATOM      5  C   UNL     1       4.877   4.481  16.073  0.00  0.00    +0.000 A 
ATOM      6  N   UNL     1       5.291   5.157  17.198  0.00  0.00    +0.000 N 
ATOM      7  C   UNL     1       6.482   5.888  17.208  0.00  0.00    +0.000 A 
ATOM      8  O   UNL     1       6.792   6.563  18.193  0.00  0.00    +0.000 OA
ATOM      9  N   UNL     1       7.301   5.831  16.097  0.00  0.00    +0.000 NA
ATOM     10  H   UNL     1       7.639   4.430  13.282  0.00  0.00    +0.000 HD
ATOM     11  H   UNL     1       8.703   5.402  14.189  0.00  0.00    +0.000 HD
ENDBRANCH   1   6
BRANCH   1  12
ATOM     12  C   UNL     1       2.963   5.581  18.034  0.00  0.00    +0.000 C 
BRANCH  12  13
ATOM     13  C   UNL     1       2.751   7.073  18.318  0.00  0.00    +0.000 C 
ATOM     14  F   UNL     1       3.310   7.809  17.317  0.00  0.00    +0.000 F 
ENDBRANCH  12  13
BRANCH  12  15
ATOM     15  O   UNL     1       2.067   4.773  18.828  0.00  0.00    +0.000 OA
BRANCH  15  16
ATOM     16  C   UNL     1       2.616   3.492  19.143  0.00  0.00    +0.000 C 
BRANCH  16  17
ATOM     17  P   UNL     1       2.001   2.972  20.786  0.00  0.00    +0.000 P 
ATOM     18  O   UNL     1       2.310   4.351  21.381  0.00  0.00    +0.000 OA
BRANCH  17  19
ATOM     19  O   UNL     1       0.441   3.093  20.292  0.00  0.00    +0.000 OA
ATOM     20  H   UNL     1       0.204   2.352  19.705  0.00  0.00    +0.000 HD
ENDBRANCH  17  19
BRANCH  17  21
ATOM     21  O   UNL     1       1.419   2.480  22.339  0.00  0.00    +0.000 OA
ATOM     22  H   UNL     1       2.225   2.239  22.840  0.00  0.00    +0.000 HD
ENDBRANCH  17  21
ENDBRANCH  16  17
ENDBRANCH  15  16
ENDBRANCH  12  15
ENDBRANCH   1  12
TORSDOF 8
ENDMDL
