MODEL 1
REMARK VINA RESULT:      -7.7      0.000      0.000
REMARK  Name = 
REMARK  2 active torsions:
REMARK  status: ('A' for Active; 'I' for Inactive)
REMARK    1  A    between atoms: C_2  and  C_3
REMARK    2  A    between atoms: C_8  and  C_9
REMARK                            x       y       z     vdW  Elec       q    Type
REMARK                         _______ _______ _______ _____ _____    ______ ____
ROOT
ATOM      1  C   UNL     1       3.627   3.724  17.641  0.00  0.00    +0.000 A 
ATOM      2  C   UNL     1       3.322   2.383  17.935  0.00  0.00    +0.000 A 
ATOM      3  F   UNL     1       4.190   1.410  17.620  0.00  0.00    +0.000 F 
ATOM      4  C   UNL     1       2.131   1.992  18.550  0.00  0.00    +0.000 A 
ATOM      5  C   UNL     1       1.170   2.951  18.831  0.00  0.00    +0.000 A 
ATOM      6  F   UNL     1       0.018   2.587  19.406  0.00  0.00    +0.000 F 
ATOM      7  C   UNL     1       1.390   4.279  18.514  0.00  0.00    +0.000 A 
ATOM      8  C   UNL     1       2.605   4.654  17.944  0.00  0.00    +0.000 A 
ATOM      9  F   UNL     1       2.779   5.958  17.685  0.00  0.00    +0.000 F 
ENDROOT
BRANCH   1  15
ATOM     10  C   UNL     1       6.004   4.737  17.726  0.00  0.00    +0.000 A 
ATOM     11  C   UNL     1       7.200   5.084  17.067  0.00  0.00    +0.000 A 
ATOM     12  C   UNL     1       7.338   4.899  15.696  0.00  0.00    +0.000 A 
ATOM     13  C   UNL     1       6.290   4.342  14.979  0.00  0.00    +0.000 A 
ATOM     14  C   UNL     1       5.114   3.961  15.636  0.00  0.00    +0.000 A 
ATOM     15  C   UNL     1       4.920   4.151  17.025  0.00  0.00    +0.000 A 
BRANCH  10  17
ATOM     16  O   UNL     1       6.966   5.266  19.832  0.00  0.00    +0.000 OA
ATOM     17  C   UNL     1       5.951   5.088  19.165  0.00  0.00    +0.000 C 
ENDBRANCH  10  17
ENDBRANCH   1  15
TORSDOF 2
ENDMDL
MODEL 2
REMARK VINA RESULT:      -7.6      0.064      2.005
REMARK  Name = 
REMARK  2 active torsions:
REMARK  status: ('A' for Active; 'I' for Inactive)
REMARK    1  A    between atoms: C_2  and  C_3
REMARK    2  A    between atoms: C_8  and  C_9
REMARK                            x       y       z     vdW  Elec       q    Type
REMARK                         _______ _______ _______ _____ _____    ______ ____
ROOT
ATOM      1  C   UNL     1       3.624   3.752  17.602  0.00  0.00    +0.000 A 
ATOM      2  C   UNL     1       2.610   4.664  17.943  0.00  0.00    +0.000 A 
ATOM      3  F   UNL     1       2.802   5.981  17.771  0.00  0.00    +0.000 F 
ATOM      4  C   UNL     1       1.379   4.270  18.471  0.00  0.00    +0.000 A 
ATOM      5  C   UNL     1       1.158   2.927  18.734  0.00  0.00    +0.000 A 
ATOM      6  F   UNL     1      -0.012   2.538  19.255  0.00  0.00    +0.000 F 
ATOM      7  C   UNL     1       2.139   1.989  18.472  0.00  0.00    +0.000 A 
ATOM      8  C   UNL     1       3.342   2.399  17.902  0.00  0.00    +0.000 A 
ATOM      9  F   UNL     1       4.247   1.445  17.639  0.00  0.00    +0.000 F 
ENDROOT
BRANCH   1  15
ATOM     10  C   UNL     1       6.015   4.730  17.704  0.00  0.00    +0.000 A 
ATOM     11  C   UNL     1       7.218   5.067  17.053  0.00  0.00    +0.000 A 
ATOM     12  C   UNL     1       7.358   4.893  15.680  0.00  0.00    +0.000 A 
ATOM     13  C   UNL     1       6.305   4.359  14.954  0.00  0.00    +0.000 A 
ATOM     14  C   UNL     1       5.121   3.988  15.604  0.00  0.00    +0.000 A 
ATOM     15  C   UNL     1       4.925   4.167  16.994  0.00  0.00    +0.000 A 
BRANCH  10  17
ATOM     16  O   UNL     1       6.976   5.276  19.807  0.00  0.00    +0.000 OA
ATOM     17  C   UNL     1       5.962   5.068  19.147  0.00  0.00    +0.000 C 
ENDBRANCH  10  17
ENDBRANCH   1  15
TORSDOF 2
ENDMDL
MODEL 3
REMARK VINA RESULT:      -7.6      2.271      2.427
REMARK  Name = 
REMARK  2 active torsions:
REMARK  status: ('A' for Active; 'I' for Inactive)
REMARK    1  A    between atoms: C_2  and  C_3
REMARK    2  A    between atoms: C_8  and  C_9
REMARK                            x       y       z     vdW  Elec       q    Type
REMARK                         _______ _______ _______ _____ _____    ______ ____
ROOT
ATOM      1  C   UNL     1       3.141   4.112  18.526  0.00  0.00    +0.000 A 
ATOM      2  C   UNL     1       3.706   3.535  19.677  0.00  0.00    +0.000 A 
ATOM      3  F   UNL     1       5.038   3.440  19.800  0.00  0.00    +0.000 F 
ATOM      4  C   UNL     1       2.938   3.035  20.732  0.00  0.00    +0.000 A 
ATOM      5  C   UNL     1       1.556   3.045  20.623  0.00  0.00    +0.000 A 
ATOM      6  F   UNL     1       0.809   2.554  21.620  0.00  0.00    +0.000 F 
ATOM      7  C   UNL     1       0.944   3.549  19.490  0.00  0.00    +0.000 A 
ATOM      8  C   UNL     1       1.728   4.085  18.471  0.00  0.00    +0.000 A 
ATOM      9  F   UNL     1       1.082   4.589  17.409  0.00  0.00    +0.000 F 
ENDROOT
BRANCH   1  15
ATOM     10  C   UNL     1       4.191   6.072  17.208  0.00  0.00    +0.000 A 
ATOM     11  C   UNL     1       5.001   6.529  16.150  0.00  0.00    +0.000 A 
ATOM     12  C   UNL     1       5.568   5.632  15.250  0.00  0.00    +0.000 A 
ATOM     13  C   UNL     1       5.348   4.274  15.417  0.00  0.00    +0.000 A 
ATOM     14  C   UNL     1       4.574   3.814  16.490  0.00  0.00    +0.000 A 
ATOM     15  C   UNL     1       3.959   4.690  17.417  0.00  0.00    +0.000 A 
BRANCH  10  17
ATOM     16  O   UNL     1       2.421   7.537  17.813  0.00  0.00    +0.000 OA
ATOM     17  C   UNL     1       3.562   7.138  18.026  0.00  0.00    +0.000 C 
ENDBRANCH  10  17
ENDBRANCH   1  15
TORSDOF 2
ENDMDL
MODEL 4
REMARK VINA RESULT:      -7.6      2.529      5.187
REMARK  Name = 
REMARK  2 active torsions:
REMARK  status: ('A' for Active; 'I' for Inactive)
REMARK    1  A    between atoms: C_2  and  C_3
REMARK    2  A    between atoms: C_8  and  C_9
REMARK                            x       y       z     vdW  Elec       q    Type
REMARK                         _______ _______ _______ _____ _____    ______ ____
ROOT
ATOM      1  C   UNL     1       4.625   4.195  18.228  0.00  0.00    +0.000 A 
ATOM      2  C   UNL     1       5.899   4.730  18.488  0.00  0.00    +0.000 A 
ATOM      3  F   UNL     1       6.227   5.118  19.729  0.00  0.00    +0.000 F 
ATOM      4  C   UNL     1       6.872   4.890  17.499  0.00  0.00    +0.000 A 
ATOM      5  C   UNL     1       6.558   4.572  16.186  0.00  0.00    +0.000 A 
ATOM      6  F   UNL     1       7.477   4.736  15.227  0.00  0.00    +0.000 F 
ATOM      7  C   UNL     1       5.302   4.094  15.861  0.00  0.00    +0.000 A 
ATOM      8  C   UNL     1       4.363   3.898  16.870  0.00  0.00    +0.000 A 
ATOM      9  F   UNL     1       3.171   3.403  16.504  0.00  0.00    +0.000 F 
ENDROOT
BRANCH   1  15
ATOM     10  C   UNL     1       3.606   2.917  20.230  0.00  0.00    +0.000 A 
ATOM     11  C   UNL     1       2.609   2.806  21.220  0.00  0.00    +0.000 A 
ATOM     12  C   UNL     1       1.560   3.717  21.280  0.00  0.00    +0.000 A 
ATOM     13  C   UNL     1       1.514   4.759  20.366  0.00  0.00    +0.000 A 
ATOM     14  C   UNL     1       2.524   4.895  19.405  0.00  0.00    +0.000 A 
ATOM     15  C   UNL     1       3.598   3.979  19.292  0.00  0.00    +0.000 A 
BRANCH  10  17
ATOM     16  O   UNL     1       5.312   1.565  21.181  0.00  0.00    +0.000 OA
ATOM     17  C   UNL     1       4.602   1.820  20.212  0.00  0.00    +0.000 C 
ENDBRANCH  10  17
ENDBRANCH   1  15
TORSDOF 2
ENDMDL
MODEL 5
REMARK VINA RESULT:      -7.6      2.274      2.771
REMARK  Name = 
REMARK  2 active torsions:
REMARK  status: ('A' for Active; 'I' for Inactive)
REMARK    1  A    between atoms: C_2  and  C_3
REMARK    2  A    between atoms: C_8  and  C_9
REMARK                            x       y       z     vdW  Elec       q    Type
REMARK                         _______ _______ _______ _____ _____    ______ ____
ROOT
ATOM      1  C   UNL     1       3.133   4.140  18.475  0.00  0.00    +0.000 A 
ATOM      2  C   UNL     1       1.728   4.115  18.438  0.00  0.00    +0.000 A 
ATOM      3  F   UNL     1       1.071   4.651  17.397  0.00  0.00    +0.000 F 
ATOM      4  C   UNL     1       0.951   3.553  19.453  0.00  0.00    +0.000 A 
ATOM      5  C   UNL     1       1.578   3.051  20.583  0.00  0.00    +0.000 A 
ATOM      6  F   UNL     1       0.843   2.524  21.570  0.00  0.00    +0.000 F 
ATOM      7  C   UNL     1       2.955   3.099  20.701  0.00  0.00    +0.000 A 
ATOM      8  C   UNL     1       3.713   3.621  19.655  0.00  0.00    +0.000 A 
ATOM      9  F   UNL     1       5.046   3.615  19.809  0.00  0.00    +0.000 F 
ENDROOT
BRANCH   1  15
ATOM     10  C   UNL     1       4.223   6.077  17.155  0.00  0.00    +0.000 A 
ATOM     11  C   UNL     1       5.049   6.515  16.100  0.00  0.00    +0.000 A 
ATOM     12  C   UNL     1       5.609   5.606  15.210  0.00  0.00    +0.000 A 
ATOM     13  C   UNL     1       5.367   4.251  15.382  0.00  0.00    +0.000 A 
ATOM     14  C   UNL     1       4.578   3.810  16.452  0.00  0.00    +0.000 A 
ATOM     15  C   UNL     1       3.969   4.700  17.369  0.00  0.00    +0.000 A 
BRANCH  10  17
ATOM     16  O   UNL     1       2.467   7.565  17.744  0.00  0.00    +0.000 OA
ATOM     17  C   UNL     1       3.605   7.156  17.962  0.00  0.00    +0.000 C 
ENDBRANCH  10  17
ENDBRANCH   1  15
TORSDOF 2
ENDMDL
MODEL 6
REMARK VINA RESULT:      -7.5      1.285      2.245
REMARK  Name = 
REMARK  2 active torsions:
REMARK  status: ('A' for Active; 'I' for Inactive)
REMARK    1  A    between atoms: C_2  and  C_3
REMARK    2  A    between atoms: C_8  and  C_9
REMARK                            x       y       z     vdW  Elec       q    Type
REMARK                         _______ _______ _______ _____ _____    ______ ____
ROOT
ATOM      1  C   UNL     1       3.832   3.907  18.672  0.00  0.00    +0.000 A 
ATOM      2  C   UNL     1       2.618   4.616  18.648  0.00  0.00    +0.000 A 
ATOM      3  F   UNL     1       2.441   5.622  17.778  0.00  0.00    +0.000 F 
ATOM      4  C   UNL     1       1.553   4.328  19.505  0.00  0.00    +0.000 A 
ATOM      5  C   UNL     1       1.711   3.346  20.471  0.00  0.00    +0.000 A 
ATOM      6  F   UNL     1       0.704   3.072  21.309  0.00  0.00    +0.000 F 
ATOM      7  C   UNL     1       2.903   2.654  20.579  0.00  0.00    +0.000 A 
ATOM      8  C   UNL     1       3.935   2.924  19.683  0.00  0.00    +0.000 A 
ATOM      9  F   UNL     1       5.058   2.202  19.813  0.00  0.00    +0.000 F 
ENDROOT
BRANCH   1  15
ATOM     10  C   UNL     1       6.152   4.865  18.055  0.00  0.00    +0.000 A 
ATOM     11  C   UNL     1       7.175   5.055  17.104  0.00  0.00    +0.000 A 
ATOM     12  C   UNL     1       7.021   4.610  15.795  0.00  0.00    +0.000 A 
ATOM     13  C   UNL     1       5.855   3.951  15.436  0.00  0.00    +0.000 A 
ATOM     14  C   UNL     1       4.853   3.727  16.388  0.00  0.00    +0.000 A 
ATOM     15  C   UNL     1       4.956   4.181  17.725  0.00  0.00    +0.000 A 
BRANCH  10  17
ATOM     16  O   UNL     1       7.435   5.286  20.010  0.00  0.00    +0.000 OA
ATOM     17  C   UNL     1       6.400   5.484  19.380  0.00  0.00    +0.000 C 
ENDBRANCH  10  17
ENDBRANCH   1  15
TORSDOF 2
ENDMDL
MODEL 7
REMARK VINA RESULT:      -7.5      2.080      2.674
REMARK  Name = 
REMARK  2 active torsions:
REMARK  status: ('A' for Active; 'I' for Inactive)
REMARK    1  A    between atoms: C_2  and  C_3
REMARK    2  A    between atoms: C_8  and  C_9
REMARK                            x       y       z     vdW  Elec       q    Type
REMARK                         _______ _______ _______ _____ _____    ______ ____
ROOT
ATOM      1  C   UNL     1       4.117   4.704  18.310  0.00  0.00    +0.000 A 
ATOM      2  C   UNL     1       3.867   3.578  17.505  0.00  0.00    +0.000 A 
ATOM      3  F   UNL     1       4.795   3.152  16.635  0.00  0.00    +0.000 F 
ATOM      4  C   UNL     1       2.672   2.857  17.557  0.00  0.00    +0.000 A 
ATOM      5  C   UNL     1       1.654   3.299  18.388  0.00  0.00    +0.000 A 
ATOM      6  F   UNL     1       0.498   2.626  18.434  0.00  0.00    +0.000 F 
ATOM      7  C   UNL     1       1.820   4.433  19.161  0.00  0.00    +0.000 A 
ATOM      8  C   UNL     1       3.038   5.110  19.129  0.00  0.00    +0.000 A 
ATOM      9  F   UNL     1       3.157   6.185  19.922  0.00  0.00    +0.000 F 
ENDROOT
BRANCH   1  15
ATOM     10  C   UNL     1       5.767   6.444  17.345  0.00  0.00    +0.000 A 
ATOM     11  C   UNL     1       7.002   7.119  17.419  0.00  0.00    +0.000 A 
ATOM     12  C   UNL     1       7.930   6.799  18.404  0.00  0.00    +0.000 A 
ATOM     13  C   UNL     1       7.620   5.820  19.335  0.00  0.00    +0.000 A 
ATOM     14  C   UNL     1       6.378   5.174  19.288  0.00  0.00    +0.000 A 
ATOM     15  C   UNL     1       5.412   5.450  18.291  0.00  0.00    +0.000 A 
BRANCH  10  17
ATOM     16  O   UNL     1       5.278   6.608  15.026  0.00  0.00    +0.000 OA
ATOM     17  C   UNL     1       4.920   6.806  16.183  0.00  0.00    +0.000 C 
ENDBRANCH  10  17
ENDBRANCH   1  15
TORSDOF 2
ENDMDL
MODEL 8
REMARK VINA RESULT:      -7.5      1.283      1.285
REMARK  Name = 
REMARK  2 active torsions:
REMARK  status: ('A' for Active; 'I' for Inactive)
REMARK    1  A    between atoms: C_2  and  C_3
REMARK    2  A    between atoms: C_8  and  C_9
REMARK                            x       y       z     vdW  Elec       q    Type
REMARK                         _______ _______ _______ _____ _____    ______ ____
ROOT
ATOM      1  C   UNL     1       3.895   3.892  18.680  0.00  0.00    +0.000 A 
ATOM      2  C   UNL     1       3.953   2.876  19.651  0.00  0.00    +0.000 A 
ATOM      3  F   UNL     1       5.025   2.073  19.723  0.00  0.00    +0.000 F 
ATOM      4  C   UNL     1       2.928   2.645  20.571  0.00  0.00    +0.000 A 
ATOM      5  C   UNL     1       1.768   3.400  20.492  0.00  0.00    +0.000 A 
ATOM      6  F   UNL     1       0.772   3.177  21.358  0.00  0.00    +0.000 F 
ATOM      7  C   UNL     1       1.630   4.376  19.522  0.00  0.00    +0.000 A 
ATOM      8  C   UNL     1       2.684   4.622  18.645  0.00  0.00    +0.000 A 
ATOM      9  F   UNL     1       2.510   5.600  17.744  0.00  0.00    +0.000 F 
ENDROOT
BRANCH   1  15
ATOM     10  C   UNL     1       6.198   4.875  18.042  0.00  0.00    +0.000 A 
ATOM     11  C   UNL     1       7.213   5.071  17.083  0.00  0.00    +0.000 A 
ATOM     12  C   UNL     1       7.057   4.613  15.779  0.00  0.00    +0.000 A 
ATOM     13  C   UNL     1       5.898   3.935  15.432  0.00  0.00    +0.000 A 
ATOM     14  C   UNL     1       4.905   3.706  16.392  0.00  0.00    +0.000 A 
ATOM     15  C   UNL     1       5.009   4.173  17.725  0.00  0.00    +0.000 A 
BRANCH  10  17
ATOM     16  O   UNL     1       7.433   5.241  20.038  0.00  0.00    +0.000 OA
ATOM     17  C   UNL     1       6.445   5.508  19.360  0.00  0.00    +0.000 C 
ENDBRANCH  10  17
ENDBRANCH   1  15
TORSDOF 2
ENDMDL
MODEL 9
REMARK VINA RESULT:      -7.5      2.531      5.124
REMARK  Name = 
REMARK  2 active torsions:
REMARK  status: ('A' for Active; 'I' for Inactive)
REMARK    1  A    between atoms: C_2  and  C_3
REMARK    2  A    between atoms: C_8  and  C_9
REMARK                            x       y       z     vdW  Elec       q    Type
REMARK                         _______ _______ _______ _____ _____    ______ ____
ROOT
ATOM      1  C   UNL     1       4.568   4.228  18.200  0.00  0.00    +0.000 A 
ATOM      2  C   UNL     1       4.339   3.915  16.848  0.00  0.00    +0.000 A 
ATOM      3  F   UNL     1       3.188   3.335  16.477  0.00  0.00    +0.000 F 
ATOM      4  C   UNL     1       5.268   4.176  15.839  0.00  0.00    +0.000 A 
ATOM      5  C   UNL     1       6.502   4.710  16.180  0.00  0.00    +0.000 A 
ATOM      6  F   UNL     1       7.407   4.949  15.224  0.00  0.00    +0.000 F 
ATOM      7  C   UNL     1       6.807   4.986  17.500  0.00  0.00    +0.000 A 
ATOM      8  C   UNL     1       5.847   4.762  18.485  0.00  0.00    +0.000 A 
ATOM      9  F   UNL     1       6.183   5.077  19.744  0.00  0.00    +0.000 F 
ENDROOT
BRANCH   1  15
ATOM     10  C   UNL     1       3.597   2.931  20.213  0.00  0.00    +0.000 A 
ATOM     11  C   UNL     1       2.614   2.801  21.215  0.00  0.00    +0.000 A 
ATOM     12  C   UNL     1       1.549   3.692  21.287  0.00  0.00    +0.000 A 
ATOM     13  C   UNL     1       1.473   4.733  20.374  0.00  0.00    +0.000 A 
ATOM     14  C   UNL     1       2.468   4.888  19.401  0.00  0.00    +0.000 A 
ATOM     15  C   UNL     1       3.558   3.993  19.275  0.00  0.00    +0.000 A 
BRANCH  10  17
ATOM     16  O   UNL     1       5.300   1.574  21.162  0.00  0.00    +0.000 OA
ATOM     17  C   UNL     1       4.614   1.852  20.183  0.00  0.00    +0.000 C 
ENDBRANCH  10  17
ENDBRANCH   1  15
TORSDOF 2
ENDMDL
