MODEL 1
REMARK VINA RESULT:      -7.2      0.000      0.000
REMARK  Name = 
REMARK  5 active torsions:
REMARK  status: ('A' for Active; 'I' for Inactive)
REMARK    1  A    between atoms: C_1  and  C_2
REMARK    2  A    between atoms: C_4  and  C_5
REMARK    3  A    between atoms: N_8  and  C_9
REMARK    4  A    between atoms: C_10  and  C_11
REMARK    5  A    between atoms: C_14  and  C_15
REMARK                            x       y       z     vdW  Elec       q    Type
REMARK                         _______ _______ _______ _____ _____    ______ ____
ROOT
ATOM      1  C   UNL     1      -3.763  14.388  21.014  0.00  0.00    +0.000 A 
ATOM      2  C   UNL     1      -3.939  15.722  20.611  0.00  0.00    +0.000 A 
ATOM      3  N   UNL     1      -2.788  16.313  20.304  0.00  0.00    +0.000 NA
ATOM      4  N   UNL     1      -1.861  15.382  20.623  0.00  0.00    +0.000 N 
ATOM      5  C   UNL     1      -0.476  15.798  20.639  0.00  0.00    +0.000 C 
ATOM      6  C   UNL     1      -2.392  14.146  20.952  0.00  0.00    +0.000 A 
ENDROOT
BRANCH   1  10
ATOM      7  C   UNL     1      -6.877  12.574  24.311  0.00  0.00    +0.000 C 
ATOM      8  C   UNL     1      -6.171  12.824  23.034  0.00  0.00    +0.000 A 
ATOM      9  N   UNL     1      -5.139  13.624  22.856  0.00  0.00    +0.000 NA
ATOM     10  C   UNL     1      -4.831  13.534  21.516  0.00  0.00    +0.000 A 
ATOM     11  C   UNL     1      -5.668  12.637  20.883  0.00  0.00    +0.000 A 
ATOM     12  C   UNL     1      -5.834  12.099  19.559  0.00  0.00    +0.000 A 
ATOM     13  N   UNL     1      -4.961  12.361  18.507  0.00  0.00    +0.000 N 
ATOM     14  C   UNL     1      -5.206  11.747  17.227  0.00  0.00    +0.000 C 
ATOM     15  C   UNL     1      -3.829  11.102  17.283  0.00  0.00    +0.000 C 
ATOM     16  C   UNL     1      -3.628  11.820  18.609  0.00  0.00    +0.000 C 
ATOM     17  N   UNL     1      -6.888  11.355  19.373  0.00  0.00    +0.000 NA
ATOM     18  C   UNL     1      -7.748  11.084  20.406  0.00  0.00    +0.000 A 
ATOM     19  N   UNL     1      -7.622  11.462  21.638  0.00  0.00    +0.000 NA
ATOM     20  N   UNL     1      -6.549  12.247  21.848  0.00  0.00    +0.000 N 
ENDBRANCH   1  10
BRANCH   6  21
ATOM     21  C   UNL     1      -1.593  12.961  21.298  0.00  0.00    +0.000 A 
ATOM     22  N   UNL     1      -1.766  12.562  22.589  0.00  0.00    +0.000 NA
ATOM     23  C   UNL     1      -1.160  11.425  23.000  0.00  0.00    +0.000 A 
ATOM     24  C   UNL     1      -0.385  10.623  22.181  0.00  0.00    +0.000 A 
ATOM     25  C   UNL     1      -0.177  11.063  20.870  0.00  0.00    +0.000 A 
ATOM     26  C   UNL     1      -0.750  12.261  20.427  0.00  0.00    +0.000 A 
ATOM     27 CL   UNL     1      -0.272  12.824  18.866  0.00  0.00    +0.000 Cl
BRANCH  24  28
ATOM     28  C   UNL     1       0.205   9.344  22.688  0.00  0.00    +0.000 C 
ATOM     29  F   UNL     1      -0.442   8.234  22.238  0.00  0.00    +0.000 F 
ATOM     30  F   UNL     1       1.506   9.191  22.325  0.00  0.00    +0.000 F 
ATOM     31  F   UNL     1       0.181   9.262  24.046  0.00  0.00    +0.000 F 
ENDBRANCH  24  28
ENDBRANCH   6  21
TORSDOF 3
ENDMDL
MODEL 2
REMARK VINA RESULT:      -7.2      3.517      6.167
REMARK  Name = 
REMARK  5 active torsions:
REMARK  status: ('A' for Active; 'I' for Inactive)
REMARK    1  A    between atoms: C_1  and  C_2
REMARK    2  A    between atoms: C_4  and  C_5
REMARK    3  A    between atoms: N_8  and  C_9
REMARK    4  A    between atoms: C_10  and  C_11
REMARK    5  A    between atoms: C_14  and  C_15
REMARK                            x       y       z     vdW  Elec       q    Type
REMARK                         _______ _______ _______ _____ _____    ______ ____
ROOT
ATOM      1  C   UNL     1      -2.063  13.520  22.998  0.00  0.00    +0.000 A 
ATOM      2  C   UNL     1      -1.634  14.513  23.895  0.00  0.00    +0.000 A 
ATOM      3  N   UNL     1      -2.566  15.438  24.106  0.00  0.00    +0.000 NA
ATOM      4  N   UNL     1      -3.553  15.093  23.250  0.00  0.00    +0.000 N 
ATOM      5  C   UNL     1      -4.625  16.043  23.050  0.00  0.00    +0.000 C 
ATOM      6  C   UNL     1      -3.359  13.870  22.629  0.00  0.00    +0.000 A 
ENDROOT
BRANCH   1  10
ATOM      7  C   UNL     1       0.046   9.114  22.967  0.00  0.00    +0.000 C 
ATOM      8  C   UNL     1      -0.361  10.480  22.566  0.00  0.00    +0.000 A 
ATOM      9  N   UNL     1      -1.105  11.312  23.268  0.00  0.00    +0.000 NA
ATOM     10  C   UNL     1      -1.216  12.447  22.495  0.00  0.00    +0.000 A 
ATOM     11  C   UNL     1      -0.498  12.312  21.324  0.00  0.00    +0.000 A 
ATOM     12  C   UNL     1      -0.200  13.114  20.168  0.00  0.00    +0.000 A 
ATOM     13  N   UNL     1      -0.570  14.451  20.043  0.00  0.00    +0.000 N 
ATOM     14  C   UNL     1      -0.195  15.171  18.852  0.00  0.00    +0.000 C 
ATOM     15  C   UNL     1       0.547  16.185  19.710  0.00  0.00    +0.000 C 
ATOM     16  C   UNL     1       0.075  15.396  20.922  0.00  0.00    +0.000 C 
ATOM     17  N   UNL     1       0.426  12.509  19.198  0.00  0.00    +0.000 NA
ATOM     18  C   UNL     1       0.802  11.196  19.317  0.00  0.00    +0.000 A 
ATOM     19  N   UNL     1       0.643  10.436  20.352  0.00  0.00    +0.000 NA
ATOM     20  N   UNL     1      -0.017  11.036  21.359  0.00  0.00    +0.000 N 
ENDBRANCH   1  10
BRANCH   6  21
ATOM     21  C   UNL     1      -4.306  13.256  21.686  0.00  0.00    +0.000 A 
ATOM     22  N   UNL     1      -3.852  13.256  20.401  0.00  0.00    +0.000 NA
ATOM     23  C   UNL     1      -4.589  12.631  19.456  0.00  0.00    +0.000 A 
ATOM     24  C   UNL     1      -5.775  11.968  19.714  0.00  0.00    +0.000 A 
ATOM     25  C   UNL     1      -6.257  12.010  21.026  0.00  0.00    +0.000 A 
ATOM     26  C   UNL     1      -5.543  12.690  22.020  0.00  0.00    +0.000 A 
ATOM     27 CL   UNL     1      -6.312  12.863  23.557  0.00  0.00    +0.000 Cl
BRANCH  24  28
ATOM     28  C   UNL     1      -6.507  11.244  18.628  0.00  0.00    +0.000 C 
ATOM     29  F   UNL     1      -7.103  10.095  19.049  0.00  0.00    +0.000 F 
ATOM     30  F   UNL     1      -7.496  11.996  18.075  0.00  0.00    +0.000 F 
ATOM     31  F   UNL     1      -5.690  10.882  17.601  0.00  0.00    +0.000 F 
ENDBRANCH  24  28
ENDBRANCH   6  21
TORSDOF 3
ENDMDL
MODEL 3
REMARK VINA RESULT:      -7.1      1.315      1.690
REMARK  Name = 
REMARK  5 active torsions:
REMARK  status: ('A' for Active; 'I' for Inactive)
REMARK    1  A    between atoms: C_1  and  C_2
REMARK    2  A    between atoms: C_4  and  C_5
REMARK    3  A    between atoms: N_8  and  C_9
REMARK    4  A    between atoms: C_10  and  C_11
REMARK    5  A    between atoms: C_14  and  C_15
REMARK                            x       y       z     vdW  Elec       q    Type
REMARK                         _______ _______ _______ _____ _____    ______ ____
ROOT
ATOM      1  C   UNL     1      -3.002  14.290  21.099  0.00  0.00    +0.000 A 
ATOM      2  C   UNL     1      -3.088  15.655  20.780  0.00  0.00    +0.000 A 
ATOM      3  N   UNL     1      -2.047  16.074  20.066  0.00  0.00    +0.000 NA
ATOM      4  N   UNL     1      -1.237  14.992  20.027  0.00  0.00    +0.000 N 
ATOM      5  C   UNL     1       0.107  15.184  19.528  0.00  0.00    +0.000 C 
ATOM      6  C   UNL     1      -1.809  13.840  20.537  0.00  0.00    +0.000 A 
ENDROOT
BRANCH   1  10
ATOM      7  C   UNL     1      -4.734  12.469  25.287  0.00  0.00    +0.000 C 
ATOM      8  C   UNL     1      -4.621  12.849  23.861  0.00  0.00    +0.000 A 
ATOM      9  N   UNL     1      -3.588  13.434  23.288  0.00  0.00    +0.000 NA
ATOM     10  C   UNL     1      -3.940  13.588  21.965  0.00  0.00    +0.000 A 
ATOM     11  C   UNL     1      -5.191  13.056  21.728  0.00  0.00    +0.000 A 
ATOM     12  C   UNL     1      -6.070  12.881  20.603  0.00  0.00    +0.000 A 
ATOM     13  N   UNL     1      -5.713  13.186  19.292  0.00  0.00    +0.000 N 
ATOM     14  C   UNL     1      -6.662  12.945  18.236  0.00  0.00    +0.000 C 
ATOM     15  C   UNL     1      -5.657  12.030  17.553  0.00  0.00    +0.000 C 
ATOM     16  C   UNL     1      -4.693  12.367  18.682  0.00  0.00    +0.000 C 
ATOM     17  N   UNL     1      -7.265  12.437  20.875  0.00  0.00    +0.000 NA
ATOM     18  C   UNL     1      -7.622  12.125  22.161  0.00  0.00    +0.000 A 
ATOM     19  N   UNL     1      -6.865  12.178  23.210  0.00  0.00    +0.000 NA
ATOM     20  N   UNL     1      -5.631  12.650  22.954  0.00  0.00    +0.000 N 
ENDBRANCH   1  10
BRANCH   6  21
ATOM     21  C   UNL     1      -1.148  12.526  20.572  0.00  0.00    +0.000 A 
ATOM     22  N   UNL     1      -0.661  12.209  21.804  0.00  0.00    +0.000 NA
ATOM     23  C   UNL     1      -0.117  10.985  21.988  0.00  0.00    +0.000 A 
ATOM     24  C   UNL     1      -0.042  10.017  21.002  0.00  0.00    +0.000 A 
ATOM     25  C   UNL     1      -0.504  10.365  19.729  0.00  0.00    +0.000 A 
ATOM     26  C   UNL     1      -1.028  11.642  19.493  0.00  0.00    +0.000 A 
ATOM     27 CL   UNL     1      -1.383  12.050  17.852  0.00  0.00    +0.000 Cl
BRANCH  24  28
ATOM     28  C   UNL     1       0.517   8.660  21.294  0.00  0.00    +0.000 C 
ATOM     29  F   UNL     1       1.328   8.631  22.386  0.00  0.00    +0.000 F 
ATOM     30  F   UNL     1      -0.454   7.736  21.525  0.00  0.00    +0.000 F 
ATOM     31  F   UNL     1       1.263   8.172  20.265  0.00  0.00    +0.000 F 
ENDBRANCH  24  28
ENDBRANCH   6  21
TORSDOF 3
ENDMDL
MODEL 4
REMARK VINA RESULT:      -7.1      1.612      3.600
REMARK  Name = 
REMARK  5 active torsions:
REMARK  status: ('A' for Active; 'I' for Inactive)
REMARK    1  A    between atoms: C_1  and  C_2
REMARK    2  A    between atoms: C_4  and  C_5
REMARK    3  A    between atoms: N_8  and  C_9
REMARK    4  A    between atoms: C_10  and  C_11
REMARK    5  A    between atoms: C_14  and  C_15
REMARK                            x       y       z     vdW  Elec       q    Type
REMARK                         _______ _______ _______ _____ _____    ______ ____
ROOT
ATOM      1  C   UNL     1      -4.065  14.242  20.893  0.00  0.00    +0.000 A 
ATOM      2  C   UNL     1      -4.305  15.623  20.975  0.00  0.00    +0.000 A 
ATOM      3  N   UNL     1      -3.370  16.257  21.677  0.00  0.00    +0.000 NA
ATOM      4  N   UNL     1      -2.592  15.254  22.142  0.00  0.00    +0.000 N 
ATOM      5  C   UNL     1      -1.613  15.584  23.154  0.00  0.00    +0.000 C 
ATOM      6  C   UNL     1      -2.892  14.012  21.608  0.00  0.00    +0.000 A 
ENDROOT
BRANCH   1  10
ATOM      7  C   UNL     1      -5.827  11.328  17.391  0.00  0.00    +0.000 C 
ATOM      8  C   UNL     1      -5.655  12.020  18.688  0.00  0.00    +0.000 A 
ATOM      9  N   UNL     1      -4.755  12.942  18.969  0.00  0.00    +0.000 NA
ATOM     10  C   UNL     1      -4.980  13.285  20.285  0.00  0.00    +0.000 A 
ATOM     11  C   UNL     1      -6.054  12.584  20.795  0.00  0.00    +0.000 A 
ATOM     12  C   UNL     1      -6.778  12.515  22.036  0.00  0.00    +0.000 A 
ATOM     13  N   UNL     1      -6.543  13.366  23.113  0.00  0.00    +0.000 N 
ATOM     14  C   UNL     1      -7.347  13.229  24.300  0.00  0.00    +0.000 C 
ATOM     15  C   UNL     1      -7.792  14.676  24.157  0.00  0.00    +0.000 C 
ATOM     16  C   UNL     1      -6.886  14.757  22.937  0.00  0.00    +0.000 C 
ATOM     17  N   UNL     1      -7.673  11.571  22.124  0.00  0.00    +0.000 NA
ATOM     18  C   UNL     1      -7.916  10.734  21.066  0.00  0.00    +0.000 A 
ATOM     19  N   UNL     1      -7.367  10.786  19.895  0.00  0.00    +0.000 NA
ATOM     20  N   UNL     1      -6.427  11.743  19.788  0.00  0.00    +0.000 N 
ENDBRANCH   1  10
BRANCH   6  21
ATOM     21  C   UNL     1      -2.166  12.772  21.923  0.00  0.00    +0.000 A 
ATOM     22  N   UNL     1      -1.239  12.446  20.980  0.00  0.00    +0.000 NA
ATOM     23  C   UNL     1      -0.438  11.379  21.204  0.00  0.00    +0.000 A 
ATOM     24  C   UNL     1      -0.487  10.603  22.348  0.00  0.00    +0.000 A 
ATOM     25  C   UNL     1      -1.471  10.918  23.291  0.00  0.00    +0.000 A 
ATOM     26  C   UNL     1      -2.349  11.986  23.067  0.00  0.00    +0.000 A 
ATOM     27 CL   UNL     1      -3.655  12.171  24.181  0.00  0.00    +0.000 Cl
BRANCH  24  28
ATOM     28  C   UNL     1       0.473   9.475  22.557  0.00  0.00    +0.000 C 
ATOM     29  F   UNL     1       0.888   9.348  23.847  0.00  0.00    +0.000 F 
ATOM     30  F   UNL     1      -0.057   8.270  22.215  0.00  0.00    +0.000 F 
ATOM     31  F   UNL     1       1.606   9.611  21.816  0.00  0.00    +0.000 F 
ENDBRANCH  24  28
ENDBRANCH   6  21
TORSDOF 3
ENDMDL
MODEL 5
REMARK VINA RESULT:      -7.0      1.278      3.338
REMARK  Name = 
REMARK  5 active torsions:
REMARK  status: ('A' for Active; 'I' for Inactive)
REMARK    1  A    between atoms: C_1  and  C_2
REMARK    2  A    between atoms: C_4  and  C_5
REMARK    3  A    between atoms: N_8  and  C_9
REMARK    4  A    between atoms: C_10  and  C_11
REMARK    5  A    between atoms: C_14  and  C_15
REMARK                            x       y       z     vdW  Elec       q    Type
REMARK                         _______ _______ _______ _____ _____    ______ ____
ROOT
ATOM      1  C   UNL     1      -3.756  13.832  21.298  0.00  0.00    +0.000 A 
ATOM      2  C   UNL     1      -4.150  15.075  21.821  0.00  0.00    +0.000 A 
ATOM      3  N   UNL     1      -3.200  15.634  22.565  0.00  0.00    +0.000 NA
ATOM      4  N   UNL     1      -2.236  14.687  22.608  0.00  0.00    +0.000 N 
ATOM      5  C   UNL     1      -1.153  14.881  23.547  0.00  0.00    +0.000 C 
ATOM      6  C   UNL     1      -2.461  13.613  21.764  0.00  0.00    +0.000 A 
ENDROOT
BRANCH   1  10
ATOM      7  C   UNL     1      -5.185  11.113  17.500  0.00  0.00    +0.000 C 
ATOM      8  C   UNL     1      -5.152  11.761  18.831  0.00  0.00    +0.000 A 
ATOM      9  N   UNL     1      -4.251  12.623  19.258  0.00  0.00    +0.000 NA
ATOM     10  C   UNL     1      -4.629  12.944  20.544  0.00  0.00    +0.000 A 
ATOM     11  C   UNL     1      -5.797  12.292  20.885  0.00  0.00    +0.000 A 
ATOM     12  C   UNL     1      -6.682  12.232  22.017  0.00  0.00    +0.000 A 
ATOM     13  N   UNL     1      -6.549  13.040  23.142  0.00  0.00    +0.000 N 
ATOM     14  C   UNL     1      -7.510  12.918  24.209  0.00  0.00    +0.000 C 
ATOM     15  C   UNL     1      -7.855  14.391  24.056  0.00  0.00    +0.000 C 
ATOM     16  C   UNL     1      -6.792  14.452  22.969  0.00  0.00    +0.000 C 
ATOM     17  N   UNL     1      -7.629  11.338  21.956  0.00  0.00    +0.000 NA
ATOM     18  C   UNL     1      -7.773  10.543  20.848  0.00  0.00    +0.000 A 
ATOM     19  N   UNL     1      -7.071  10.594  19.761  0.00  0.00    +0.000 NA
ATOM     20  N   UNL     1      -6.077  11.499  19.810  0.00  0.00    +0.000 N 
ENDBRANCH   1  10
BRANCH   6  21
ATOM     21  C   UNL     1      -1.543  12.475  21.600  0.00  0.00    +0.000 A 
ATOM     22  N   UNL     1      -1.533  11.642  22.678  0.00  0.00    +0.000 NA
ATOM     23  C   UNL     1      -0.803  10.506  22.609  0.00  0.00    +0.000 A 
ATOM     24  C   UNL     1      -0.074  10.123  21.498  0.00  0.00    +0.000 A 
ATOM     25  C   UNL     1      -0.054  11.004  20.412  0.00  0.00    +0.000 A 
ATOM     26  C   UNL     1      -0.760  12.212  20.470  0.00  0.00    +0.000 A 
ATOM     27 CL   UNL     1      -0.512  13.325  19.173  0.00  0.00    +0.000 Cl
BRANCH  24  28
ATOM     28  C   UNL     1       0.661   8.820  21.468  0.00  0.00    +0.000 C 
ATOM     29  F   UNL     1       1.386   8.632  20.332  0.00  0.00    +0.000 F 
ATOM     30  F   UNL     1       1.541   8.695  22.498  0.00  0.00    +0.000 F 
ATOM     31  F   UNL     1      -0.174   7.748  21.556  0.00  0.00    +0.000 F 
ENDBRANCH  24  28
ENDBRANCH   6  21
TORSDOF 3
ENDMDL
MODEL 6
REMARK VINA RESULT:      -6.9      3.707      6.478
REMARK  Name = 
REMARK  5 active torsions:
REMARK  status: ('A' for Active; 'I' for Inactive)
REMARK    1  A    between atoms: C_1  and  C_2
REMARK    2  A    between atoms: C_4  and  C_5
REMARK    3  A    between atoms: N_8  and  C_9
REMARK    4  A    between atoms: C_10  and  C_11
REMARK    5  A    between atoms: C_14  and  C_15
REMARK                            x       y       z     vdW  Elec       q    Type
REMARK                         _______ _______ _______ _____ _____    ______ ____
ROOT
ATOM      1  C   UNL     1      -0.895  14.246  21.351  0.00  0.00    +0.000 A 
ATOM      2  C   UNL     1      -0.480  14.361  22.688  0.00  0.00    +0.000 A 
ATOM      3  N   UNL     1      -0.417  13.183  23.300  0.00  0.00    +0.000 NA
ATOM      4  N   UNL     1      -0.905  12.323  22.379  0.00  0.00    +0.000 N 
ATOM      5  C   UNL     1      -1.204  10.977  22.816  0.00  0.00    +0.000 C 
ATOM      6  C   UNL     1      -1.107  12.887  21.131  0.00  0.00    +0.000 A 
ENDROOT
BRANCH   1  10
ATOM      7  C   UNL     1      -3.527  17.835  19.339  0.00  0.00    +0.000 C 
ATOM      8  C   UNL     1      -2.397  16.938  19.671  0.00  0.00    +0.000 A 
ATOM      9  N   UNL     1      -2.439  15.893  20.474  0.00  0.00    +0.000 NA
ATOM     10  C   UNL     1      -1.161  15.377  20.473  0.00  0.00    +0.000 A 
ATOM     11  C   UNL     1      -0.344  16.102  19.630  0.00  0.00    +0.000 A 
ATOM     12  C   UNL     1       1.024  16.057  19.186  0.00  0.00    +0.000 A 
ATOM     13  N   UNL     1       1.905  15.030  19.512  0.00  0.00    +0.000 N 
ATOM     14  C   UNL     1       3.247  15.068  18.990  0.00  0.00    +0.000 C 
ATOM     15  C   UNL     1       3.021  13.716  18.331  0.00  0.00    +0.000 C 
ATOM     16  C   UNL     1       1.632  13.727  18.954  0.00  0.00    +0.000 C 
ATOM     17  N   UNL     1       1.425  17.066  18.465  0.00  0.00    +0.000 NA
ATOM     18  C   UNL     1       0.561  18.077  18.131  0.00  0.00    +0.000 A 
ATOM     19  N   UNL     1      -0.698  18.148  18.422  0.00  0.00    +0.000 NA
ATOM     20  N   UNL     1      -1.129  17.124  19.181  0.00  0.00    +0.000 N 
ENDBRANCH   1  10
BRANCH   6  21
ATOM     21  C   UNL     1      -1.593  12.152  19.953  0.00  0.00    +0.000 A 
ATOM     22  N   UNL     1      -2.861  12.500  19.596  0.00  0.00    +0.000 NA
ATOM     23  C   UNL     1      -3.384  11.965  18.469  0.00  0.00    +0.000 A 
ATOM     24  C   UNL     1      -2.702  11.095  17.638  0.00  0.00    +0.000 A 
ATOM     25  C   UNL     1      -1.417  10.709  18.035  0.00  0.00    +0.000 A 
ATOM     26  C   UNL     1      -0.864  11.206  19.221  0.00  0.00    +0.000 A 
ATOM     27 CL   UNL     1       0.635  10.519  19.733  0.00  0.00    +0.000 Cl
BRANCH  24  28
ATOM     28  C   UNL     1      -3.321  10.591  16.373  0.00  0.00    +0.000 C 
ATOM     29  F   UNL     1      -4.657  10.837  16.288  0.00  0.00    +0.000 F 
ATOM     30  F   UNL     1      -2.767  11.149  15.263  0.00  0.00    +0.000 F 
ATOM     31  F   UNL     1      -3.183   9.245  16.226  0.00  0.00    +0.000 F 
ENDBRANCH  24  28
ENDBRANCH   6  21
TORSDOF 3
ENDMDL
MODEL 7
REMARK VINA RESULT:      -6.9      3.610      6.533
REMARK  Name = 
REMARK  5 active torsions:
REMARK  status: ('A' for Active; 'I' for Inactive)
REMARK    1  A    between atoms: C_1  and  C_2
REMARK    2  A    between atoms: C_4  and  C_5
REMARK    3  A    between atoms: N_8  and  C_9
REMARK    4  A    between atoms: C_10  and  C_11
REMARK    5  A    between atoms: C_14  and  C_15
REMARK                            x       y       z     vdW  Elec       q    Type
REMARK                         _______ _______ _______ _____ _____    ______ ____
ROOT
ATOM      1  C   UNL     1      -0.190  13.565  20.210  0.00  0.00    +0.000 A 
ATOM      2  C   UNL     1       1.013  13.240  20.858  0.00  0.00    +0.000 A 
ATOM      3  N   UNL     1       1.097  11.944  21.145  0.00  0.00    +0.000 NA
ATOM      4  N   UNL     1      -0.112  11.461  20.779  0.00  0.00    +0.000 N 
ATOM      5  C   UNL     1      -0.442  10.113  21.187  0.00  0.00    +0.000 C 
ATOM      6  C   UNL     1      -0.900  12.372  20.097  0.00  0.00    +0.000 A 
ENDROOT
BRANCH   1  10
ATOM      7  C   UNL     1      -0.476  17.635  17.524  0.00  0.00    +0.000 C 
ATOM      8  C   UNL     1      -0.683  16.652  18.611  0.00  0.00    +0.000 A 
ATOM      9  N   UNL     1      -0.105  15.472  18.718  0.00  0.00    +0.000 NA
ATOM     10  C   UNL     1      -0.604  14.922  19.879  0.00  0.00    +0.000 A 
ATOM     11  C   UNL     1      -1.469  15.799  20.501  0.00  0.00    +0.000 A 
ATOM     12  C   UNL     1      -2.257  15.833  21.705  0.00  0.00    +0.000 A 
ATOM     13  N   UNL     1      -2.204  14.847  22.687  0.00  0.00    +0.000 N 
ATOM     14  C   UNL     1      -3.015  14.995  23.868  0.00  0.00    +0.000 C 
ATOM     15  C   UNL     1      -1.761  14.929  24.727  0.00  0.00    +0.000 C 
ATOM     16  C   UNL     1      -0.977  14.733  23.437  0.00  0.00    +0.000 C 
ATOM     17  N   UNL     1      -3.070  16.844  21.828  0.00  0.00    +0.000 NA
ATOM     18  C   UNL     1      -3.121  17.824  20.870  0.00  0.00    +0.000 A 
ATOM     19  N   UNL     1      -2.390  17.906  19.805  0.00  0.00    +0.000 NA
ATOM     20  N   UNL     1      -1.555  16.862  19.650  0.00  0.00    +0.000 N 
ENDBRANCH   1  10
BRANCH   6  21
ATOM     21  C   UNL     1      -2.238  12.078  19.560  0.00  0.00    +0.000 A 
ATOM     22  N   UNL     1      -3.238  12.663  20.277  0.00  0.00    +0.000 NA
ATOM     23  C   UNL     1      -4.508  12.549  19.826  0.00  0.00    +0.000 A 
ATOM     24  C   UNL     1      -4.857  11.886  18.663  0.00  0.00    +0.000 A 
ATOM     25  C   UNL     1      -3.831  11.252  17.956  0.00  0.00    +0.000 A 
ATOM     26  C   UNL     1      -2.512  11.310  18.422  0.00  0.00    +0.000 A 
ATOM     27 CL   UNL     1      -1.350  10.330  17.602  0.00  0.00    +0.000 Cl
BRANCH  24  28
ATOM     28  C   UNL     1      -6.277  11.853  18.191  0.00  0.00    +0.000 C 
ATOM     29  F   UNL     1      -7.128  12.562  18.982  0.00  0.00    +0.000 F 
ATOM     30  F   UNL     1      -6.422  12.361  16.938  0.00  0.00    +0.000 F 
ATOM     31  F   UNL     1      -6.781  10.589  18.145  0.00  0.00    +0.000 F 
ENDBRANCH  24  28
ENDBRANCH   6  21
TORSDOF 3
ENDMDL
MODEL 8
REMARK VINA RESULT:      -6.8      9.811     12.153
REMARK  Name = 
REMARK  5 active torsions:
REMARK  status: ('A' for Active; 'I' for Inactive)
REMARK    1  A    between atoms: C_1  and  C_2
REMARK    2  A    between atoms: C_4  and  C_5
REMARK    3  A    between atoms: N_8  and  C_9
REMARK    4  A    between atoms: C_10  and  C_11
REMARK    5  A    between atoms: C_14  and  C_15
REMARK                            x       y       z     vdW  Elec       q    Type
REMARK                         _______ _______ _______ _____ _____    ______ ____
ROOT
ATOM      1  C   UNL     1       9.290  15.020  19.579  0.00  0.00    +0.000 A 
ATOM      2  C   UNL     1       9.960  16.164  19.113  0.00  0.00    +0.000 A 
ATOM      3  N   UNL     1      10.652  15.926  18.002  0.00  0.00    +0.000 NA
ATOM      4  N   UNL     1      10.514  14.593  17.824  0.00  0.00    +0.000 N 
ATOM      5  C   UNL     1      11.353  13.963  16.830  0.00  0.00    +0.000 C 
ATOM      6  C   UNL     1       9.603  14.000  18.683  0.00  0.00    +0.000 A 
ENDROOT
BRANCH   1  10
ATOM      7  C   UNL     1       8.611  14.202  24.346  0.00  0.00    +0.000 C 
ATOM      8  C   UNL     1       8.366  14.587  22.938  0.00  0.00    +0.000 A 
ATOM      9  N   UNL     1       9.216  14.470  21.937  0.00  0.00    +0.000 NA
ATOM     10  C   UNL     1       8.551  14.955  20.832  0.00  0.00    +0.000 A 
ATOM     11  C   UNL     1       7.267  15.339  21.165  0.00  0.00    +0.000 A 
ATOM     12  C   UNL     1       6.114  15.871  20.490  0.00  0.00    +0.000 A 
ATOM     13  N   UNL     1       6.038  16.035  19.110  0.00  0.00    +0.000 N 
ATOM     14  C   UNL     1       4.822  16.551  18.533  0.00  0.00    +0.000 C 
ATOM     15  C   UNL     1       4.701  15.294  17.685  0.00  0.00    +0.000 C 
ATOM     16  C   UNL     1       6.013  14.836  18.306  0.00  0.00    +0.000 C 
ATOM     17  N   UNL     1       5.121  16.232  21.253  0.00  0.00    +0.000 NA
ATOM     18  C   UNL     1       5.184  16.066  22.612  0.00  0.00    +0.000 A 
ATOM     19  N   UNL     1       6.149  15.522  23.283  0.00  0.00    +0.000 NA
ATOM     20  N   UNL     1       7.192  15.158  22.515  0.00  0.00    +0.000 N 
ENDBRANCH   1  10
BRANCH   6  21
ATOM     21  C   UNL     1       9.247  12.573  18.664  0.00  0.00    +0.000 A 
ATOM     22  N   UNL     1       8.283  12.279  17.747  0.00  0.00    +0.000 NA
ATOM     23  C   UNL     1       7.940  10.983  17.565  0.00  0.00    +0.000 A 
ATOM     24  C   UNL     1       8.523   9.927  18.242  0.00  0.00    +0.000 A 
ATOM     25  C   UNL     1       9.480  10.241  19.212  0.00  0.00    +0.000 A 
ATOM     26  C   UNL     1       9.824  11.576  19.460  0.00  0.00    +0.000 A 
ATOM     27 CL   UNL     1      10.857  11.879  20.810  0.00  0.00    +0.000 Cl
BRANCH  24  28
ATOM     28  C   UNL     1       8.136   8.513  17.944  0.00  0.00    +0.000 C 
ATOM     29  F   UNL     1       8.616   7.617  18.850  0.00  0.00    +0.000 F 
ATOM     30  F   UNL     1       6.789   8.335  17.921  0.00  0.00    +0.000 F 
ATOM     31  F   UNL     1       8.592   8.092  16.732  0.00  0.00    +0.000 F 
ENDBRANCH  24  28
ENDBRANCH   6  21
TORSDOF 3
ENDMDL
MODEL 9
REMARK VINA RESULT:      -6.8      3.172      6.274
REMARK  Name = 
REMARK  5 active torsions:
REMARK  status: ('A' for Active; 'I' for Inactive)
REMARK    1  A    between atoms: C_1  and  C_2
REMARK    2  A    between atoms: C_4  and  C_5
REMARK    3  A    between atoms: N_8  and  C_9
REMARK    4  A    between atoms: C_10  and  C_11
REMARK    5  A    between atoms: C_14  and  C_15
REMARK                            x       y       z     vdW  Elec       q    Type
REMARK                         _______ _______ _______ _____ _____    ______ ____
ROOT
ATOM      1  C   UNL     1      -5.841  13.946  21.099  0.00  0.00    +0.000 A 
ATOM      2  C   UNL     1      -6.661  13.803  22.231  0.00  0.00    +0.000 A 
ATOM      3  N   UNL     1      -7.229  12.602  22.293  0.00  0.00    +0.000 NA
ATOM      4  N   UNL     1      -6.857  12.017  21.133  0.00  0.00    +0.000 N 
ATOM      5  C   UNL     1      -7.511  10.779  20.770  0.00  0.00    +0.000 C 
ATOM      6  C   UNL     1      -5.918  12.736  20.413  0.00  0.00    +0.000 A 
ENDROOT
BRANCH   1  10
ATOM      7  C   UNL     1      -5.258  18.138  18.661  0.00  0.00    +0.000 C 
ATOM      8  C   UNL     1      -5.037  17.020  19.606  0.00  0.00    +0.000 A 
ATOM      9  N   UNL     1      -5.767  15.927  19.707  0.00  0.00    +0.000 NA
ATOM     10  C   UNL     1      -5.185  15.188  20.714  0.00  0.00    +0.000 A 
ATOM     11  C   UNL     1      -4.065  15.829  21.204  0.00  0.00    +0.000 A 
ATOM     12  C   UNL     1      -3.049  15.577  22.190  0.00  0.00    +0.000 A 
ATOM     13  N   UNL     1      -2.936  14.378  22.889  0.00  0.00    +0.000 N 
ATOM     14  C   UNL     1      -1.861  14.220  23.836  0.00  0.00    +0.000 C 
ATOM     15  C   UNL     1      -1.372  13.004  23.064  0.00  0.00    +0.000 C 
ATOM     16  C   UNL     1      -2.556  13.209  22.132  0.00  0.00    +0.000 C 
ATOM     17  N   UNL     1      -2.228  16.561  22.430  0.00  0.00    +0.000 NA
ATOM     18  C   UNL     1      -2.327  17.741  21.740  0.00  0.00    +0.000 A 
ATOM     19  N   UNL     1      -3.158  18.014  20.786  0.00  0.00    +0.000 NA
ATOM     20  N   UNL     1      -4.026  17.017  20.533  0.00  0.00    +0.000 N 
ENDBRANCH   1  10
BRANCH   6  21
ATOM     21  C   UNL     1      -5.326  12.296  19.141  0.00  0.00    +0.000 A 
ATOM     22  N   UNL     1      -4.072  11.785  19.288  0.00  0.00    +0.000 NA
ATOM     23  C   UNL     1      -3.460  11.255  18.204  0.00  0.00    +0.000 A 
ATOM     24  C   UNL     1      -4.038  11.181  16.950  0.00  0.00    +0.000 A 
ATOM     25  C   UNL     1      -5.307  11.747  16.798  0.00  0.00    +0.000 A 
ATOM     26  C   UNL     1      -5.949  12.347  17.888  0.00  0.00    +0.000 A 
ATOM     27 CL   UNL     1      -7.416  13.197  17.560  0.00  0.00    +0.000 Cl
BRANCH  24  28
ATOM     28  C   UNL     1      -3.325  10.524  15.810  0.00  0.00    +0.000 C 
ATOM     29  F   UNL     1      -4.163  10.056  14.844  0.00  0.00    +0.000 F 
ATOM     30  F   UNL     1      -2.462  11.365  15.180  0.00  0.00    +0.000 F 
ATOM     31  F   UNL     1      -2.584   9.453  16.206  0.00  0.00    +0.000 F 
ENDBRANCH  24  28
ENDBRANCH   6  21
TORSDOF 3
ENDMDL
