MODEL 1
REMARK VINA RESULT:      -7.1      0.000      0.000
REMARK  Name = 
REMARK  7 active torsions:
REMARK  status: ('A' for Active; 'I' for Inactive)
REMARK    1  A    between atoms: C_2  and  C_3
REMARK    2  A    between atoms: C_2  and  C_21
REMARK    3  A    between atoms: C_3  and  S_4
REMARK    4  A    between atoms: S_4  and  C_5
REMARK    5  A    between atoms: N_9  and  C_10
REMARK    6  A    between atoms: C_13  and  S_14
REMARK    7  A    between atoms: S_14  and  C_15
REMARK                            x       y       z     vdW  Elec       q    Type
REMARK                         _______ _______ _______ _____ _____    ______ ____
ROOT
ATOM      1  C   UNL     1       2.256   7.663  19.258  0.00  0.00    +0.000 A 
ATOM      2  N   UNL     1       1.557   8.057  20.296  0.00  0.00    +0.000 NA
ATOM      3  N   UNL     1       0.750   9.129  19.991  0.00  0.00    +0.000 NA
ATOM      4  C   UNL     1       0.893   9.549  18.750  0.00  0.00    +0.000 A 
ATOM      5  N   UNL     1       0.249  10.597  18.178  0.00  0.00    +0.000 N 
ATOM      6  S   UNL     1       2.068   8.637  17.865  0.00  0.00    +0.000 S 
ATOM      7  H   UNL     1       0.627  10.992  17.328  0.00  0.00    +0.000 HD
ENDROOT
BRANCH   5   8
ATOM      8  C   UNL     1      -1.037  11.056  18.511  0.00  0.00    +0.000 A 
ATOM      9  C   UNL     1      -2.131  10.594  17.773  0.00  0.00    +0.000 A 
ATOM     10  C   UNL     1      -3.434  11.040  18.048  0.00  0.00    +0.000 A 
ATOM     11  C   UNL     1      -3.678  11.951  19.080  0.00  0.00    +0.000 A 
ATOM     12  C   UNL     1      -2.584  12.450  19.790  0.00  0.00    +0.000 A 
ATOM     13  C   UNL     1      -1.282  12.013  19.500  0.00  0.00    +0.000 A 
BRANCH  11  14
ATOM     14  S   UNL     1      -5.367  12.476  19.337  0.00  0.00    +0.000 S 
BRANCH  14  15
ATOM     15  C   UNL     1      -6.325  11.109  18.641  0.00  0.00    +0.000 C 
ATOM     16  F   UNL     1      -7.214  10.625  19.545  0.00  0.00    +0.000 F 
ATOM     17  F   UNL     1      -7.066  11.562  17.596  0.00  0.00    +0.000 F 
ENDBRANCH  14  15
ENDBRANCH  11  14
ENDBRANCH   5   8
BRANCH   1  18
ATOM     18  S   UNL     1       3.267   6.234  19.326  0.00  0.00    +0.000 S 
BRANCH  18  19
ATOM     19  C   UNL     1       2.768   5.434  17.758  0.00  0.00    +0.000 C 
BRANCH  19  21
ATOM     20  O   UNL     1       2.001   3.277  17.018  0.00  0.00    +0.000 OA
ATOM     21  C   UNL     1       2.292   3.995  17.973  0.00  0.00    +0.000 C 
BRANCH  21  22
ATOM     22  C   UNL     1       2.208   3.487  19.343  0.00  0.00    +0.000 A 
ATOM     23  C   UNL     1       1.106   3.571  20.177  0.00  0.00    +0.000 A 
ATOM     24  C   UNL     1       1.343   3.010  21.464  0.00  0.00    +0.000 A 
ATOM     25  C   UNL     1       2.612   2.488  21.567  0.00  0.00    +0.000 A 
ATOM     26  S   UNL     1       3.495   2.660  20.113  0.00  0.00    +0.000 S 
ENDBRANCH  21  22
ENDBRANCH  19  21
ENDBRANCH  18  19
ENDBRANCH   1  18
TORSDOF 7
ENDMDL
MODEL 2
REMARK VINA RESULT:      -6.7      1.561      1.746
REMARK  Name = 
REMARK  7 active torsions:
REMARK  status: ('A' for Active; 'I' for Inactive)
REMARK    1  A    between atoms: C_2  and  C_3
REMARK    2  A    between atoms: C_2  and  C_21
REMARK    3  A    between atoms: C_3  and  S_4
REMARK    4  A    between atoms: S_4  and  C_5
REMARK    5  A    between atoms: N_9  and  C_10
REMARK    6  A    between atoms: C_13  and  S_14
REMARK    7  A    between atoms: S_14  and  C_15
REMARK                            x       y       z     vdW  Elec       q    Type
REMARK                         _______ _______ _______ _____ _____    ______ ____
ROOT
ATOM      1  C   UNL     1       2.265   7.793  19.001  0.00  0.00    +0.000 A 
ATOM      2  N   UNL     1       1.689   8.128  20.132  0.00  0.00    +0.000 NA
ATOM      3  N   UNL     1       0.965   9.292  20.011  0.00  0.00    +0.000 NA
ATOM      4  C   UNL     1       1.050   9.834  18.813  0.00  0.00    +0.000 A 
ATOM      5  N   UNL     1       0.465  10.990  18.411  0.00  0.00    +0.000 N 
ATOM      6  S   UNL     1       2.062   8.929  17.739  0.00  0.00    +0.000 S 
ATOM      7  H   UNL     1       0.811  11.443  17.577  0.00  0.00    +0.000 HD
ENDROOT
BRANCH   5   8
ATOM      8  C   UNL     1      -0.742  11.517  18.901  0.00  0.00    +0.000 A 
ATOM      9  C   UNL     1      -1.948  11.049  18.371  0.00  0.00    +0.000 A 
ATOM     10  C   UNL     1      -3.181  11.560  18.807  0.00  0.00    +0.000 A 
ATOM     11  C   UNL     1      -3.241  12.545  19.797  0.00  0.00    +0.000 A 
ATOM     12  C   UNL     1      -2.038  13.047  20.298  0.00  0.00    +0.000 A 
ATOM     13  C   UNL     1      -0.808  12.544  19.847  0.00  0.00    +0.000 A 
BRANCH  11  14
ATOM     14  S   UNL     1      -4.855  13.147  20.268  0.00  0.00    +0.000 S 
BRANCH  14  15
ATOM     15  C   UNL     1      -4.782  13.132  22.075  0.00  0.00    +0.000 C 
ATOM     16  F   UNL     1      -5.990  12.827  22.611  0.00  0.00    +0.000 F 
ATOM     17  F   UNL     1      -3.934  12.152  22.485  0.00  0.00    +0.000 F 
ENDBRANCH  14  15
ENDBRANCH  11  14
ENDBRANCH   5   8
BRANCH   1  18
ATOM     18  S   UNL     1       3.140   6.286  18.832  0.00  0.00    +0.000 S 
BRANCH  18  19
ATOM     19  C   UNL     1       1.936   5.349  17.821  0.00  0.00    +0.000 C 
BRANCH  19  21
ATOM     20  O   UNL     1       2.164   3.077  17.061  0.00  0.00    +0.000 OA
ATOM     21  C   UNL     1       2.069   3.837  18.024  0.00  0.00    +0.000 C 
BRANCH  21  22
ATOM     22  C   UNL     1       2.097   3.318  19.392  0.00  0.00    +0.000 A 
ATOM     23  C   UNL     1       1.021   3.254  20.261  0.00  0.00    +0.000 A 
ATOM     24  C   UNL     1       1.371   2.725  21.536  0.00  0.00    +0.000 A 
ATOM     25  C   UNL     1       2.701   2.374  21.595  0.00  0.00    +0.000 A 
ATOM     26  S   UNL     1       3.505   2.666  20.115  0.00  0.00    +0.000 S 
ENDBRANCH  21  22
ENDBRANCH  19  21
ENDBRANCH  18  19
ENDBRANCH   1  18
TORSDOF 7
ENDMDL
MODEL 3
REMARK VINA RESULT:      -6.7      3.822      4.428
REMARK  Name = 
REMARK  7 active torsions:
REMARK  status: ('A' for Active; 'I' for Inactive)
REMARK    1  A    between atoms: C_2  and  C_3
REMARK    2  A    between atoms: C_2  and  C_21
REMARK    3  A    between atoms: C_3  and  S_4
REMARK    4  A    between atoms: S_4  and  C_5
REMARK    5  A    between atoms: N_9  and  C_10
REMARK    6  A    between atoms: C_13  and  S_14
REMARK    7  A    between atoms: S_14  and  C_15
REMARK                            x       y       z     vdW  Elec       q    Type
REMARK                         _______ _______ _______ _____ _____    ______ ____
ROOT
ATOM      1  C   UNL     1       3.126   7.347  17.961  0.00  0.00    +0.000 A 
ATOM      2  N   UNL     1       2.871   8.319  17.117  0.00  0.00    +0.000 NA
ATOM      3  N   UNL     1       1.994   9.238  17.646  0.00  0.00    +0.000 NA
ATOM      4  C   UNL     1       1.570   8.916  18.852  0.00  0.00    +0.000 A 
ATOM      5  N   UNL     1       0.687   9.616  19.606  0.00  0.00    +0.000 N 
ATOM      6  S   UNL     1       2.230   7.419  19.416  0.00  0.00    +0.000 S 
ATOM      7  H   UNL     1       0.234   9.149  20.379  0.00  0.00    +0.000 HD
ENDROOT
BRANCH   5   8
ATOM      8  C   UNL     1       0.500  11.009  19.578  0.00  0.00    +0.000 A 
ATOM      9  C   UNL     1       1.133  11.795  20.545  0.00  0.00    +0.000 A 
ATOM     10  C   UNL     1       0.960  13.188  20.577  0.00  0.00    +0.000 A 
ATOM     11  C   UNL     1       0.159  13.834  19.631  0.00  0.00    +0.000 A 
ATOM     12  C   UNL     1      -0.511  13.049  18.690  0.00  0.00    +0.000 A 
ATOM     13  C   UNL     1      -0.347  11.655  18.673  0.00  0.00    +0.000 A 
BRANCH  11  14
ATOM     14  S   UNL     1      -0.017  15.607  19.769  0.00  0.00    +0.000 S 
BRANCH  14  15
ATOM     15  C   UNL     1       1.384  16.228  18.809  0.00  0.00    +0.000 C 
ATOM     16  F   UNL     1       2.044  15.214  18.194  0.00  0.00    +0.000 F 
ATOM     17  F   UNL     1       0.927  17.032  17.812  0.00  0.00    +0.000 F 
ENDBRANCH  14  15
ENDBRANCH  11  14
ENDBRANCH   5   8
BRANCH   1  18
ATOM     18  S   UNL     1       4.312   6.110  17.599  0.00  0.00    +0.000 S 
BRANCH  18  19
ATOM     19  C   UNL     1       4.627   5.489  19.291  0.00  0.00    +0.000 C 
BRANCH  19  21
ATOM     20  O   UNL     1       5.316   3.200  19.559  0.00  0.00    +0.000 OA
ATOM     21  C   UNL     1       4.380   3.983  19.407  0.00  0.00    +0.000 C 
BRANCH  21  22
ATOM     22  C   UNL     1       3.000   3.497  19.349  0.00  0.00    +0.000 A 
ATOM     23  C   UNL     1       2.023   3.708  20.307  0.00  0.00    +0.000 A 
ATOM     24  C   UNL     1       0.786   3.083  19.980  0.00  0.00    +0.000 A 
ATOM     25  C   UNL     1       0.846   2.435  18.768  0.00  0.00    +0.000 A 
ATOM     26  S   UNL     1       2.379   2.603  18.029  0.00  0.00    +0.000 S 
ENDBRANCH  21  22
ENDBRANCH  19  21
ENDBRANCH  18  19
ENDBRANCH   1  18
TORSDOF 7
ENDMDL
MODEL 4
REMARK VINA RESULT:      -6.6      3.837      4.969
REMARK  Name = 
REMARK  7 active torsions:
REMARK  status: ('A' for Active; 'I' for Inactive)
REMARK    1  A    between atoms: C_2  and  C_3
REMARK    2  A    between atoms: C_2  and  C_21
REMARK    3  A    between atoms: C_3  and  S_4
REMARK    4  A    between atoms: S_4  and  C_5
REMARK    5  A    between atoms: N_9  and  C_10
REMARK    6  A    between atoms: C_13  and  S_14
REMARK    7  A    between atoms: S_14  and  C_15
REMARK                            x       y       z     vdW  Elec       q    Type
REMARK                         _______ _______ _______ _____ _____    ______ ____
ROOT
ATOM      1  C   UNL     1       2.126   4.679  19.509  0.00  0.00    +0.000 A 
ATOM      2  N   UNL     1       1.647   4.843  20.719  0.00  0.00    +0.000 NA
ATOM      3  N   UNL     1       1.493   6.174  21.031  0.00  0.00    +0.000 NA
ATOM      4  C   UNL     1       1.903   6.982  20.074  0.00  0.00    +0.000 A 
ATOM      5  N   UNL     1       1.895   8.338  20.110  0.00  0.00    +0.000 N 
ATOM      6  S   UNL     1       2.531   6.132  18.704  0.00  0.00    +0.000 S 
ATOM      7  H   UNL     1       2.471   8.843  19.451  0.00  0.00    +0.000 HD
ENDROOT
BRANCH   5   8
ATOM      8  C   UNL     1       0.982   9.139  20.817  0.00  0.00    +0.000 A 
ATOM      9  C   UNL     1       0.098   9.950  20.100  0.00  0.00    +0.000 A 
ATOM     10  C   UNL     1      -0.816  10.788  20.759  0.00  0.00    +0.000 A 
ATOM     11  C   UNL     1      -0.880  10.826  22.155  0.00  0.00    +0.000 A 
ATOM     12  C   UNL     1       0.031  10.051  22.875  0.00  0.00    +0.000 A 
ATOM     13  C   UNL     1       0.954   9.228  22.212  0.00  0.00    +0.000 A 
BRANCH  11  14
ATOM     14  S   UNL     1      -2.060  11.941  22.898  0.00  0.00    +0.000 S 
BRANCH  14  15
ATOM     15  C   UNL     1      -1.178  13.520  22.903  0.00  0.00    +0.000 C 
ATOM     16  F   UNL     1      -1.005  13.980  24.168  0.00  0.00    +0.000 F 
ATOM     17  F   UNL     1       0.071  13.341  22.398  0.00  0.00    +0.000 F 
ENDBRANCH  14  15
ENDBRANCH  11  14
ENDBRANCH   5   8
BRANCH   1  18
ATOM     18  S   UNL     1       2.298   3.085  18.802  0.00  0.00    +0.000 S 
BRANCH  18  19
ATOM     19  C   UNL     1       3.825   3.349  17.829  0.00  0.00    +0.000 C 
BRANCH  19  21
ATOM     20  O   UNL     1       5.225   2.986  19.752  0.00  0.00    +0.000 OA
ATOM     21  C   UNL     1       5.035   3.633  18.723  0.00  0.00    +0.000 C 
BRANCH  21  22
ATOM     22  C   UNL     1       5.972   4.681  18.316  0.00  0.00    +0.000 A 
ATOM     23  C   UNL     1       6.782   5.423  19.160  0.00  0.00    +0.000 A 
ATOM     24  C   UNL     1       7.563   6.390  18.466  0.00  0.00    +0.000 A 
ATOM     25  C   UNL     1       7.348   6.341  17.108  0.00  0.00    +0.000 A 
ATOM     26  S   UNL     1       6.228   5.122  16.681  0.00  0.00    +0.000 S 
ENDBRANCH  21  22
ENDBRANCH  19  21
ENDBRANCH  18  19
ENDBRANCH   1  18
TORSDOF 7
ENDMDL
MODEL 5
REMARK VINA RESULT:      -6.6      8.274      9.704
REMARK  Name = 
REMARK  7 active torsions:
REMARK  status: ('A' for Active; 'I' for Inactive)
REMARK    1  A    between atoms: C_2  and  C_3
REMARK    2  A    between atoms: C_2  and  C_21
REMARK    3  A    between atoms: C_3  and  S_4
REMARK    4  A    between atoms: S_4  and  C_5
REMARK    5  A    between atoms: N_9  and  C_10
REMARK    6  A    between atoms: C_13  and  S_14
REMARK    7  A    between atoms: S_14  and  C_15
REMARK                            x       y       z     vdW  Elec       q    Type
REMARK                         _______ _______ _______ _____ _____    ______ ____
ROOT
ATOM      1  C   UNL     1       5.954   5.125  18.360  0.00  0.00    +0.000 A 
ATOM      2  N   UNL     1       6.946   5.379  19.179  0.00  0.00    +0.000 NA
ATOM      3  N   UNL     1       7.587   6.553  18.856  0.00  0.00    +0.000 NA
ATOM      4  C   UNL     1       7.099   7.132  17.778  0.00  0.00    +0.000 A 
ATOM      5  N   UNL     1       7.543   8.281  17.211  0.00  0.00    +0.000 N 
ATOM      6  S   UNL     1       5.797   6.236  17.069  0.00  0.00    +0.000 S 
ATOM      7  H   UNL     1       7.281   8.483  16.256  0.00  0.00    +0.000 HD
ENDROOT
BRANCH   5   8
ATOM      8  C   UNL     1       8.144   9.356  17.889  0.00  0.00    +0.000 A 
ATOM      9  C   UNL     1       7.878  10.659  17.460  0.00  0.00    +0.000 A 
ATOM     10  C   UNL     1       8.473  11.766  18.087  0.00  0.00    +0.000 A 
ATOM     11  C   UNL     1       9.340  11.599  19.170  0.00  0.00    +0.000 A 
ATOM     12  C   UNL     1       9.643  10.297  19.574  0.00  0.00    +0.000 A 
ATOM     13  C   UNL     1       9.059   9.193  18.933  0.00  0.00    +0.000 A 
BRANCH  11  14
ATOM     14  S   UNL     1      10.064  13.067  19.885  0.00  0.00    +0.000 S 
BRANCH  14  15
ATOM     15  C   UNL     1      11.837  12.799  19.652  0.00  0.00    +0.000 C 
ATOM     16  F   UNL     1      12.288  11.795  20.446  0.00  0.00    +0.000 F 
ATOM     17  F   UNL     1      12.069  12.395  18.375  0.00  0.00    +0.000 F 
ENDBRANCH  14  15
ENDBRANCH  11  14
ENDBRANCH   5   8
BRANCH   1  18
ATOM     18  S   UNL     1       4.883   3.763  18.615  0.00  0.00    +0.000 S 
BRANCH  18  19
ATOM     19  C   UNL     1       3.623   4.124  17.338  0.00  0.00    +0.000 C 
BRANCH  19  21
ATOM     20  O   UNL     1       1.235   3.966  17.095  0.00  0.00    +0.000 OA
ATOM     21  C   UNL     1       2.199   3.906  17.856  0.00  0.00    +0.000 C 
BRANCH  21  22
ATOM     22  C   UNL     1       2.014   3.607  19.277  0.00  0.00    +0.000 A 
ATOM     23  C   UNL     1       1.795   2.354  19.823  0.00  0.00    +0.000 A 
ATOM     24  C   UNL     1       1.622   2.390  21.236  0.00  0.00    +0.000 A 
ATOM     25  C   UNL     1       1.741   3.667  21.732  0.00  0.00    +0.000 A 
ATOM     26  S   UNL     1       2.078   4.803  20.500  0.00  0.00    +0.000 S 
ENDBRANCH  21  22
ENDBRANCH  19  21
ENDBRANCH  18  19
ENDBRANCH   1  18
TORSDOF 7
ENDMDL
MODEL 6
REMARK VINA RESULT:      -6.6      2.651      4.404
REMARK  Name = 
REMARK  7 active torsions:
REMARK  status: ('A' for Active; 'I' for Inactive)
REMARK    1  A    between atoms: C_2  and  C_3
REMARK    2  A    between atoms: C_2  and  C_21
REMARK    3  A    between atoms: C_3  and  S_4
REMARK    4  A    between atoms: S_4  and  C_5
REMARK    5  A    between atoms: N_9  and  C_10
REMARK    6  A    between atoms: C_13  and  S_14
REMARK    7  A    between atoms: S_14  and  C_15
REMARK                            x       y       z     vdW  Elec       q    Type
REMARK                         _______ _______ _______ _____ _____    ______ ____
ROOT
ATOM      1  C   UNL     1       2.017   3.556  20.052  0.00  0.00    +0.000 A 
ATOM      2  N   UNL     1       0.782   3.989  19.967  0.00  0.00    +0.000 NA
ATOM      3  N   UNL     1       0.696   5.339  20.224  0.00  0.00    +0.000 NA
ATOM      4  C   UNL     1       1.853   5.881  20.544  0.00  0.00    +0.000 A 
ATOM      5  N   UNL     1       2.070   7.180  20.870  0.00  0.00    +0.000 N 
ATOM      6  S   UNL     1       3.149   4.732  20.561  0.00  0.00    +0.000 S 
ATOM      7  H   UNL     1       2.924   7.422  21.353  0.00  0.00    +0.000 HD
ENDROOT
BRANCH   5   8
ATOM      8  C   UNL     1       1.336   8.281  20.398  0.00  0.00    +0.000 A 
ATOM      9  C   UNL     1       1.606   8.776  19.119  0.00  0.00    +0.000 A 
ATOM     10  C   UNL     1       0.919   9.890  18.610  0.00  0.00    +0.000 A 
ATOM     11  C   UNL     1      -0.069  10.530  19.364  0.00  0.00    +0.000 A 
ATOM     12  C   UNL     1      -0.312  10.068  20.658  0.00  0.00    +0.000 A 
ATOM     13  C   UNL     1       0.390   8.964  21.169  0.00  0.00    +0.000 A 
BRANCH  11  14
ATOM     14  S   UNL     1      -0.870  11.952  18.637  0.00  0.00    +0.000 S 
BRANCH  14  15
ATOM     15  C   UNL     1      -2.375  11.249  17.925  0.00  0.00    +0.000 C 
ATOM     16  F   UNL     1      -2.217   9.928  17.653  0.00  0.00    +0.000 F 
ATOM     17  F   UNL     1      -3.383  11.323  18.834  0.00  0.00    +0.000 F 
ENDBRANCH  14  15
ENDBRANCH  11  14
ENDBRANCH   5   8
BRANCH   1  18
ATOM     18  S   UNL     1       2.436   1.905  19.644  0.00  0.00    +0.000 S 
BRANCH  18  19
ATOM     19  C   UNL     1       3.743   2.222  18.402  0.00  0.00    +0.000 C 
BRANCH  19  21
ATOM     20  O   UNL     1       2.156   3.147  16.848  0.00  0.00    +0.000 OA
ATOM     21  C   UNL     1       3.286   3.214  17.328  0.00  0.00    +0.000 C 
BRANCH  21  22
ATOM     22  C   UNL     1       4.221   4.255  16.899  0.00  0.00    +0.000 A 
ATOM     23  C   UNL     1       4.159   5.596  17.242  0.00  0.00    +0.000 A 
ATOM     24  C   UNL     1       5.195   6.367  16.643  0.00  0.00    +0.000 A 
ATOM     25  C   UNL     1       6.035   5.588  15.881  0.00  0.00    +0.000 A 
ATOM     26  S   UNL     1       5.582   3.940  15.911  0.00  0.00    +0.000 S 
ENDBRANCH  21  22
ENDBRANCH  19  21
ENDBRANCH  18  19
ENDBRANCH   1  18
TORSDOF 7
ENDMDL
MODEL 7
REMARK VINA RESULT:      -6.6      8.225     10.112
REMARK  Name = 
REMARK  7 active torsions:
REMARK  status: ('A' for Active; 'I' for Inactive)
REMARK    1  A    between atoms: C_2  and  C_3
REMARK    2  A    between atoms: C_2  and  C_21
REMARK    3  A    between atoms: C_3  and  S_4
REMARK    4  A    between atoms: S_4  and  C_5
REMARK    5  A    between atoms: N_9  and  C_10
REMARK    6  A    between atoms: C_13  and  S_14
REMARK    7  A    between atoms: S_14  and  C_15
REMARK                            x       y       z     vdW  Elec       q    Type
REMARK                         _______ _______ _______ _____ _____    ______ ____
ROOT
ATOM      1  C   UNL     1       7.363   6.318  17.300  0.00  0.00    +0.000 A 
ATOM      2  N   UNL     1       7.155   7.465  16.698  0.00  0.00    +0.000 NA
ATOM      3  N   UNL     1       7.670   8.520  17.416  0.00  0.00    +0.000 NA
ATOM      4  C   UNL     1       8.207   8.155  18.562  0.00  0.00    +0.000 A 
ATOM      5  N   UNL     1       8.767   8.976  19.485  0.00  0.00    +0.000 N 
ATOM      6  S   UNL     1       8.098   6.449  18.839  0.00  0.00    +0.000 S 
ATOM      7  H   UNL     1       8.898   8.630  20.425  0.00  0.00    +0.000 HD
ENDROOT
BRANCH   5   8
ATOM      8  C   UNL     1       9.413  10.196  19.219  0.00  0.00    +0.000 A 
ATOM      9  C   UNL     1       9.318  10.745  17.937  0.00  0.00    +0.000 A 
ATOM     10  C   UNL     1       9.965  11.948  17.613  0.00  0.00    +0.000 A 
ATOM     11  C   UNL     1      10.713  12.643  18.568  0.00  0.00    +0.000 A 
ATOM     12  C   UNL     1      10.847  12.075  19.837  0.00  0.00    +0.000 A 
ATOM     13  C   UNL     1      10.212  10.864  20.152  0.00  0.00    +0.000 A 
BRANCH  11  14
ATOM     14  S   UNL     1      11.516  14.152  18.052  0.00  0.00    +0.000 S 
BRANCH  14  15
ATOM     15  C   UNL     1      10.386  15.434  18.641  0.00  0.00    +0.000 C 
ATOM     16  F   UNL     1      10.548  16.588  17.944  0.00  0.00    +0.000 F 
ATOM     17  F   UNL     1       9.103  15.043  18.419  0.00  0.00    +0.000 F 
ENDBRANCH  14  15
ENDBRANCH  11  14
ENDBRANCH   5   8
BRANCH   1  18
ATOM     18  S   UNL     1       6.932   4.798  16.546  0.00  0.00    +0.000 S 
BRANCH  18  19
ATOM     19  C   UNL     1       5.240   5.209  15.982  0.00  0.00    +0.000 C 
BRANCH  19  21
ATOM     20  O   UNL     1       3.945   6.456  17.581  0.00  0.00    +0.000 OA
ATOM     21  C   UNL     1       4.262   5.348  17.152  0.00  0.00    +0.000 C 
BRANCH  21  22
ATOM     22  C   UNL     1       3.697   4.130  17.736  0.00  0.00    +0.000 A 
ATOM     23  C   UNL     1       2.634   3.401  17.230  0.00  0.00    +0.000 A 
ATOM     24  C   UNL     1       2.298   2.281  18.041  0.00  0.00    +0.000 A 
ATOM     25  C   UNL     1       3.131   2.170  19.130  0.00  0.00    +0.000 A 
ATOM     26  S   UNL     1       4.318   3.400  19.154  0.00  0.00    +0.000 S 
ENDBRANCH  21  22
ENDBRANCH  19  21
ENDBRANCH  18  19
ENDBRANCH   1  18
TORSDOF 7
ENDMDL
MODEL 8
REMARK VINA RESULT:      -6.5      7.625      9.452
REMARK  Name = 
REMARK  7 active torsions:
REMARK  status: ('A' for Active; 'I' for Inactive)
REMARK    1  A    between atoms: C_2  and  C_3
REMARK    2  A    between atoms: C_2  and  C_21
REMARK    3  A    between atoms: C_3  and  S_4
REMARK    4  A    between atoms: S_4  and  C_5
REMARK    5  A    between atoms: N_9  and  C_10
REMARK    6  A    between atoms: C_13  and  S_14
REMARK    7  A    between atoms: S_14  and  C_15
REMARK                            x       y       z     vdW  Elec       q    Type
REMARK                         _______ _______ _______ _____ _____    ______ ____
ROOT
ATOM      1  C   UNL     1       6.575   5.664  18.242  0.00  0.00    +0.000 A 
ATOM      2  N   UNL     1       7.638   5.857  18.986  0.00  0.00    +0.000 NA
ATOM      3  N   UNL     1       8.199   7.093  18.765  0.00  0.00    +0.000 NA
ATOM      4  C   UNL     1       7.581   7.784  17.828  0.00  0.00    +0.000 A 
ATOM      5  N   UNL     1       7.922   9.019  17.383  0.00  0.00    +0.000 N 
ATOM      6  S   UNL     1       6.246   6.927  17.136  0.00  0.00    +0.000 S 
ATOM      7  H   UNL     1       7.556   9.331  16.495  0.00  0.00    +0.000 HD
ENDROOT
BRANCH   5   8
ATOM      8  C   UNL     1       8.552  10.023  18.138  0.00  0.00    +0.000 A 
ATOM      9  C   UNL     1       8.546  11.335  17.657  0.00  0.00    +0.000 A 
ATOM     10  C   UNL     1       9.183  12.370  18.360  0.00  0.00    +0.000 A 
ATOM     11  C   UNL     1       9.831  12.122  19.573  0.00  0.00    +0.000 A 
ATOM     12  C   UNL     1       9.878  10.806  20.036  0.00  0.00    +0.000 A 
ATOM     13  C   UNL     1       9.255   9.772  19.321  0.00  0.00    +0.000 A 
BRANCH  11  14
ATOM     14  S   UNL     1      10.630  13.501  20.380  0.00  0.00    +0.000 S 
BRANCH  14  15
ATOM     15  C   UNL     1       9.584  14.902  19.919  0.00  0.00    +0.000 C 
ATOM     16  F   UNL     1       8.359  14.808  20.495  0.00  0.00    +0.000 F 
ATOM     17  F   UNL     1      10.132  16.051  20.395  0.00  0.00    +0.000 F 
ENDBRANCH  14  15
ENDBRANCH  11  14
ENDBRANCH   5   8
BRANCH   1  18
ATOM     18  S   UNL     1       5.586   4.229  18.414  0.00  0.00    +0.000 S 
BRANCH  18  19
ATOM     19  C   UNL     1       4.141   4.735  17.411  0.00  0.00    +0.000 C 
BRANCH  19  21
ATOM     20  O   UNL     1       2.494   6.353  18.089  0.00  0.00    +0.000 OA
ATOM     21  C   UNL     1       2.987   5.242  18.281  0.00  0.00    +0.000 C 
BRANCH  21  22
ATOM     22  C   UNL     1       2.472   4.366  19.334  0.00  0.00    +0.000 A 
ATOM     23  C   UNL     1       2.378   4.679  20.680  0.00  0.00    +0.000 A 
ATOM     24  C   UNL     1       1.862   3.606  21.461  0.00  0.00    +0.000 A 
ATOM     25  C   UNL     1       1.551   2.513  20.685  0.00  0.00    +0.000 A 
ATOM     26  S   UNL     1       1.862   2.796  19.028  0.00  0.00    +0.000 S 
ENDBRANCH  21  22
ENDBRANCH  19  21
ENDBRANCH  18  19
ENDBRANCH   1  18
TORSDOF 7
ENDMDL
MODEL 9
REMARK VINA RESULT:      -6.5      2.758      3.229
REMARK  Name = 
REMARK  7 active torsions:
REMARK  status: ('A' for Active; 'I' for Inactive)
REMARK    1  A    between atoms: C_2  and  C_3
REMARK    2  A    between atoms: C_2  and  C_21
REMARK    3  A    between atoms: C_3  and  S_4
REMARK    4  A    between atoms: S_4  and  C_5
REMARK    5  A    between atoms: N_9  and  C_10
REMARK    6  A    between atoms: C_13  and  S_14
REMARK    7  A    between atoms: S_14  and  C_15
REMARK                            x       y       z     vdW  Elec       q    Type
REMARK                         _______ _______ _______ _____ _____    ______ ____
ROOT
ATOM      1  C   UNL     1       2.175   8.017  18.781  0.00  0.00    +0.000 A 
ATOM      2  N   UNL     1       1.733   7.941  20.014  0.00  0.00    +0.000 NA
ATOM      3  N   UNL     1       1.121   9.108  20.410  0.00  0.00    +0.000 NA
ATOM      4  C   UNL     1       1.159  10.052  19.491  0.00  0.00    +0.000 A 
ATOM      5  N   UNL     1       0.661  11.308  19.608  0.00  0.00    +0.000 N 
ATOM      6  S   UNL     1       1.982   9.552  18.052  0.00  0.00    +0.000 S 
ATOM      7  H   UNL     1       0.979  12.017  18.962  0.00  0.00    +0.000 HD
ENDROOT
BRANCH   5   8
ATOM      8  C   UNL     1      -0.443  11.688  20.391  0.00  0.00    +0.000 A 
ATOM      9  C   UNL     1      -1.662  11.949  19.759  0.00  0.00    +0.000 A 
ATOM     10  C   UNL     1      -2.788  12.356  20.493  0.00  0.00    +0.000 A 
ATOM     11  C   UNL     1      -2.728  12.498  21.882  0.00  0.00    +0.000 A 
ATOM     12  C   UNL     1      -1.501  12.282  22.512  0.00  0.00    +0.000 A 
ATOM     13  C   UNL     1      -0.374  11.892  21.773  0.00  0.00    +0.000 A 
BRANCH  11  14
ATOM     14  S   UNL     1      -4.207  13.043  22.722  0.00  0.00    +0.000 S 
BRANCH  14  15
ATOM     15  C   UNL     1      -3.944  12.470  24.417  0.00  0.00    +0.000 C 
ATOM     16  F   UNL     1      -3.544  13.488  25.221  0.00  0.00    +0.000 F 
ATOM     17  F   UNL     1      -5.122  12.030  24.933  0.00  0.00    +0.000 F 
ENDBRANCH  14  15
ENDBRANCH  11  14
ENDBRANCH   5   8
BRANCH   1  18
ATOM     18  S   UNL     1       2.878   6.631  17.974  0.00  0.00    +0.000 S 
BRANCH  18  19
ATOM     19  C   UNL     1       4.042   6.082  19.275  0.00  0.00    +0.000 C 
BRANCH  19  21
ATOM     20  O   UNL     1       5.153   3.963  19.537  0.00  0.00    +0.000 OA
ATOM     21  C   UNL     1       4.083   4.556  19.403  0.00  0.00    +0.000 C 
BRANCH  21  22
ATOM     22  C   UNL     1       2.818   3.821  19.381  0.00  0.00    +0.000 A 
ATOM     23  C   UNL     1       1.805   3.915  20.321  0.00  0.00    +0.000 A 
ATOM     24  C   UNL     1       0.710   3.050  20.041  0.00  0.00    +0.000 A 
ATOM     25  C   UNL     1       0.905   2.340  18.878  0.00  0.00    +0.000 A 
ATOM     26  S   UNL     1       2.390   2.735  18.129  0.00  0.00    +0.000 S 
ENDBRANCH  21  22
ENDBRANCH  19  21
ENDBRANCH  18  19
ENDBRANCH   1  18
TORSDOF 7
ENDMDL
