MODEL 1
REMARK VINA RESULT:      -7.4      0.000      0.000
REMARK  Name = 
REMARK  8 active torsions:
REMARK  status: ('A' for Active; 'I' for Inactive)
REMARK    1  A    between atoms: C_1  and  N_2
REMARK    2  A    between atoms: N_2  and  C_3
REMARK    3  A    between atoms: N_2  and  C_16
REMARK    4  A    between atoms: C_3  and  C_4
REMARK    5  A    between atoms: C_4  and  O_5
REMARK    6  A    between atoms: O_5  and  N_6
REMARK    7  A    between atoms: C_13  and  C_14
REMARK    8  A    between atoms: C_13  and  C_15
REMARK                            x       y       z     vdW  Elec       q    Type
REMARK                         _______ _______ _______ _____ _____    ______ ____
ROOT
ATOM      1  N   UNL     1       2.975   5.035  18.887  0.00  0.00    +0.000 N 
ATOM      2  C   UNL     1       2.565   5.573  20.132  0.00  0.00    +0.000 C 
ATOM      3  N   UNL     1       2.396   6.831  20.290  0.00  0.00    +0.000 NA
ATOM      4  N   UNL     1       2.333   4.804  21.204  0.00  0.00    +0.000 NA
ATOM      5  C   UNL     1       2.130   3.562  21.032  0.00  0.00    +0.000 C 
ATOM      6  N   UNL     1       1.827   2.723  22.043  0.00  0.00    +0.000 N 
ATOM      7  N   UNL     1       2.204   2.926  19.810  0.00  0.00    +0.000 N 
ATOM      8  C   UNL     1       2.683   3.628  18.642  0.00  0.00    +0.000 C 
ATOM      9  C   UNL     1       1.586   3.524  17.580  0.00  0.00    +0.000 C 
ATOM     10  C   UNL     1       3.954   2.917  18.179  0.00  0.00    +0.000 C 
ATOM     11  H   UNL     1       2.545   7.331  19.417  0.00  0.00    +0.000 HD
ATOM     12  H   UNL     1       1.643   3.217  22.913  0.00  0.00    +0.000 HD
ATOM     13  H   UNL     1       1.129   2.009  21.879  0.00  0.00    +0.000 HD
ATOM     14  H   UNL     1       2.054   1.927  19.756  0.00  0.00    +0.000 HD
ENDROOT
BRANCH   1  15
ATOM     15  O   UNL     1       3.374   5.874  17.813  0.00  0.00    +0.000 OA
BRANCH  15  16
ATOM     16  C   UNL     1       4.810   5.994  17.772  0.00  0.00    +0.000 C 
BRANCH  16  17
ATOM     17  C   UNL     1       5.259   6.191  16.317  0.00  0.00    +0.000 C 
BRANCH  17  19
ATOM     18  C   UNL     1       7.114   4.680  17.080  0.00  0.00    +0.000 C 
ATOM     19  N   UNL     1       6.447   5.392  15.992  0.00  0.00    +0.000 N 
BRANCH  19  20
ATOM     20  C   UNL     1       6.559   4.899  14.691  0.00  0.00    +0.000 A 
ATOM     21  C   UNL     1       5.677   3.946  14.160  0.00  0.00    +0.000 A 
ATOM     22  C   UNL     1       5.803   3.481  12.845  0.00  0.00    +0.000 A 
ATOM     23  C   UNL     1       6.830   3.949  12.035  0.00  0.00    +0.000 A 
ATOM     24  C   UNL     1       7.727   4.884  12.538  0.00  0.00    +0.000 A 
ATOM     25  C   UNL     1       7.587   5.354  13.849  0.00  0.00    +0.000 A 
ENDBRANCH  19  20
ENDBRANCH  17  19
ENDBRANCH  16  17
ENDBRANCH  15  16
ENDBRANCH   1  15
TORSDOF 5
ENDMDL
MODEL 2
REMARK VINA RESULT:      -7.4      0.069      1.048
REMARK  Name = 
REMARK  8 active torsions:
REMARK  status: ('A' for Active; 'I' for Inactive)
REMARK    1  A    between atoms: C_1  and  N_2
REMARK    2  A    between atoms: N_2  and  C_3
REMARK    3  A    between atoms: N_2  and  C_16
REMARK    4  A    between atoms: C_3  and  C_4
REMARK    5  A    between atoms: C_4  and  O_5
REMARK    6  A    between atoms: O_5  and  N_6
REMARK    7  A    between atoms: C_13  and  C_14
REMARK    8  A    between atoms: C_13  and  C_15
REMARK                            x       y       z     vdW  Elec       q    Type
REMARK                         _______ _______ _______ _____ _____    ______ ____
ROOT
ATOM      1  N   UNL     1       2.972   5.048  18.882  0.00  0.00    +0.000 N 
ATOM      2  C   UNL     1       2.527   5.606  20.106  0.00  0.00    +0.000 C 
ATOM      3  N   UNL     1       2.345   6.866  20.236  0.00  0.00    +0.000 NA
ATOM      4  N   UNL     1       2.274   4.856  21.186  0.00  0.00    +0.000 NA
ATOM      5  C   UNL     1       2.084   3.610  21.033  0.00  0.00    +0.000 C 
ATOM      6  N   UNL     1       1.762   2.787  22.052  0.00  0.00    +0.000 N 
ATOM      7  N   UNL     1       2.194   2.952  19.825  0.00  0.00    +0.000 N 
ATOM      8  C   UNL     1       2.696   3.635  18.656  0.00  0.00    +0.000 C 
ATOM      9  C   UNL     1       1.626   3.503  17.569  0.00  0.00    +0.000 C 
ATOM     10  C   UNL     1       3.983   2.925  18.238  0.00  0.00    +0.000 C 
ATOM     11  H   UNL     1       2.512   7.350  19.357  0.00  0.00    +0.000 HD
ATOM     12  H   UNL     1       1.553   3.296  22.907  0.00  0.00    +0.000 HD
ATOM     13  H   UNL     1       1.074   2.065  21.884  0.00  0.00    +0.000 HD
ATOM     14  H   UNL     1       2.051   1.950  19.786  0.00  0.00    +0.000 HD
ENDROOT
BRANCH   1  15
ATOM     15  O   UNL     1       3.392   5.870  17.803  0.00  0.00    +0.000 OA
BRANCH  15  16
ATOM     16  C   UNL     1       4.829   5.981  17.780  0.00  0.00    +0.000 C 
BRANCH  16  17
ATOM     17  C   UNL     1       5.296   6.208  16.335  0.00  0.00    +0.000 C 
BRANCH  17  19
ATOM     18  C   UNL     1       7.172   4.728  17.107  0.00  0.00    +0.000 C 
ATOM     19  N   UNL     1       6.505   5.438  16.018  0.00  0.00    +0.000 N 
BRANCH  19  20
ATOM     20  C   UNL     1       6.643   4.961  14.714  0.00  0.00    +0.000 A 
ATOM     21  C   UNL     1       7.644   5.413  13.840  0.00  0.00    +0.000 A 
ATOM     22  C   UNL     1       7.769   4.904  12.541  0.00  0.00    +0.000 A 
ATOM     23  C   UNL     1       6.881   3.940  12.081  0.00  0.00    +0.000 A 
ATOM     24  C   UNL     1       5.870   3.484  12.919  0.00  0.00    +0.000 A 
ATOM     25  C   UNL     1       5.760   3.987  14.220  0.00  0.00    +0.000 A 
ENDBRANCH  19  20
ENDBRANCH  17  19
ENDBRANCH  16  17
ENDBRANCH  15  16
ENDBRANCH   1  15
TORSDOF 5
ENDMDL
MODEL 3
REMARK VINA RESULT:      -7.3      1.731      3.540
REMARK  Name = 
REMARK  8 active torsions:
REMARK  status: ('A' for Active; 'I' for Inactive)
REMARK    1  A    between atoms: C_1  and  N_2
REMARK    2  A    between atoms: N_2  and  C_3
REMARK    3  A    between atoms: N_2  and  C_16
REMARK    4  A    between atoms: C_3  and  C_4
REMARK    5  A    between atoms: C_4  and  O_5
REMARK    6  A    between atoms: O_5  and  N_6
REMARK    7  A    between atoms: C_13  and  C_14
REMARK    8  A    between atoms: C_13  and  C_15
REMARK                            x       y       z     vdW  Elec       q    Type
REMARK                         _______ _______ _______ _____ _____    ______ ____
ROOT
ATOM      1  N   UNL     1       3.543   4.242  18.738  0.00  0.00    +0.000 N 
ATOM      2  C   UNL     1       3.948   3.224  19.636  0.00  0.00    +0.000 C 
ATOM      3  N   UNL     1       5.169   2.849  19.711  0.00  0.00    +0.000 NA
ATOM      4  N   UNL     1       3.086   2.602  20.452  0.00  0.00    +0.000 NA
ATOM      5  C   UNL     1       1.967   3.153  20.690  0.00  0.00    +0.000 C 
ATOM      6  N   UNL     1       1.063   2.633  21.545  0.00  0.00    +0.000 N 
ATOM      7  N   UNL     1       1.539   4.326  20.104  0.00  0.00    +0.000 N 
ATOM      8  C   UNL     1       2.298   4.937  19.037  0.00  0.00    +0.000 C 
ATOM      9  C   UNL     1       2.618   6.366  19.479  0.00  0.00    +0.000 C 
ATOM     10  C   UNL     1       1.405   4.940  17.796  0.00  0.00    +0.000 C 
ATOM     11  H   UNL     1       5.759   3.405  19.097  0.00  0.00    +0.000 HD
ATOM     12  H   UNL     1       1.436   1.846  22.071  0.00  0.00    +0.000 HD
ATOM     13  H   UNL     1       0.560   3.267  22.152  0.00  0.00    +0.000 HD
ATOM     14  H   UNL     1       0.622   4.692  20.326  0.00  0.00    +0.000 HD
ENDROOT
BRANCH   1  15
ATOM     15  O   UNL     1       4.436   4.772  17.769  0.00  0.00    +0.000 OA
BRANCH  15  16
ATOM     16  C   UNL     1       4.328   4.044  16.530  0.00  0.00    +0.000 C 
BRANCH  16  17
ATOM     17  C   UNL     1       5.680   3.391  16.207  0.00  0.00    +0.000 C 
BRANCH  17  19
ATOM     18  C   UNL     1       6.737   4.808  14.424  0.00  0.00    +0.000 C 
ATOM     19  N   UNL     1       6.694   4.380  15.821  0.00  0.00    +0.000 N 
BRANCH  19  20
ATOM     20  C   UNL     1       7.161   5.247  16.809  0.00  0.00    +0.000 A 
ATOM     21  C   UNL     1       7.650   4.799  18.045  0.00  0.00    +0.000 A 
ATOM     22  C   UNL     1       8.129   5.691  19.013  0.00  0.00    +0.000 A 
ATOM     23  C   UNL     1       8.111   7.059  18.770  0.00  0.00    +0.000 A 
ATOM     24  C   UNL     1       7.618   7.534  17.560  0.00  0.00    +0.000 A 
ATOM     25  C   UNL     1       7.155   6.635  16.593  0.00  0.00    +0.000 A 
ENDBRANCH  19  20
ENDBRANCH  17  19
ENDBRANCH  16  17
ENDBRANCH  15  16
ENDBRANCH   1  15
TORSDOF 5
ENDMDL
MODEL 4
REMARK VINA RESULT:      -7.2      1.725      3.583
REMARK  Name = 
REMARK  8 active torsions:
REMARK  status: ('A' for Active; 'I' for Inactive)
REMARK    1  A    between atoms: C_1  and  N_2
REMARK    2  A    between atoms: N_2  and  C_3
REMARK    3  A    between atoms: N_2  and  C_16
REMARK    4  A    between atoms: C_3  and  C_4
REMARK    5  A    between atoms: C_4  and  O_5
REMARK    6  A    between atoms: O_5  and  N_6
REMARK    7  A    between atoms: C_13  and  C_14
REMARK    8  A    between atoms: C_13  and  C_15
REMARK                            x       y       z     vdW  Elec       q    Type
REMARK                         _______ _______ _______ _____ _____    ______ ____
ROOT
ATOM      1  N   UNL     1       3.513   4.241  18.730  0.00  0.00    +0.000 N 
ATOM      2  C   UNL     1       3.931   3.237  19.637  0.00  0.00    +0.000 C 
ATOM      3  N   UNL     1       5.158   2.883  19.721  0.00  0.00    +0.000 NA
ATOM      4  N   UNL     1       3.075   2.605  20.452  0.00  0.00    +0.000 NA
ATOM      5  C   UNL     1       1.945   3.137  20.681  0.00  0.00    +0.000 C 
ATOM      6  N   UNL     1       1.046   2.607  21.535  0.00  0.00    +0.000 N 
ATOM      7  N   UNL     1       1.500   4.299  20.085  0.00  0.00    +0.000 N 
ATOM      8  C   UNL     1       2.253   4.916  19.018  0.00  0.00    +0.000 C 
ATOM      9  C   UNL     1       2.546   6.353  19.452  0.00  0.00    +0.000 C 
ATOM     10  C   UNL     1       1.368   4.895  17.773  0.00  0.00    +0.000 C 
ATOM     11  H   UNL     1       5.741   3.446  19.106  0.00  0.00    +0.000 HD
ATOM     12  H   UNL     1       1.431   1.830  22.068  0.00  0.00    +0.000 HD
ATOM     13  H   UNL     1       0.529   3.236  22.135  0.00  0.00    +0.000 HD
ATOM     14  H   UNL     1       0.575   4.650  20.300  0.00  0.00    +0.000 HD
ENDROOT
BRANCH   1  15
ATOM     15  O   UNL     1       4.401   4.780  17.762  0.00  0.00    +0.000 OA
BRANCH  15  16
ATOM     16  C   UNL     1       4.306   4.048  16.524  0.00  0.00    +0.000 C 
BRANCH  16  17
ATOM     17  C   UNL     1       5.662   3.396  16.217  0.00  0.00    +0.000 C 
BRANCH  17  19
ATOM     18  C   UNL     1       6.694   4.781  14.395  0.00  0.00    +0.000 C 
ATOM     19  N   UNL     1       6.668   4.380  15.800  0.00  0.00    +0.000 N 
BRANCH  19  20
ATOM     20  C   UNL     1       7.143   5.268  16.767  0.00  0.00    +0.000 A 
ATOM     21  C   UNL     1       7.151   6.659  16.585  0.00  0.00    +0.000 A 
ATOM     22  C   UNL     1       7.619   7.527  17.580  0.00  0.00    +0.000 A 
ATOM     23  C   UNL     1       8.107   7.018  18.776  0.00  0.00    +0.000 A 
ATOM     24  C   UNL     1       8.125   5.642  18.980  0.00  0.00    +0.000 A 
ATOM     25  C   UNL     1       7.643   4.783  17.986  0.00  0.00    +0.000 A 
ENDBRANCH  19  20
ENDBRANCH  17  19
ENDBRANCH  16  17
ENDBRANCH  15  16
ENDBRANCH   1  15
TORSDOF 5
ENDMDL
MODEL 5
REMARK VINA RESULT:      -7.1      1.562      3.622
REMARK  Name = 
REMARK  8 active torsions:
REMARK  status: ('A' for Active; 'I' for Inactive)
REMARK    1  A    between atoms: C_1  and  N_2
REMARK    2  A    between atoms: N_2  and  C_3
REMARK    3  A    between atoms: N_2  and  C_16
REMARK    4  A    between atoms: C_3  and  C_4
REMARK    5  A    between atoms: C_4  and  O_5
REMARK    6  A    between atoms: O_5  and  N_6
REMARK    7  A    between atoms: C_13  and  C_14
REMARK    8  A    between atoms: C_13  and  C_15
REMARK                            x       y       z     vdW  Elec       q    Type
REMARK                         _______ _______ _______ _____ _____    ______ ____
ROOT
ATOM      1  N   UNL     1       2.693   3.942  18.474  0.00  0.00    +0.000 N 
ATOM      2  C   UNL     1       2.297   2.609  18.742  0.00  0.00    +0.000 C 
ATOM      3  N   UNL     1       2.413   1.688  17.861  0.00  0.00    +0.000 NA
ATOM      4  N   UNL     1       1.783   2.237  19.923  0.00  0.00    +0.000 NA
ATOM      5  C   UNL     1       1.971   2.984  20.932  0.00  0.00    +0.000 C 
ATOM      6  N   UNL     1       1.546   2.661  22.171  0.00  0.00    +0.000 N 
ATOM      7  N   UNL     1       2.613   4.204  20.885  0.00  0.00    +0.000 N 
ATOM      8  C   UNL     1       2.986   4.793  19.620  0.00  0.00    +0.000 C 
ATOM      9  C   UNL     1       4.493   5.052  19.676  0.00  0.00    +0.000 C 
ATOM     10  C   UNL     1       2.214   6.106  19.490  0.00  0.00    +0.000 C 
ATOM     11  H   UNL     1       2.856   2.047  17.018  0.00  0.00    +0.000 HD
ATOM     12  H   UNL     1       1.195   1.708  22.222  0.00  0.00    +0.000 HD
ATOM     13  H   UNL     1       2.154   2.866  22.953  0.00  0.00    +0.000 HD
ATOM     14  H   UNL     1       2.703   4.755  21.729  0.00  0.00    +0.000 HD
ENDROOT
BRANCH   1  15
ATOM     15  O   UNL     1       3.080   4.351  17.170  0.00  0.00    +0.000 OA
BRANCH  15  16
ATOM     16  C   UNL     1       4.373   3.810  16.833  0.00  0.00    +0.000 C 
BRANCH  16  17
ATOM     17  C   UNL     1       4.908   4.522  15.582  0.00  0.00    +0.000 C 
BRANCH  17  19
ATOM     18  C   UNL     1       7.079   4.618  14.324  0.00  0.00    +0.000 C 
ATOM     19  N   UNL     1       6.370   4.649  15.602  0.00  0.00    +0.000 N 
BRANCH  19  20
ATOM     20  C   UNL     1       6.946   5.325  16.679  0.00  0.00    +0.000 A 
ATOM     21  C   UNL     1       7.538   4.663  17.765  0.00  0.00    +0.000 A 
ATOM     22  C   UNL     1       8.122   5.368  18.824  0.00  0.00    +0.000 A 
ATOM     23  C   UNL     1       8.111   6.757  18.828  0.00  0.00    +0.000 A 
ATOM     24  C   UNL     1       7.519   7.441  17.772  0.00  0.00    +0.000 A 
ATOM     25  C   UNL     1       6.949   6.730  16.711  0.00  0.00    +0.000 A 
ENDBRANCH  19  20
ENDBRANCH  17  19
ENDBRANCH  16  17
ENDBRANCH  15  16
ENDBRANCH   1  15
TORSDOF 5
ENDMDL
MODEL 6
REMARK VINA RESULT:      -7.1      2.676      6.655
REMARK  Name = 
REMARK  8 active torsions:
REMARK  status: ('A' for Active; 'I' for Inactive)
REMARK    1  A    between atoms: C_1  and  N_2
REMARK    2  A    between atoms: N_2  and  C_3
REMARK    3  A    between atoms: N_2  and  C_16
REMARK    4  A    between atoms: C_3  and  C_4
REMARK    5  A    between atoms: C_4  and  O_5
REMARK    6  A    between atoms: O_5  and  N_6
REMARK    7  A    between atoms: C_13  and  C_14
REMARK    8  A    between atoms: C_13  and  C_15
REMARK                            x       y       z     vdW  Elec       q    Type
REMARK                         _______ _______ _______ _____ _____    ______ ____
ROOT
ATOM      1  N   UNL     1       6.502   5.129  18.234  0.00  0.00    +0.000 N 
ATOM      2  C   UNL     1       7.376   5.836  19.095  0.00  0.00    +0.000 C 
ATOM      3  N   UNL     1       7.793   5.322  20.190  0.00  0.00    +0.000 NA
ATOM      4  N   UNL     1       7.812   7.073  18.817  0.00  0.00    +0.000 NA
ATOM      5  C   UNL     1       7.740   7.489  17.619  0.00  0.00    +0.000 C 
ATOM      6  N   UNL     1       8.211   8.693  17.234  0.00  0.00    +0.000 N 
ATOM      7  N   UNL     1       7.170   6.779  16.584  0.00  0.00    +0.000 N 
ATOM      8  C   UNL     1       6.462   5.545  16.837  0.00  0.00    +0.000 C 
ATOM      9  C   UNL     1       7.123   4.467  15.976  0.00  0.00    +0.000 C 
ATOM     10  C   UNL     1       5.010   5.764  16.412  0.00  0.00    +0.000 C 
ATOM     11  H   UNL     1       7.454   4.369  20.296  0.00  0.00    +0.000 HD
ATOM     12  H   UNL     1       8.746   9.151  17.968  0.00  0.00    +0.000 HD
ATOM     13  H   UNL     1       8.689   8.756  16.344  0.00  0.00    +0.000 HD
ATOM     14  H   UNL     1       7.127   7.188  15.658  0.00  0.00    +0.000 HD
ENDROOT
BRANCH   1  15
ATOM     15  O   UNL     1       5.921   3.892  18.621  0.00  0.00    +0.000 OA
BRANCH  15  16
ATOM     16  C   UNL     1       4.503   4.042  18.828  0.00  0.00    +0.000 C 
BRANCH  16  17
ATOM     17  C   UNL     1       4.244   5.304  19.664  0.00  0.00    +0.000 C 
BRANCH  17  19
ATOM     18  C   UNL     1       2.104   4.759  20.860  0.00  0.00    +0.000 C 
ATOM     19  N   UNL     1       2.811   5.555  19.858  0.00  0.00    +0.000 N 
BRANCH  19  20
ATOM     20  C   UNL     1       2.327   6.824  19.538  0.00  0.00    +0.000 A 
ATOM     21  C   UNL     1       1.705   7.661  20.476  0.00  0.00    +0.000 A 
ATOM     22  C   UNL     1       1.245   8.938  20.130  0.00  0.00    +0.000 A 
ATOM     23  C   UNL     1       1.381   9.399  18.827  0.00  0.00    +0.000 A 
ATOM     24  C   UNL     1       1.981   8.586  17.871  0.00  0.00    +0.000 A 
ATOM     25  C   UNL     1       2.451   7.318  18.228  0.00  0.00    +0.000 A 
ENDBRANCH  19  20
ENDBRANCH  17  19
ENDBRANCH  16  17
ENDBRANCH  15  16
ENDBRANCH   1  15
TORSDOF 5
ENDMDL
MODEL 7
REMARK VINA RESULT:      -7.0      1.589      3.718
REMARK  Name = 
REMARK  8 active torsions:
REMARK  status: ('A' for Active; 'I' for Inactive)
REMARK    1  A    between atoms: C_1  and  N_2
REMARK    2  A    between atoms: N_2  and  C_3
REMARK    3  A    between atoms: N_2  and  C_16
REMARK    4  A    between atoms: C_3  and  C_4
REMARK    5  A    between atoms: C_4  and  O_5
REMARK    6  A    between atoms: O_5  and  N_6
REMARK    7  A    between atoms: C_13  and  C_14
REMARK    8  A    between atoms: C_13  and  C_15
REMARK                            x       y       z     vdW  Elec       q    Type
REMARK                         _______ _______ _______ _____ _____    ______ ____
ROOT
ATOM      1  N   UNL     1       2.553   3.984  18.554  0.00  0.00    +0.000 N 
ATOM      2  C   UNL     1       2.182   2.641  18.807  0.00  0.00    +0.000 C 
ATOM      3  N   UNL     1       2.265   1.744  17.898  0.00  0.00    +0.000 NA
ATOM      4  N   UNL     1       1.726   2.236  20.000  0.00  0.00    +0.000 NA
ATOM      5  C   UNL     1       1.954   2.960  21.018  0.00  0.00    +0.000 C 
ATOM      6  N   UNL     1       1.589   2.603  22.266  0.00  0.00    +0.000 N 
ATOM      7  N   UNL     1       2.583   4.186  20.972  0.00  0.00    +0.000 N 
ATOM      8  C   UNL     1       2.892   4.810  19.706  0.00  0.00    +0.000 C 
ATOM      9  C   UNL     1       4.398   5.083  19.700  0.00  0.00    +0.000 C 
ATOM     10  C   UNL     1       2.104   6.118  19.645  0.00  0.00    +0.000 C 
ATOM     11  H   UNL     1       2.665   2.127  17.045  0.00  0.00    +0.000 HD
ATOM     12  H   UNL     1       1.249   1.645  22.310  0.00  0.00    +0.000 HD
ATOM     13  H   UNL     1       2.231   2.794  23.025  0.00  0.00    +0.000 HD
ATOM     14  H   UNL     1       2.707   4.718  21.825  0.00  0.00    +0.000 HD
ENDROOT
BRANCH   1  15
ATOM     15  O   UNL     1       2.876   4.429  17.244  0.00  0.00    +0.000 OA
BRANCH  15  16
ATOM     16  C   UNL     1       4.139   3.877  16.820  0.00  0.00    +0.000 C 
BRANCH  16  17
ATOM     17  C   UNL     1       4.786   4.823  15.798  0.00  0.00    +0.000 C 
BRANCH  17  19
ATOM     18  C   UNL     1       6.959   4.471  14.590  0.00  0.00    +0.000 C 
ATOM     19  N   UNL     1       6.252   4.759  15.836  0.00  0.00    +0.000 N 
BRANCH  19  20
ATOM     20  C   UNL     1       6.904   5.485  16.833  0.00  0.00    +0.000 A 
ATOM     21  C   UNL     1       7.021   6.883  16.804  0.00  0.00    +0.000 A 
ATOM     22  C   UNL     1       7.667   7.588  17.827  0.00  0.00    +0.000 A 
ATOM     23  C   UNL     1       8.230   6.904  18.897  0.00  0.00    +0.000 A 
ATOM     24  C   UNL     1       8.143   5.517  18.946  0.00  0.00    +0.000 A 
ATOM     25  C   UNL     1       7.483   4.821  17.927  0.00  0.00    +0.000 A 
ENDBRANCH  19  20
ENDBRANCH  17  19
ENDBRANCH  16  17
ENDBRANCH  15  16
ENDBRANCH   1  15
TORSDOF 5
ENDMDL
MODEL 8
REMARK VINA RESULT:      -7.0      3.446      7.284
REMARK  Name = 
REMARK  8 active torsions:
REMARK  status: ('A' for Active; 'I' for Inactive)
REMARK    1  A    between atoms: C_1  and  N_2
REMARK    2  A    between atoms: N_2  and  C_3
REMARK    3  A    between atoms: N_2  and  C_16
REMARK    4  A    between atoms: C_3  and  C_4
REMARK    5  A    between atoms: C_4  and  O_5
REMARK    6  A    between atoms: O_5  and  N_6
REMARK    7  A    between atoms: C_13  and  C_14
REMARK    8  A    between atoms: C_13  and  C_15
REMARK                            x       y       z     vdW  Elec       q    Type
REMARK                         _______ _______ _______ _____ _____    ______ ____
ROOT
ATOM      1  N   UNL     1       3.218   4.730  18.653  0.00  0.00    +0.000 N 
ATOM      2  C   UNL     1       2.577   3.818  19.527  0.00  0.00    +0.000 C 
ATOM      3  N   UNL     1       1.306   3.825  19.682  0.00  0.00    +0.000 NA
ATOM      4  N   UNL     1       3.255   2.906  20.236  0.00  0.00    +0.000 NA
ATOM      5  C   UNL     1       4.434   2.605  19.873  0.00  0.00    +0.000 C 
ATOM      6  N   UNL     1       5.168   1.654  20.486  0.00  0.00    +0.000 N 
ATOM      7  N   UNL     1       5.103   3.210  18.830  0.00  0.00    +0.000 N 
ATOM      8  C   UNL     1       4.542   4.365  18.166  0.00  0.00    +0.000 C 
ATOM      9  C   UNL     1       4.449   4.020  16.677  0.00  0.00    +0.000 C 
ATOM     10  C   UNL     1       5.507   5.527  18.394  0.00  0.00    +0.000 C 
ATOM     11  H   UNL     1       0.870   4.512  19.071  0.00  0.00    +0.000 HD
ATOM     12  H   UNL     1       4.625   1.123  21.163  0.00  0.00    +0.000 HD
ATOM     13  H   UNL     1       5.731   1.040  19.912  0.00  0.00    +0.000 HD
ATOM     14  H   UNL     1       6.052   2.933  18.614  0.00  0.00    +0.000 HD
ENDROOT
BRANCH   1  15
ATOM     15  O   UNL     1       2.504   5.793  18.038  0.00  0.00    +0.000 OA
BRANCH  15  16
ATOM     16  C   UNL     1       2.943   7.064  18.558  0.00  0.00    +0.000 C 
BRANCH  16  17
ATOM     17  C   UNL     1       2.000   7.500  19.689  0.00  0.00    +0.000 C 
BRANCH  17  19
ATOM     18  C   UNL     1       1.349   9.389  18.168  0.00  0.00    +0.000 C 
ATOM     19  N   UNL     1       1.546   8.886  19.526  0.00  0.00    +0.000 N 
BRANCH  19  20
ATOM     20  C   UNL     1       0.815   9.453  20.571  0.00  0.00    +0.000 A 
ATOM     21  C   UNL     1       0.391  10.790  20.566  0.00  0.00    +0.000 A 
ATOM     22  C   UNL     1      -0.356  11.328  21.621  0.00  0.00    +0.000 A 
ATOM     23  C   UNL     1      -0.682  10.540  22.718  0.00  0.00    +0.000 A 
ATOM     24  C   UNL     1      -0.264   9.215  22.758  0.00  0.00    +0.000 A 
ATOM     25  C   UNL     1       0.470   8.681  21.693  0.00  0.00    +0.000 A 
ENDBRANCH  19  20
ENDBRANCH  17  19
ENDBRANCH  16  17
ENDBRANCH  15  16
ENDBRANCH   1  15
TORSDOF 5
ENDMDL
MODEL 9
REMARK VINA RESULT:      -7.0      0.815      1.494
REMARK  Name = 
REMARK  8 active torsions:
REMARK  status: ('A' for Active; 'I' for Inactive)
REMARK    1  A    between atoms: C_1  and  N_2
REMARK    2  A    between atoms: N_2  and  C_3
REMARK    3  A    between atoms: N_2  and  C_16
REMARK    4  A    between atoms: C_3  and  C_4
REMARK    5  A    between atoms: C_4  and  O_5
REMARK    6  A    between atoms: O_5  and  N_6
REMARK    7  A    between atoms: C_13  and  C_14
REMARK    8  A    between atoms: C_13  and  C_15
REMARK                            x       y       z     vdW  Elec       q    Type
REMARK                         _______ _______ _______ _____ _____    ______ ____
ROOT
ATOM      1  N   UNL     1       3.177   4.111  19.110  0.00  0.00    +0.000 N 
ATOM      2  C   UNL     1       2.803   4.878  20.241  0.00  0.00    +0.000 C 
ATOM      3  N   UNL     1       2.888   6.155  20.237  0.00  0.00    +0.000 NA
ATOM      4  N   UNL     1       2.344   4.317  21.368  0.00  0.00    +0.000 NA
ATOM      5  C   UNL     1       1.900   3.128  21.321  0.00  0.00    +0.000 C 
ATOM      6  N   UNL     1       1.362   2.506  22.389  0.00  0.00    +0.000 N 
ATOM      7  N   UNL     1       1.925   2.335  20.193  0.00  0.00    +0.000 N 
ATOM      8  C   UNL     1       2.617   2.769  19.001  0.00  0.00    +0.000 C 
ATOM      9  C   UNL     1       1.598   2.745  17.860  0.00  0.00    +0.000 C 
ATOM     10  C   UNL     1       3.742   1.767  18.745  0.00  0.00    +0.000 C 
ATOM     11  H   UNL     1       3.197   6.496  19.330  0.00  0.00    +0.000 HD
ATOM     12  H   UNL     1       1.225   3.136  23.175  0.00  0.00    +0.000 HD
ATOM     13  H   UNL     1       0.545   1.928  22.243  0.00  0.00    +0.000 HD
ATOM     14  H   UNL     1       1.574   1.387  20.239  0.00  0.00    +0.000 HD
ENDROOT
BRANCH   1  15
ATOM     15  O   UNL     1       3.814   4.706  17.989  0.00  0.00    +0.000 OA
BRANCH  15  16
ATOM     16  C   UNL     1       5.240   4.761  18.188  0.00  0.00    +0.000 C 
BRANCH  16  17
ATOM     17  C   UNL     1       5.948   4.301  16.905  0.00  0.00    +0.000 C 
BRANCH  17  19
ATOM     18  C   UNL     1       5.294   6.549  15.995  0.00  0.00    +0.000 C 
ATOM     19  N   UNL     1       5.603   5.141  15.752  0.00  0.00    +0.000 N 
BRANCH  19  20
ATOM     20  C   UNL     1       6.104   4.764  14.505  0.00  0.00    +0.000 A 
ATOM     21  C   UNL     1       7.298   5.278  13.977  0.00  0.00    +0.000 A 
ATOM     22  C   UNL     1       7.786   4.869  12.730  0.00  0.00    +0.000 A 
ATOM     23  C   UNL     1       7.076   3.945  11.972  0.00  0.00    +0.000 A 
ATOM     24  C   UNL     1       5.882   3.429  12.463  0.00  0.00    +0.000 A 
ATOM     25  C   UNL     1       5.409   3.833  13.716  0.00  0.00    +0.000 A 
ENDBRANCH  19  20
ENDBRANCH  17  19
ENDBRANCH  16  17
ENDBRANCH  15  16
ENDBRANCH   1  15
TORSDOF 5
ENDMDL
