MODEL 1
REMARK VINA RESULT:      -9.6      0.000      0.000
REMARK  Name = 
REMARK  5 active torsions:
REMARK  status: ('A' for Active; 'I' for Inactive)
REMARK    1  A    between atoms: C_1  and  C_2
REMARK    2  A    between atoms: C_13  and  N_14
REMARK    3  A    between atoms: N_14  and  C_15
REMARK    4  A    between atoms: C_18  and  N_19
REMARK    5  A    between atoms: N_22  and  C_23
REMARK                            x       y       z     vdW  Elec       q    Type
REMARK                         _______ _______ _______ _____ _____    ______ ____
ROOT
ATOM      1  C   UNL     1       2.198   7.761  18.318  0.00  0.00    +0.000 A 
ATOM      2  C   UNL     1       1.741   8.979  17.825  0.00  0.00    +0.000 A 
ATOM      3  C   UNL     1       1.283   9.958  18.704  0.00  0.00    +0.000 A 
ATOM      4  C   UNL     1       1.180   9.725  20.082  0.00  0.00    +0.000 A 
ATOM      5  C   UNL     1       1.476   8.444  20.549  0.00  0.00    +0.000 A 
ATOM      6  C   UNL     1       1.969   7.465  19.668  0.00  0.00    +0.000 A 
ENDROOT
BRANCH   4   7
ATOM      7  N   UNL     1       0.830  10.749  21.006  0.00  0.00    +0.000 N 
ATOM      8  C   UNL     1      -0.466  11.160  21.220  0.00  0.00    +0.000 C 
ATOM      9  O   UNL     1      -1.423  10.583  20.708  0.00  0.00    +0.000 OA
ATOM     10  N   UNL     1      -0.612  12.264  22.042  0.00  0.00    +0.000 N 
ATOM     11  H   UNL     1       1.553  11.102  21.618  0.00  0.00    +0.000 HD
ATOM     12  H   UNL     1       0.173  12.886  22.118  0.00  0.00    +0.000 HD
BRANCH  10  13
ATOM     13  C   UNL     1      -1.900  12.811  22.315  0.00  0.00    +0.000 A 
ATOM     14  C   UNL     1      -2.408  13.912  21.601  0.00  0.00    +0.000 A 
ATOM     15  C   UNL     1      -3.519  14.619  22.044  0.00  0.00    +0.000 A 
ATOM     16  C   UNL     1      -4.206  14.174  23.164  0.00  0.00    +0.000 A 
ATOM     17 CL   UNL     1      -5.526  15.093  23.766  0.00  0.00    +0.000 Cl
ATOM     18  C   UNL     1      -3.808  12.996  23.802  0.00  0.00    +0.000 A 
ATOM     19  C   UNL     1      -2.661  12.311  23.379  0.00  0.00    +0.000 A 
ENDBRANCH  10  13
ENDBRANCH   4   7
BRANCH   1  20
ATOM     20  N   UNL     1       2.976   6.900  17.515  0.00  0.00    +0.000 N 
ATOM     21  H   UNL     1       2.588   6.742  16.589  0.00  0.00    +0.000 HD
BRANCH  20  34
ATOM     22  C   UNL     1       8.016   8.396  17.527  0.00  0.00    +0.000 C 
ATOM     23  C   UNL     1       7.268   7.161  17.935  0.00  0.00    +0.000 A 
ATOM     24  C   UNL     1       7.936   6.066  18.471  0.00  0.00    +0.000 A 
ATOM     25  C   UNL     1       7.219   4.926  18.839  0.00  0.00    +0.000 A 
ATOM     26  C   UNL     1       5.846   4.834  18.672  0.00  0.00    +0.000 A 
ATOM     27  N   UNL     1       5.255   3.700  19.065  0.00  0.00    +0.000 NA
ATOM     28  C   UNL     1       3.943   3.531  18.858  0.00  0.00    +0.000 A 
ATOM     29  C   UNL     1       3.373   2.343  19.301  0.00  0.00    +0.000 A 
ATOM     30  C   UNL     1       2.023   2.049  19.115  0.00  0.00    +0.000 A 
ATOM     31  C   UNL     1       1.236   2.928  18.392  0.00  0.00    +0.000 A 
ATOM     32  C   UNL     1       1.799   4.113  17.922  0.00  0.00    +0.000 A 
ATOM     33  C   UNL     1       3.135   4.493  18.228  0.00  0.00    +0.000 A 
ATOM     34  C   UNL     1       3.739   5.764  17.953  0.00  0.00    +0.000 A 
ATOM     35  C   UNL     1       5.146   5.918  18.118  0.00  0.00    +0.000 A 
ATOM     36  C   UNL     1       5.875   7.087  17.775  0.00  0.00    +0.000 A 
ENDBRANCH  20  34
ENDBRANCH   1  20
TORSDOF 4
ENDMDL
MODEL 2
REMARK VINA RESULT:      -9.6      3.128      3.550
REMARK  Name = 
REMARK  5 active torsions:
REMARK  status: ('A' for Active; 'I' for Inactive)
REMARK    1  A    between atoms: C_1  and  C_2
REMARK    2  A    between atoms: C_13  and  N_14
REMARK    3  A    between atoms: N_14  and  C_15
REMARK    4  A    between atoms: C_18  and  N_19
REMARK    5  A    between atoms: N_22  and  C_23
REMARK                            x       y       z     vdW  Elec       q    Type
REMARK                         _______ _______ _______ _____ _____    ______ ____
ROOT
ATOM      1  C   UNL     1       2.256   7.633  19.353  0.00  0.00    +0.000 A 
ATOM      2  C   UNL     1       2.231   8.142  18.058  0.00  0.00    +0.000 A 
ATOM      3  C   UNL     1       1.621   9.367  17.804  0.00  0.00    +0.000 A 
ATOM      4  C   UNL     1       0.942  10.077  18.803  0.00  0.00    +0.000 A 
ATOM      5  C   UNL     1       0.823   9.480  20.058  0.00  0.00    +0.000 A 
ATOM      6  C   UNL     1       1.464   8.258  20.325  0.00  0.00    +0.000 A 
ENDROOT
BRANCH   4   7
ATOM      7  N   UNL     1       0.419  11.384  18.590  0.00  0.00    +0.000 N 
ATOM      8  C   UNL     1       1.060  12.529  19.005  0.00  0.00    +0.000 C 
ATOM      9  O   UNL     1       2.191  12.502  19.487  0.00  0.00    +0.000 OA
ATOM     10  N   UNL     1       0.343  13.703  18.847  0.00  0.00    +0.000 N 
ATOM     11  H   UNL     1      -0.396  11.477  18.000  0.00  0.00    +0.000 HD
ATOM     12  H   UNL     1      -0.658  13.626  18.806  0.00  0.00    +0.000 HD
BRANCH  10  13
ATOM     13  C   UNL     1       0.879  14.954  19.271  0.00  0.00    +0.000 A 
ATOM     14  C   UNL     1       1.769  15.693  18.470  0.00  0.00    +0.000 A 
ATOM     15  C   UNL     1       2.507  16.751  18.985  0.00  0.00    +0.000 A 
ATOM     16  C   UNL     1       2.293  17.156  20.295  0.00  0.00    +0.000 A 
ATOM     17 CL   UNL     1       3.264  18.405  20.962  0.00  0.00    +0.000 Cl
ATOM     18  C   UNL     1       1.307  16.531  21.064  0.00  0.00    +0.000 A 
ATOM     19  C   UNL     1       0.596  15.435  20.555  0.00  0.00    +0.000 A 
ENDBRANCH  10  13
ENDBRANCH   4   7
BRANCH   1  20
ATOM     20  N   UNL     1       3.143   6.594  19.707  0.00  0.00    +0.000 N 
ATOM     21  H   UNL     1       3.908   6.893  20.304  0.00  0.00    +0.000 HD
BRANCH  20  34
ATOM     22  C   UNL     1       7.669   7.946  17.397  0.00  0.00    +0.000 C 
ATOM     23  C   UNL     1       6.821   6.709  17.443  0.00  0.00    +0.000 A 
ATOM     24  C   UNL     1       7.203   5.556  16.764  0.00  0.00    +0.000 A 
ATOM     25  C   UNL     1       6.396   4.418  16.818  0.00  0.00    +0.000 A 
ATOM     26  C   UNL     1       5.200   4.396  17.519  0.00  0.00    +0.000 A 
ATOM     27  N   UNL     1       4.507   3.252  17.513  0.00  0.00    +0.000 NA
ATOM     28  C   UNL     1       3.311   3.199  18.112  0.00  0.00    +0.000 A 
ATOM     29  C   UNL     1       2.638   1.983  18.093  0.00  0.00    +0.000 A 
ATOM     30  C   UNL     1       1.376   1.821  18.662  0.00  0.00    +0.000 A 
ATOM     31  C   UNL     1       0.728   2.923  19.190  0.00  0.00    +0.000 A 
ATOM     32  C   UNL     1       1.381   4.155  19.195  0.00  0.00    +0.000 A 
ATOM     33  C   UNL     1       2.723   4.305  18.751  0.00  0.00    +0.000 A 
ATOM     34  C   UNL     1       3.536   5.478  18.890  0.00  0.00    +0.000 A 
ATOM     35  C   UNL     1       4.780   5.551  18.201  0.00  0.00    +0.000 A 
ATOM     36  C   UNL     1       5.620   6.695  18.169  0.00  0.00    +0.000 A 
ENDBRANCH  20  34
ENDBRANCH   1  20
TORSDOF 4
ENDMDL
MODEL 3
REMARK VINA RESULT:      -9.5      1.687      1.779
REMARK  Name = 
REMARK  5 active torsions:
REMARK  status: ('A' for Active; 'I' for Inactive)
REMARK    1  A    between atoms: C_1  and  C_2
REMARK    2  A    between atoms: C_13  and  N_14
REMARK    3  A    between atoms: N_14  and  C_15
REMARK    4  A    between atoms: C_18  and  N_19
REMARK    5  A    between atoms: N_22  and  C_23
REMARK                            x       y       z     vdW  Elec       q    Type
REMARK                         _______ _______ _______ _____ _____    ______ ____
ROOT
ATOM      1  C   UNL     1       2.269   7.388  19.746  0.00  0.00    +0.000 A 
ATOM      2  C   UNL     1       2.166   8.142  18.581  0.00  0.00    +0.000 A 
ATOM      3  C   UNL     1       1.421   9.318  18.578  0.00  0.00    +0.000 A 
ATOM      4  C   UNL     1       0.687   9.732  19.698  0.00  0.00    +0.000 A 
ATOM      5  C   UNL     1       0.655   8.883  20.805  0.00  0.00    +0.000 A 
ATOM      6  C   UNL     1       1.431   7.711  20.821  0.00  0.00    +0.000 A 
ENDROOT
BRANCH   4   7
ATOM      7  N   UNL     1       0.020  10.988  19.752  0.00  0.00    +0.000 N 
ATOM      8  C   UNL     1      -0.149  11.702  20.917  0.00  0.00    +0.000 C 
ATOM      9  O   UNL     1       0.372  11.351  21.974  0.00  0.00    +0.000 OA
ATOM     10  N   UNL     1      -0.946  12.829  20.814  0.00  0.00    +0.000 N 
ATOM     11  H   UNL     1      -0.230  11.430  18.878  0.00  0.00    +0.000 HD
ATOM     12  H   UNL     1      -1.612  12.853  20.063  0.00  0.00    +0.000 HD
BRANCH  10  13
ATOM     13  C   UNL     1      -1.229  13.635  21.956  0.00  0.00    +0.000 A 
ATOM     14  C   UNL     1      -0.414  14.722  22.322  0.00  0.00    +0.000 A 
ATOM     15  C   UNL     1      -0.516  15.323  23.570  0.00  0.00    +0.000 A 
ATOM     16  C   UNL     1      -1.511  14.908  24.445  0.00  0.00    +0.000 A 
ATOM     17 CL   UNL     1      -1.586  15.587  26.021  0.00  0.00    +0.000 Cl
ATOM     18  C   UNL     1      -2.427  13.932  24.044  0.00  0.00    +0.000 A 
ATOM     19  C   UNL     1      -2.293  13.297  22.802  0.00  0.00    +0.000 A 
ENDBRANCH  10  13
ENDBRANCH   4   7
BRANCH   1  20
ATOM     20  N   UNL     1       3.271   6.403  19.885  0.00  0.00    +0.000 N 
ATOM     21  H   UNL     1       4.108   6.734  20.355  0.00  0.00    +0.000 HD
BRANCH  20  34
ATOM     22  C   UNL     1       7.662   7.866  17.391  0.00  0.00    +0.000 C 
ATOM     23  C   UNL     1       6.793   6.643  17.395  0.00  0.00    +0.000 A 
ATOM     24  C   UNL     1       7.103   5.545  16.600  0.00  0.00    +0.000 A 
ATOM     25  C   UNL     1       6.276   4.420  16.616  0.00  0.00    +0.000 A 
ATOM     26  C   UNL     1       5.130   4.360  17.392  0.00  0.00    +0.000 A 
ATOM     27  N   UNL     1       4.412   3.232  17.341  0.00  0.00    +0.000 NA
ATOM     28  C   UNL     1       3.257   3.149  18.012  0.00  0.00    +0.000 A 
ATOM     29  C   UNL     1       2.559   1.950  17.941  0.00  0.00    +0.000 A 
ATOM     30  C   UNL     1       1.334   1.762  18.578  0.00  0.00    +0.000 A 
ATOM     31  C   UNL     1       0.746   2.827  19.237  0.00  0.00    +0.000 A 
ATOM     32  C   UNL     1       1.425   4.044  19.298  0.00  0.00    +0.000 A 
ATOM     33  C   UNL     1       2.738   4.208  18.778  0.00  0.00    +0.000 A 
ATOM     34  C   UNL     1       3.584   5.352  18.956  0.00  0.00    +0.000 A 
ATOM     35  C   UNL     1       4.781   5.460  18.192  0.00  0.00    +0.000 A 
ATOM     36  C   UNL     1       5.642   6.590  18.197  0.00  0.00    +0.000 A 
ENDBRANCH  20  34
ENDBRANCH   1  20
TORSDOF 4
ENDMDL
MODEL 4
REMARK VINA RESULT:      -9.5      2.612      2.860
REMARK  Name = 
REMARK  5 active torsions:
REMARK  status: ('A' for Active; 'I' for Inactive)
REMARK    1  A    between atoms: C_1  and  C_2
REMARK    2  A    between atoms: C_13  and  N_14
REMARK    3  A    between atoms: N_14  and  C_15
REMARK    4  A    between atoms: C_18  and  N_19
REMARK    5  A    between atoms: N_22  and  C_23
REMARK                            x       y       z     vdW  Elec       q    Type
REMARK                         _______ _______ _______ _____ _____    ______ ____
ROOT
ATOM      1  C   UNL     1       2.542   7.648  19.403  0.00  0.00    +0.000 A 
ATOM      2  C   UNL     1       1.773   8.337  20.336  0.00  0.00    +0.000 A 
ATOM      3  C   UNL     1       0.875   9.313  19.912  0.00  0.00    +0.000 A 
ATOM      4  C   UNL     1       0.781   9.698  18.569  0.00  0.00    +0.000 A 
ATOM      5  C   UNL     1       1.677   9.127  17.664  0.00  0.00    +0.000 A 
ATOM      6  C   UNL     1       2.561   8.119  18.084  0.00  0.00    +0.000 A 
ENDROOT
BRANCH   4   7
ATOM      7  N   UNL     1      -0.212  10.605  18.102  0.00  0.00    +0.000 N 
ATOM      8  C   UNL     1      -1.473  10.687  18.645  0.00  0.00    +0.000 C 
ATOM      9  O   UNL     1      -1.788  10.057  19.653  0.00  0.00    +0.000 OA
ATOM     10  N   UNL     1      -2.357  11.517  17.976  0.00  0.00    +0.000 N 
ATOM     11  H   UNL     1       0.066  11.303  17.424  0.00  0.00    +0.000 HD
ATOM     12  H   UNL     1      -2.172  11.696  17.005  0.00  0.00    +0.000 HD
BRANCH  10  13
ATOM     13  C   UNL     1      -3.705  11.661  18.416  0.00  0.00    +0.000 A 
ATOM     14  C   UNL     1      -4.047  12.462  19.521  0.00  0.00    +0.000 A 
ATOM     15  C   UNL     1      -5.298  12.381  20.122  0.00  0.00    +0.000 A 
ATOM     16  C   UNL     1      -6.269  11.563  19.562  0.00  0.00    +0.000 A 
ATOM     17 CL   UNL     1      -7.786  11.392  20.349  0.00  0.00    +0.000 Cl
ATOM     18  C   UNL     1      -5.999  10.872  18.377  0.00  0.00    +0.000 A 
ATOM     19  C   UNL     1      -4.723  10.922  17.800  0.00  0.00    +0.000 A 
ENDBRANCH  10  13
ENDBRANCH   4   7
BRANCH   1  20
ATOM     20  N   UNL     1       3.190   6.442  19.747  0.00  0.00    +0.000 N 
ATOM     21  H   UNL     1       3.898   6.548  20.467  0.00  0.00    +0.000 HD
BRANCH  20  34
ATOM     22  C   UNL     1       7.682   7.737  17.340  0.00  0.00    +0.000 C 
ATOM     23  C   UNL     1       6.790   6.531  17.360  0.00  0.00    +0.000 A 
ATOM     24  C   UNL     1       7.104   5.399  16.615  0.00  0.00    +0.000 A 
ATOM     25  C   UNL     1       6.257   4.289  16.646  0.00  0.00    +0.000 A 
ATOM     26  C   UNL     1       5.086   4.278  17.387  0.00  0.00    +0.000 A 
ATOM     27  N   UNL     1       4.350   3.161  17.354  0.00  0.00    +0.000 NA
ATOM     28  C   UNL     1       3.174   3.123  17.992  0.00  0.00    +0.000 A 
ATOM     29  C   UNL     1       2.456   1.934  17.942  0.00  0.00    +0.000 A 
ATOM     30  C   UNL     1       1.209   1.791  18.548  0.00  0.00    +0.000 A 
ATOM     31  C   UNL     1       0.621   2.889  19.150  0.00  0.00    +0.000 A 
ATOM     32  C   UNL     1       1.320   4.096  19.188  0.00  0.00    +0.000 A 
ATOM     33  C   UNL     1       2.651   4.218  18.703  0.00  0.00    +0.000 A 
ATOM     34  C   UNL     1       3.512   5.353  18.866  0.00  0.00    +0.000 A 
ATOM     35  C   UNL     1       4.733   5.413  18.136  0.00  0.00    +0.000 A 
ATOM     36  C   UNL     1       5.615   6.527  18.127  0.00  0.00    +0.000 A 
ENDBRANCH  20  34
ENDBRANCH   1  20
TORSDOF 4
ENDMDL
MODEL 5
REMARK VINA RESULT:      -9.5      1.647      2.071
REMARK  Name = 
REMARK  5 active torsions:
REMARK  status: ('A' for Active; 'I' for Inactive)
REMARK    1  A    between atoms: C_1  and  C_2
REMARK    2  A    between atoms: C_13  and  N_14
REMARK    3  A    between atoms: N_14  and  C_15
REMARK    4  A    between atoms: C_18  and  N_19
REMARK    5  A    between atoms: N_22  and  C_23
REMARK                            x       y       z     vdW  Elec       q    Type
REMARK                         _______ _______ _______ _____ _____    ______ ____
ROOT
ATOM      1  C   UNL     1       2.349   7.914  18.274  0.00  0.00    +0.000 A 
ATOM      2  C   UNL     1       1.995   7.761  19.611  0.00  0.00    +0.000 A 
ATOM      3  C   UNL     1       1.159   8.693  20.221  0.00  0.00    +0.000 A 
ATOM      4  C   UNL     1       0.726   9.846  19.554  0.00  0.00    +0.000 A 
ATOM      5  C   UNL     1       1.224  10.081  18.272  0.00  0.00    +0.000 A 
ATOM      6  C   UNL     1       2.042   9.126  17.644  0.00  0.00    +0.000 A 
ENDROOT
BRANCH   4   7
ATOM      7  N   UNL     1      -0.222  10.745  20.118  0.00  0.00    +0.000 N 
ATOM      8  C   UNL     1       0.129  11.794  20.937  0.00  0.00    +0.000 C 
ATOM      9  O   UNL     1       1.304  12.094  21.140  0.00  0.00    +0.000 OA
ATOM     10  N   UNL     1      -0.927  12.478  21.514  0.00  0.00    +0.000 N 
ATOM     11  H   UNL     1      -1.180  10.681  19.803  0.00  0.00    +0.000 HD
ATOM     12  H   UNL     1      -1.796  11.982  21.611  0.00  0.00    +0.000 HD
BRANCH  10  13
ATOM     13  C   UNL     1      -0.698  13.562  22.411  0.00  0.00    +0.000 A 
ATOM     14  C   UNL     1      -1.318  13.630  23.672  0.00  0.00    +0.000 A 
ATOM     15  C   UNL     1      -1.326  14.801  24.420  0.00  0.00    +0.000 A 
ATOM     16  C   UNL     1      -0.622  15.905  23.961  0.00  0.00    +0.000 A 
ATOM     17 CL   UNL     1      -0.699  17.380  24.836  0.00  0.00    +0.000 Cl
ATOM     18  C   UNL     1       0.126  15.813  22.783  0.00  0.00    +0.000 A 
ATOM     19  C   UNL     1       0.094  14.645  22.010  0.00  0.00    +0.000 A 
ENDBRANCH  10  13
ENDBRANCH   4   7
BRANCH   1  20
ATOM     20  N   UNL     1       2.892   6.838  17.541  0.00  0.00    +0.000 N 
ATOM     21  H   UNL     1       2.321   6.548  16.753  0.00  0.00    +0.000 HD
BRANCH  20  34
ATOM     22  C   UNL     1       7.939   8.313  17.500  0.00  0.00    +0.000 C 
ATOM     23  C   UNL     1       7.181   7.112  17.983  0.00  0.00    +0.000 A 
ATOM     24  C   UNL     1       7.840   6.052  18.599  0.00  0.00    +0.000 A 
ATOM     25  C   UNL     1       7.114   4.942  19.036  0.00  0.00    +0.000 A 
ATOM     26  C   UNL     1       5.743   4.844  18.863  0.00  0.00    +0.000 A 
ATOM     27  N   UNL     1       5.143   3.742  19.326  0.00  0.00    +0.000 NA
ATOM     28  C   UNL     1       3.833   3.563  19.118  0.00  0.00    +0.000 A 
ATOM     29  C   UNL     1       3.254   2.410  19.635  0.00  0.00    +0.000 A 
ATOM     30  C   UNL     1       1.905   2.109  19.456  0.00  0.00    +0.000 A 
ATOM     31  C   UNL     1       1.128   2.940  18.669  0.00  0.00    +0.000 A 
ATOM     32  C   UNL     1       1.701   4.089  18.124  0.00  0.00    +0.000 A 
ATOM     33  C   UNL     1       3.035   4.484  18.417  0.00  0.00    +0.000 A 
ATOM     34  C   UNL     1       3.647   5.731  18.062  0.00  0.00    +0.000 A 
ATOM     35  C   UNL     1       5.052   5.891  18.229  0.00  0.00    +0.000 A 
ATOM     36  C   UNL     1       5.790   7.032  17.815  0.00  0.00    +0.000 A 
ENDBRANCH  20  34
ENDBRANCH   1  20
TORSDOF 4
ENDMDL
MODEL 6
REMARK VINA RESULT:      -9.4      1.652      2.003
REMARK  Name = 
REMARK  5 active torsions:
REMARK  status: ('A' for Active; 'I' for Inactive)
REMARK    1  A    between atoms: C_1  and  C_2
REMARK    2  A    between atoms: C_13  and  N_14
REMARK    3  A    between atoms: N_14  and  C_15
REMARK    4  A    between atoms: C_18  and  N_19
REMARK    5  A    between atoms: N_22  and  C_23
REMARK                            x       y       z     vdW  Elec       q    Type
REMARK                         _______ _______ _______ _____ _____    ______ ____
ROOT
ATOM      1  C   UNL     1       2.395   7.883  18.294  0.00  0.00    +0.000 A 
ATOM      2  C   UNL     1       2.021   7.773  19.630  0.00  0.00    +0.000 A 
ATOM      3  C   UNL     1       1.341   8.818  20.250  0.00  0.00    +0.000 A 
ATOM      4  C   UNL     1       1.094  10.032  19.595  0.00  0.00    +0.000 A 
ATOM      5  C   UNL     1       1.623  10.199  18.315  0.00  0.00    +0.000 A 
ATOM      6  C   UNL     1       2.282   9.135  17.676  0.00  0.00    +0.000 A 
ENDROOT
BRANCH   4   7
ATOM      7  N   UNL     1       0.297  11.062  20.170  0.00  0.00    +0.000 N 
ATOM      8  C   UNL     1      -1.070  11.125  20.029  0.00  0.00    +0.000 C 
ATOM      9  O   UNL     1      -1.709  10.223  19.490  0.00  0.00    +0.000 OA
ATOM     10  N   UNL     1      -1.668  12.269  20.528  0.00  0.00    +0.000 N 
ATOM     11  H   UNL     1       0.744  11.703  20.812  0.00  0.00    +0.000 HD
ATOM     12  H   UNL     1      -1.093  13.089  20.608  0.00  0.00    +0.000 HD
BRANCH  10  13
ATOM     13  C   UNL     1      -3.074  12.474  20.412  0.00  0.00    +0.000 A 
ATOM     14  C   UNL     1      -3.887  12.718  21.534  0.00  0.00    +0.000 A 
ATOM     15  C   UNL     1      -5.272  12.633  21.464  0.00  0.00    +0.000 A 
ATOM     16  C   UNL     1      -5.878  12.399  20.238  0.00  0.00    +0.000 A 
ATOM     17 CL   UNL     1      -7.583  12.207  20.160  0.00  0.00    +0.000 Cl
ATOM     18  C   UNL     1      -5.096  12.302  19.083  0.00  0.00    +0.000 A 
ATOM     19  C   UNL     1      -3.698  12.343  19.164  0.00  0.00    +0.000 A 
ENDBRANCH  10  13
ENDBRANCH   4   7
BRANCH   1  20
ATOM     20  N   UNL     1       2.764   6.743  17.549  0.00  0.00    +0.000 N 
ATOM     21  H   UNL     1       2.065   6.450  16.874  0.00  0.00    +0.000 HD
BRANCH  20  34
ATOM     22  C   UNL     1       7.809   8.218  17.411  0.00  0.00    +0.000 C 
ATOM     23  C   UNL     1       7.064   7.002  17.877  0.00  0.00    +0.000 A 
ATOM     24  C   UNL     1       7.739   5.923  18.439  0.00  0.00    +0.000 A 
ATOM     25  C   UNL     1       7.026   4.800  18.861  0.00  0.00    +0.000 A 
ATOM     26  C   UNL     1       5.650   4.708  18.724  0.00  0.00    +0.000 A 
ATOM     27  N   UNL     1       5.062   3.591  19.168  0.00  0.00    +0.000 NA
ATOM     28  C   UNL     1       3.746   3.419  18.993  0.00  0.00    +0.000 A 
ATOM     29  C   UNL     1       3.181   2.250  19.489  0.00  0.00    +0.000 A 
ATOM     30  C   UNL     1       1.827   1.956  19.339  0.00  0.00    +0.000 A 
ATOM     31  C   UNL     1       1.029   2.811  18.601  0.00  0.00    +0.000 A 
ATOM     32  C   UNL     1       1.587   3.977  18.078  0.00  0.00    +0.000 A 
ATOM     33  C   UNL     1       2.929   4.362  18.344  0.00  0.00    +0.000 A 
ATOM     34  C   UNL     1       3.532   5.620  18.013  0.00  0.00    +0.000 A 
ATOM     35  C   UNL     1       4.942   5.774  18.145  0.00  0.00    +0.000 A 
ATOM     36  C   UNL     1       5.669   6.928  17.746  0.00  0.00    +0.000 A 
ENDBRANCH  20  34
ENDBRANCH   1  20
TORSDOF 4
ENDMDL
MODEL 7
REMARK VINA RESULT:      -9.4      1.954      2.253
REMARK  Name = 
REMARK  5 active torsions:
REMARK  status: ('A' for Active; 'I' for Inactive)
REMARK    1  A    between atoms: C_1  and  C_2
REMARK    2  A    between atoms: C_13  and  N_14
REMARK    3  A    between atoms: N_14  and  C_15
REMARK    4  A    between atoms: C_18  and  N_19
REMARK    5  A    between atoms: N_22  and  C_23
REMARK                            x       y       z     vdW  Elec       q    Type
REMARK                         _______ _______ _______ _____ _____    ______ ____
ROOT
ATOM      1  C   UNL     1       2.257   7.362  19.758  0.00  0.00    +0.000 A 
ATOM      2  C   UNL     1       2.156   8.186  18.641  0.00  0.00    +0.000 A 
ATOM      3  C   UNL     1       1.372   9.335  18.693  0.00  0.00    +0.000 A 
ATOM      4  C   UNL     1       0.598   9.653  19.816  0.00  0.00    +0.000 A 
ATOM      5  C   UNL     1       0.569   8.734  20.866  0.00  0.00    +0.000 A 
ATOM      6  C   UNL     1       1.383   7.589  20.829  0.00  0.00    +0.000 A 
ENDROOT
BRANCH   4   7
ATOM      7  N   UNL     1      -0.112  10.881  19.933  0.00  0.00    +0.000 N 
ATOM      8  C   UNL     1       0.186  11.837  20.878  0.00  0.00    +0.000 C 
ATOM      9  O   UNL     1       1.168  11.740  21.612  0.00  0.00    +0.000 OA
ATOM     10  N   UNL     1      -0.695  12.903  20.944  0.00  0.00    +0.000 N 
ATOM     11  H   UNL     1      -0.781  11.111  19.212  0.00  0.00    +0.000 HD
ATOM     12  H   UNL     1      -1.628  12.748  20.605  0.00  0.00    +0.000 HD
BRANCH  10  13
ATOM     13  C   UNL     1      -0.519  13.942  21.905  0.00  0.00    +0.000 A 
ATOM     14  C   UNL     1      -1.096  13.876  23.187  0.00  0.00    +0.000 A 
ATOM     15  C   UNL     1      -1.169  14.992  24.011  0.00  0.00    +0.000 A 
ATOM     16  C   UNL     1      -0.572  16.178  23.606  0.00  0.00    +0.000 A 
ATOM     17 CL   UNL     1      -0.734  17.582  24.581  0.00  0.00    +0.000 Cl
ATOM     18  C   UNL     1       0.136  16.224  22.402  0.00  0.00    +0.000 A 
ATOM     19  C   UNL     1       0.169  15.109  21.553  0.00  0.00    +0.000 A 
ENDBRANCH  10  13
ENDBRANCH   4   7
BRANCH   1  20
ATOM     20  N   UNL     1       3.287   6.403  19.861  0.00  0.00    +0.000 N 
ATOM     21  H   UNL     1       4.134   6.756  20.296  0.00  0.00    +0.000 HD
BRANCH  20  34
ATOM     22  C   UNL     1       7.657   7.872  17.332  0.00  0.00    +0.000 C 
ATOM     23  C   UNL     1       6.785   6.651  17.338  0.00  0.00    +0.000 A 
ATOM     24  C   UNL     1       7.086   5.556  16.535  0.00  0.00    +0.000 A 
ATOM     25  C   UNL     1       6.258   4.432  16.553  0.00  0.00    +0.000 A 
ATOM     26  C   UNL     1       5.119   4.370  17.340  0.00  0.00    +0.000 A 
ATOM     27  N   UNL     1       4.399   3.243  17.289  0.00  0.00    +0.000 NA
ATOM     28  C   UNL     1       3.251   3.159  17.972  0.00  0.00    +0.000 A 
ATOM     29  C   UNL     1       2.550   1.961  17.901  0.00  0.00    +0.000 A 
ATOM     30  C   UNL     1       1.331   1.772  18.550  0.00  0.00    +0.000 A 
ATOM     31  C   UNL     1       0.751   2.834  19.220  0.00  0.00    +0.000 A 
ATOM     32  C   UNL     1       1.432   4.050  19.280  0.00  0.00    +0.000 A 
ATOM     33  C   UNL     1       2.740   4.215  18.748  0.00  0.00    +0.000 A 
ATOM     34  C   UNL     1       3.589   5.356  18.924  0.00  0.00    +0.000 A 
ATOM     35  C   UNL     1       4.780   5.467  18.149  0.00  0.00    +0.000 A 
ATOM     36  C   UNL     1       5.643   6.595  18.151  0.00  0.00    +0.000 A 
ENDBRANCH  20  34
ENDBRANCH   1  20
TORSDOF 4
ENDMDL
MODEL 8
REMARK VINA RESULT:      -9.4      2.184      2.472
REMARK  Name = 
REMARK  5 active torsions:
REMARK  status: ('A' for Active; 'I' for Inactive)
REMARK    1  A    between atoms: C_1  and  C_2
REMARK    2  A    between atoms: C_13  and  N_14
REMARK    3  A    between atoms: N_14  and  C_15
REMARK    4  A    between atoms: C_18  and  N_19
REMARK    5  A    between atoms: N_22  and  C_23
REMARK                            x       y       z     vdW  Elec       q    Type
REMARK                         _______ _______ _______ _____ _____    ______ ____
ROOT
ATOM      1  C   UNL     1       2.462   7.945  18.149  0.00  0.00    +0.000 A 
ATOM      2  C   UNL     1       1.982   7.793  19.446  0.00  0.00    +0.000 A 
ATOM      3  C   UNL     1       1.140   8.758  19.993  0.00  0.00    +0.000 A 
ATOM      4  C   UNL     1       0.825   9.939  19.309  0.00  0.00    +0.000 A 
ATOM      5  C   UNL     1       1.447  10.165  18.081  0.00  0.00    +0.000 A 
ATOM      6  C   UNL     1       2.272   9.179  17.513  0.00  0.00    +0.000 A 
ENDROOT
BRANCH   4   7
ATOM      7  N   UNL     1      -0.127  10.876  19.801  0.00  0.00    +0.000 N 
ATOM      8  C   UNL     1      -1.440  10.902  19.391  0.00  0.00    +0.000 C 
ATOM      9  O   UNL     1      -1.908  10.036  18.654  0.00  0.00    +0.000 OA
ATOM     10  N   UNL     1      -2.189  11.969  19.859  0.00  0.00    +0.000 N 
ATOM     11  H   UNL     1       0.147  11.466  20.575  0.00  0.00    +0.000 HD
ATOM     12  H   UNL     1      -1.688  12.797  20.128  0.00  0.00    +0.000 HD
BRANCH  10  13
ATOM     13  C   UNL     1      -3.553  12.131  19.479  0.00  0.00    +0.000 A 
ATOM     14  C   UNL     1      -4.032  11.709  18.225  0.00  0.00    +0.000 A 
ATOM     15  C   UNL     1      -5.270  12.115  17.742  0.00  0.00    +0.000 A 
ATOM     16  C   UNL     1      -6.099  12.878  18.553  0.00  0.00    +0.000 A 
ATOM     17 CL   UNL     1      -7.591  13.456  17.930  0.00  0.00    +0.000 Cl
ATOM     18  C   UNL     1      -5.705  13.184  19.859  0.00  0.00    +0.000 A 
ATOM     19  C   UNL     1      -4.438  12.809  20.326  0.00  0.00    +0.000 A 
ENDBRANCH  10  13
ENDBRANCH   4   7
BRANCH   1  20
ATOM     20  N   UNL     1       3.018   6.853  17.449  0.00  0.00    +0.000 N 
ATOM     21  H   UNL     1       2.464   6.550  16.654  0.00  0.00    +0.000 HD
BRANCH  20  34
ATOM     22  C   UNL     1       8.064   8.330  17.547  0.00  0.00    +0.000 C 
ATOM     23  C   UNL     1       7.291   7.135  18.023  0.00  0.00    +0.000 A 
ATOM     24  C   UNL     1       7.930   6.085  18.674  0.00  0.00    +0.000 A 
ATOM     25  C   UNL     1       7.191   4.981  19.103  0.00  0.00    +0.000 A 
ATOM     26  C   UNL     1       5.826   4.880  18.888  0.00  0.00    +0.000 A 
ATOM     27  N   UNL     1       5.212   3.783  19.348  0.00  0.00    +0.000 NA
ATOM     28  C   UNL     1       3.909   3.601  19.102  0.00  0.00    +0.000 A 
ATOM     29  C   UNL     1       3.314   2.455  19.616  0.00  0.00    +0.000 A 
ATOM     30  C   UNL     1       1.971   2.152  19.399  0.00  0.00    +0.000 A 
ATOM     31  C   UNL     1       1.219   2.970  18.576  0.00  0.00    +0.000 A 
ATOM     32  C   UNL     1       1.809   4.112  18.033  0.00  0.00    +0.000 A 
ATOM     33  C   UNL     1       3.133   4.512  18.362  0.00  0.00    +0.000 A 
ATOM     34  C   UNL     1       3.756   5.754  18.009  0.00  0.00    +0.000 A 
ATOM     35  C   UNL     1       5.156   5.917  18.219  0.00  0.00    +0.000 A 
ATOM     36  C   UNL     1       5.906   7.052  17.812  0.00  0.00    +0.000 A 
ENDBRANCH  20  34
ENDBRANCH   1  20
TORSDOF 4
ENDMDL
MODEL 9
REMARK VINA RESULT:      -9.3      0.810      1.168
REMARK  Name = 
REMARK  5 active torsions:
REMARK  status: ('A' for Active; 'I' for Inactive)
REMARK    1  A    between atoms: C_1  and  C_2
REMARK    2  A    between atoms: C_13  and  N_14
REMARK    3  A    between atoms: N_14  and  C_15
REMARK    4  A    between atoms: C_18  and  N_19
REMARK    5  A    between atoms: N_22  and  C_23
REMARK                            x       y       z     vdW  Elec       q    Type
REMARK                         _______ _______ _______ _____ _____    ______ ____
ROOT
ATOM      1  C   UNL     1       2.357   7.901  18.322  0.00  0.00    +0.000 A 
ATOM      2  C   UNL     1       2.002   7.864  19.667  0.00  0.00    +0.000 A 
ATOM      3  C   UNL     1       1.426   8.981  20.266  0.00  0.00    +0.000 A 
ATOM      4  C   UNL     1       1.269  10.191  19.577  0.00  0.00    +0.000 A 
ATOM      5  C   UNL     1       1.784  10.274  18.283  0.00  0.00    +0.000 A 
ATOM      6  C   UNL     1       2.338   9.138  17.667  0.00  0.00    +0.000 A 
ENDROOT
BRANCH   4   7
ATOM      7  N   UNL     1       0.574  11.302  20.133  0.00  0.00    +0.000 N 
ATOM      8  C   UNL     1      -0.624  11.185  20.799  0.00  0.00    +0.000 C 
ATOM      9  O   UNL     1      -1.118  10.090  21.060  0.00  0.00    +0.000 OA
ATOM     10  N   UNL     1      -1.232  12.380  21.146  0.00  0.00    +0.000 N 
ATOM     11  H   UNL     1       1.045  12.197  20.145  0.00  0.00    +0.000 HD
ATOM     12  H   UNL     1      -0.988  13.192  20.605  0.00  0.00    +0.000 HD
BRANCH  10  13
ATOM     13  C   UNL     1      -2.495  12.397  21.807  0.00  0.00    +0.000 A 
ATOM     14  C   UNL     1      -3.696  12.633  21.113  0.00  0.00    +0.000 A 
ATOM     15  C   UNL     1      -4.877  12.932  21.780  0.00  0.00    +0.000 A 
ATOM     16  C   UNL     1      -4.901  12.902  23.167  0.00  0.00    +0.000 A 
ATOM     17 CL   UNL     1      -6.335  13.355  23.997  0.00  0.00    +0.000 Cl
ATOM     18  C   UNL     1      -3.756  12.524  23.874  0.00  0.00    +0.000 A 
ATOM     19  C   UNL     1      -2.555  12.267  23.200  0.00  0.00    +0.000 A 
ENDBRANCH  10  13
ENDBRANCH   4   7
BRANCH   1  20
ATOM     20  N   UNL     1       2.613   6.711  17.608  0.00  0.00    +0.000 N 
ATOM     21  H   UNL     1       1.839   6.408  17.025  0.00  0.00    +0.000 HD
BRANCH  20  34
ATOM     22  C   UNL     1       7.653   8.184  17.338  0.00  0.00    +0.000 C 
ATOM     23  C   UNL     1       6.920   6.968  17.823  0.00  0.00    +0.000 A 
ATOM     24  C   UNL     1       7.609   5.889  18.368  0.00  0.00    +0.000 A 
ATOM     25  C   UNL     1       6.906   4.766  18.808  0.00  0.00    +0.000 A 
ATOM     26  C   UNL     1       5.527   4.675  18.707  0.00  0.00    +0.000 A 
ATOM     27  N   UNL     1       4.951   3.559  19.167  0.00  0.00    +0.000 NA
ATOM     28  C   UNL     1       3.631   3.388  19.026  0.00  0.00    +0.000 A 
ATOM     29  C   UNL     1       3.078   2.219  19.537  0.00  0.00    +0.000 A 
ATOM     30  C   UNL     1       1.721   1.925  19.422  0.00  0.00    +0.000 A 
ATOM     31  C   UNL     1       0.903   2.780  18.705  0.00  0.00    +0.000 A 
ATOM     32  C   UNL     1       1.448   3.946  18.167  0.00  0.00    +0.000 A 
ATOM     33  C   UNL     1       2.797   4.331  18.399  0.00  0.00    +0.000 A 
ATOM     34  C   UNL     1       3.392   5.588  18.051  0.00  0.00    +0.000 A 
ATOM     35  C   UNL     1       4.805   5.742  18.146  0.00  0.00    +0.000 A 
ATOM     36  C   UNL     1       5.522   6.895  17.729  0.00  0.00    +0.000 A 
ENDBRANCH  20  34
ENDBRANCH   1  20
TORSDOF 4
ENDMDL
