MODEL 1
REMARK VINA RESULT:      -8.1      0.000      0.000
REMARK  Name = 
REMARK  9 active torsions:
REMARK  status: ('A' for Active; 'I' for Inactive)
REMARK    1  A    between atoms: C_1  and  C_2
REMARK    2  A    between atoms: C_5  and  C_6
REMARK    3  A    between atoms: N_8  and  C_9
REMARK    4  A    between atoms: C_9  and  C_10
REMARK    5  A    between atoms: N_12  and  N_13
REMARK    6  A    between atoms: N_13  and  C_14
REMARK    7  A    between atoms: C_14  and  N_16
REMARK    8  A    between atoms: N_16  and  C_17
REMARK    9  A    between atoms: N_25  and  N_26
REMARK                            x       y       z     vdW  Elec       q    Type
REMARK                         _______ _______ _______ _____ _____    ______ ____
ROOT
ATOM      1  C   UNL     1       1.207  10.258  19.077  0.00  0.00    +0.000 C 
ENDROOT
BRANCH   1   4
ATOM      2  C   UNL     1       2.869   7.227  18.340  0.00  0.00    +0.000 A 
ATOM      3  N   UNL     1       2.481   8.415  17.926  0.00  0.00    +0.000 NA
ATOM      4  N   UNL     1       1.719   8.912  18.982  0.00  0.00    +0.000 N 
ATOM      5  C   UNL     1       1.714   8.015  20.053  0.00  0.00    +0.000 A 
ATOM      6  O   UNL     1       1.248   8.182  21.172  0.00  0.00    +0.000 OA
ATOM      7  N   UNL     1       2.423   6.922  19.599  0.00  0.00    +0.000 N 
BRANCH   2  12
ATOM      8  C   UNL     1       6.043   3.777  14.922  0.00  0.00    +0.000 C 
ATOM      9  C   UNL     1       5.265   4.613  15.897  0.00  0.00    +0.000 A 
ATOM     10  C   UNL     1       4.216   4.090  16.665  0.00  0.00    +0.000 A 
ATOM     11  C   UNL     1       3.458   4.925  17.508  0.00  0.00    +0.000 A 
ATOM     12  C   UNL     1       3.749   6.293  17.588  0.00  0.00    +0.000 A 
ATOM     13  C   UNL     1       4.856   6.784  16.887  0.00  0.00    +0.000 A 
ATOM     14  C   UNL     1       5.587   5.965  16.028  0.00  0.00    +0.000 A 
ENDBRANCH   2  12
BRANCH   7  15
ATOM     15  N   UNL     1       2.775   5.847  20.430  0.00  0.00    +0.000 N 
ATOM     16  H   UNL     1       3.794   5.746  20.364  0.00  0.00    +0.000 HD
ATOM     17  H   UNL     1       2.389   4.994  20.023  0.00  0.00    +0.000 HD
ENDBRANCH   7  15
ENDBRANCH   1   4
BRANCH   1  18
ATOM     18  C   UNL     1      -0.283  10.415  18.830  0.00  0.00    +0.000 C 
ATOM     19  O   UNL     1      -1.093  10.385  19.763  0.00  0.00    +0.000 OA
ATOM     20  N   UNL     1      -0.683  10.640  17.526  0.00  0.00    +0.000 N 
ATOM     21  H   UNL     1       0.015  10.969  16.858  0.00  0.00    +0.000 HD
BRANCH  20  22
ATOM     22  N   UNL     1      -1.974  11.159  17.402  0.00  0.00    +0.000 N 
ATOM     23  H   UNL     1      -2.180  11.960  18.004  0.00  0.00    +0.000 HD
BRANCH  22  24
ATOM     24  C   UNL     1      -3.008  10.571  16.715  0.00  0.00    +0.000 C 
ATOM     25  S   UNL     1      -2.997  10.180  15.094  0.00  0.00    +0.000 S 
BRANCH  24  26
ATOM     26  N   UNL     1      -4.104  10.271  17.497  0.00  0.00    +0.000 N 
ATOM     27  H   UNL     1      -4.187   9.306  17.801  0.00  0.00    +0.000 HD
BRANCH  26  28
ATOM     28  C   UNL     1      -5.210  11.119  17.738  0.00  0.00    +0.000 A 
ATOM     29  C   UNL     1      -5.423  12.284  16.990  0.00  0.00    +0.000 A 
ATOM     30  C   UNL     1      -6.529  13.099  17.236  0.00  0.00    +0.000 A 
ATOM     31  C   UNL     1      -7.435  12.753  18.231  0.00  0.00    +0.000 A 
ATOM     32  C   UNL     1      -7.244  11.583  18.966  0.00  0.00    +0.000 A 
ATOM     33  C   UNL     1      -6.145  10.754  18.707  0.00  0.00    +0.000 A 
ENDBRANCH  26  28
ENDBRANCH  24  26
ENDBRANCH  22  24
ENDBRANCH  20  22
ENDBRANCH   1  18
TORSDOF 8
ENDMDL
MODEL 2
REMARK VINA RESULT:      -7.9      0.785      1.050
REMARK  Name = 
REMARK  9 active torsions:
REMARK  status: ('A' for Active; 'I' for Inactive)
REMARK    1  A    between atoms: C_1  and  C_2
REMARK    2  A    between atoms: C_5  and  C_6
REMARK    3  A    between atoms: N_8  and  C_9
REMARK    4  A    between atoms: C_9  and  C_10
REMARK    5  A    between atoms: N_12  and  N_13
REMARK    6  A    between atoms: N_13  and  C_14
REMARK    7  A    between atoms: C_14  and  N_16
REMARK    8  A    between atoms: N_16  and  C_17
REMARK    9  A    between atoms: N_25  and  N_26
REMARK                            x       y       z     vdW  Elec       q    Type
REMARK                         _______ _______ _______ _____ _____    ______ ____
ROOT
ATOM      1  C   UNL     1       1.111  10.131  18.917  0.00  0.00    +0.000 C 
ENDROOT
BRANCH   1   4
ATOM      2  C   UNL     1       2.911   7.161  18.263  0.00  0.00    +0.000 A 
ATOM      3  N   UNL     1       2.446   8.305  17.809  0.00  0.00    +0.000 NA
ATOM      4  N   UNL     1       1.693   8.811  18.867  0.00  0.00    +0.000 N 
ATOM      5  C   UNL     1       1.771   7.967  19.978  0.00  0.00    +0.000 A 
ATOM      6  O   UNL     1       1.333   8.163  21.104  0.00  0.00    +0.000 OA
ATOM      7  N   UNL     1       2.523   6.893  19.550  0.00  0.00    +0.000 N 
BRANCH   2  12
ATOM      8  C   UNL     1       6.186   3.755  14.896  0.00  0.00    +0.000 C 
ATOM      9  C   UNL     1       5.382   4.580  15.859  0.00  0.00    +0.000 A 
ATOM     10  C   UNL     1       4.329   4.042  16.611  0.00  0.00    +0.000 A 
ATOM     11  C   UNL     1       3.546   4.867  17.442  0.00  0.00    +0.000 A 
ATOM     12  C   UNL     1       3.816   6.238  17.525  0.00  0.00    +0.000 A 
ATOM     13  C   UNL     1       4.927   6.746  16.841  0.00  0.00    +0.000 A 
ATOM     14  C   UNL     1       5.682   5.937  15.994  0.00  0.00    +0.000 A 
ENDBRANCH   2  12
BRANCH   7  15
ATOM     15  N   UNL     1       2.960   5.880  20.417  0.00  0.00    +0.000 N 
ATOM     16  H   UNL     1       3.806   5.479  19.998  0.00  0.00    +0.000 HD
ATOM     17  H   UNL     1       2.266   5.131  20.402  0.00  0.00    +0.000 HD
ENDBRANCH   7  15
ENDBRANCH   1   4
BRANCH   1  18
ATOM     18  C   UNL     1      -0.404  10.181  19.008  0.00  0.00    +0.000 C 
ATOM     19  O   UNL     1      -0.970  10.656  19.997  0.00  0.00    +0.000 OA
ATOM     20  N   UNL     1      -1.113   9.716  17.915  0.00  0.00    +0.000 N 
ATOM     21  H   UNL     1      -0.626   9.637  17.023  0.00  0.00    +0.000 HD
BRANCH  20  22
ATOM     22  N   UNL     1      -2.446  10.134  17.876  0.00  0.00    +0.000 N 
ATOM     23  H   UNL     1      -3.059   9.697  18.569  0.00  0.00    +0.000 HD
BRANCH  22  24
ATOM     24  C   UNL     1      -3.014  10.899  16.887  0.00  0.00    +0.000 C 
ATOM     25  S   UNL     1      -3.017  10.533  15.260  0.00  0.00    +0.000 S 
BRANCH  24  26
ATOM     26  N   UNL     1      -3.651  12.033  17.348  0.00  0.00    +0.000 N 
ATOM     27  H   UNL     1      -3.131  12.901  17.272  0.00  0.00    +0.000 HD
BRANCH  26  28
ATOM     28  C   UNL     1      -4.854  12.066  18.091  0.00  0.00    +0.000 A 
ATOM     29  C   UNL     1      -4.854  12.147  19.490  0.00  0.00    +0.000 A 
ATOM     30  C   UNL     1      -6.053  12.192  20.202  0.00  0.00    +0.000 A 
ATOM     31  C   UNL     1      -7.265  12.159  19.521  0.00  0.00    +0.000 A 
ATOM     32  C   UNL     1      -7.274  12.102  18.127  0.00  0.00    +0.000 A 
ATOM     33  C   UNL     1      -6.071  12.076  17.410  0.00  0.00    +0.000 A 
ENDBRANCH  26  28
ENDBRANCH  24  26
ENDBRANCH  22  24
ENDBRANCH  20  22
ENDBRANCH   1  18
TORSDOF 8
ENDMDL
MODEL 3
REMARK VINA RESULT:      -7.9      4.323      9.490
REMARK  Name = 
REMARK  9 active torsions:
REMARK  status: ('A' for Active; 'I' for Inactive)
REMARK    1  A    between atoms: C_1  and  C_2
REMARK    2  A    between atoms: C_5  and  C_6
REMARK    3  A    between atoms: N_8  and  C_9
REMARK    4  A    between atoms: C_9  and  C_10
REMARK    5  A    between atoms: N_12  and  N_13
REMARK    6  A    between atoms: N_13  and  C_14
REMARK    7  A    between atoms: C_14  and  N_16
REMARK    8  A    between atoms: N_16  and  C_17
REMARK    9  A    between atoms: N_25  and  N_26
REMARK                            x       y       z     vdW  Elec       q    Type
REMARK                         _______ _______ _______ _____ _____    ______ ____
ROOT
ATOM      1  C   UNL     1      -0.091  10.071  18.522  0.00  0.00    +0.000 C 
ENDROOT
BRANCH   1   4
ATOM      2  C   UNL     1      -0.877  11.421  21.692  0.00  0.00    +0.000 A 
ATOM      3  N   UNL     1      -0.849  11.586  20.386  0.00  0.00    +0.000 NA
ATOM      4  N   UNL     1      -0.214  10.438  19.912  0.00  0.00    +0.000 N 
ATOM      5  C   UNL     1       0.080   9.566  20.963  0.00  0.00    +0.000 A 
ATOM      6  O   UNL     1       0.525   8.428  20.894  0.00  0.00    +0.000 OA
ATOM      7  N   UNL     1      -0.316  10.240  22.100  0.00  0.00    +0.000 N 
BRANCH   2  12
ATOM      8  C   UNL     1      -3.593  15.286  25.061  0.00  0.00    +0.000 C 
ATOM      9  C   UNL     1      -2.821  14.264  24.279  0.00  0.00    +0.000 A 
ATOM     10  C   UNL     1      -1.490  14.466  23.887  0.00  0.00    +0.000 A 
ATOM     11  C   UNL     1      -0.826  13.518  23.084  0.00  0.00    +0.000 A 
ATOM     12  C   UNL     1      -1.493  12.359  22.670  0.00  0.00    +0.000 A 
ATOM     13  C   UNL     1      -2.789  12.126  23.143  0.00  0.00    +0.000 A 
ATOM     14  C   UNL     1      -3.458  13.077  23.911  0.00  0.00    +0.000 A 
ENDBRANCH   2  12
BRANCH   7  15
ATOM     15  N   UNL     1      -0.325   9.644  23.371  0.00  0.00    +0.000 N 
ATOM     16  H   UNL     1       0.520   9.970  23.854  0.00  0.00    +0.000 HD
ATOM     17  H   UNL     1      -0.199   8.638  23.248  0.00  0.00    +0.000 HD
ENDBRANCH   7  15
ENDBRANCH   1   4
BRANCH   1  18
ATOM     18  C   UNL     1       1.299   9.656  18.071  0.00  0.00    +0.000 C 
ATOM     19  O   UNL     1       2.218  10.478  17.992  0.00  0.00    +0.000 OA
ATOM     20  N   UNL     1       1.497   8.314  17.803  0.00  0.00    +0.000 N 
ATOM     21  H   UNL     1       0.826   7.644  18.179  0.00  0.00    +0.000 HD
BRANCH  20  22
ATOM     22  N   UNL     1       2.839   7.925  17.780  0.00  0.00    +0.000 N 
ATOM     23  H   UNL     1       3.431   8.446  17.129  0.00  0.00    +0.000 HD
BRANCH  22  24
ATOM     24  C   UNL     1       3.355   6.806  18.386  0.00  0.00    +0.000 C 
ATOM     25  S   UNL     1       4.692   5.953  17.872  0.00  0.00    +0.000 S 
BRANCH  24  26
ATOM     26  N   UNL     1       2.688   6.431  19.534  0.00  0.00    +0.000 N 
ATOM     27  H   UNL     1       2.697   7.100  20.297  0.00  0.00    +0.000 HD
BRANCH  26  28
ATOM     28  C   UNL     1       2.179   5.141  19.816  0.00  0.00    +0.000 A 
ATOM     29  C   UNL     1       1.570   4.357  18.828  0.00  0.00    +0.000 A 
ATOM     30  C   UNL     1       1.087   3.082  19.125  0.00  0.00    +0.000 A 
ATOM     31  C   UNL     1       1.213   2.578  20.414  0.00  0.00    +0.000 A 
ATOM     32  C   UNL     1       1.839   3.342  21.399  0.00  0.00    +0.000 A 
ATOM     33  C   UNL     1       2.340   4.614  21.097  0.00  0.00    +0.000 A 
ENDBRANCH  26  28
ENDBRANCH  24  26
ENDBRANCH  22  24
ENDBRANCH  20  22
ENDBRANCH   1  18
TORSDOF 8
ENDMDL
MODEL 4
REMARK VINA RESULT:      -7.8      2.492      9.674
REMARK  Name = 
REMARK  9 active torsions:
REMARK  status: ('A' for Active; 'I' for Inactive)
REMARK    1  A    between atoms: C_1  and  C_2
REMARK    2  A    between atoms: C_5  and  C_6
REMARK    3  A    between atoms: N_8  and  C_9
REMARK    4  A    between atoms: C_9  and  C_10
REMARK    5  A    between atoms: N_12  and  N_13
REMARK    6  A    between atoms: N_13  and  C_14
REMARK    7  A    between atoms: C_14  and  N_16
REMARK    8  A    between atoms: N_16  and  C_17
REMARK    9  A    between atoms: N_25  and  N_26
REMARK                            x       y       z     vdW  Elec       q    Type
REMARK                         _______ _______ _______ _____ _____    ______ ____
ROOT
ATOM      1  C   UNL     1       1.013   9.694  20.567  0.00  0.00    +0.000 C 
ENDROOT
BRANCH   1   4
ATOM      2  C   UNL     1      -1.680  11.238  18.877  0.00  0.00    +0.000 A 
ATOM      3  N   UNL     1      -1.265  10.258  19.650  0.00  0.00    +0.000 NA
ATOM      4  N   UNL     1       0.118  10.429  19.705  0.00  0.00    +0.000 N 
ATOM      5  C   UNL     1       0.503  11.568  18.994  0.00  0.00    +0.000 A 
ATOM      6  O   UNL     1       1.615  12.076  18.933  0.00  0.00    +0.000 OA
ATOM      7  N   UNL     1      -0.665  12.045  18.435  0.00  0.00    +0.000 N 
BRANCH   2  12
ATOM      8  C   UNL     1      -7.011  12.823  17.225  0.00  0.00    +0.000 C 
ATOM      9  C   UNL     1      -5.681  12.336  17.723  0.00  0.00    +0.000 A 
ATOM     10  C   UNL     1      -5.240  12.568  19.033  0.00  0.00    +0.000 A 
ATOM     11  C   UNL     1      -3.952  12.167  19.438  0.00  0.00    +0.000 A 
ATOM     12  C   UNL     1      -3.098  11.528  18.531  0.00  0.00    +0.000 A 
ATOM     13  C   UNL     1      -3.585  11.220  17.255  0.00  0.00    +0.000 A 
ATOM     14  C   UNL     1      -4.846  11.646  16.843  0.00  0.00    +0.000 A 
ENDBRANCH   2  12
BRANCH   7  15
ATOM     15  N   UNL     1      -0.735  13.271  17.756  0.00  0.00    +0.000 N 
ATOM     16  H   UNL     1      -1.732  13.478  17.627  0.00  0.00    +0.000 HD
ATOM     17  H   UNL     1      -0.360  13.134  16.817  0.00  0.00    +0.000 HD
ENDBRANCH   7  15
ENDBRANCH   1   4
BRANCH   1  18
ATOM     18  C   UNL     1       1.617   8.436  19.970  0.00  0.00    +0.000 C 
ATOM     19  O   UNL     1       1.916   8.375  18.773  0.00  0.00    +0.000 OA
ATOM     20  N   UNL     1       1.859   7.385  20.836  0.00  0.00    +0.000 N 
ATOM     21  H   UNL     1       1.898   7.584  21.836  0.00  0.00    +0.000 HD
BRANCH  20  22
ATOM     22  N   UNL     1       2.752   6.429  20.343  0.00  0.00    +0.000 N 
ATOM     23  H   UNL     1       3.718   6.750  20.239  0.00  0.00    +0.000 HD
BRANCH  22  24
ATOM     24  C   UNL     1       2.404   5.210  19.817  0.00  0.00    +0.000 C 
ATOM     25  S   UNL     1       1.980   3.858  20.697  0.00  0.00    +0.000 S 
BRANCH  24  26
ATOM     26  N   UNL     1       2.388   5.177  18.437  0.00  0.00    +0.000 N 
ATOM     27  H   UNL     1       1.487   5.004  18.004  0.00  0.00    +0.000 HD
BRANCH  26  28
ATOM     28  C   UNL     1       3.522   5.157  17.593  0.00  0.00    +0.000 A 
ATOM     29  C   UNL     1       3.998   3.967  17.026  0.00  0.00    +0.000 A 
ATOM     30  C   UNL     1       5.111   3.973  16.185  0.00  0.00    +0.000 A 
ATOM     31  C   UNL     1       5.758   5.170  15.900  0.00  0.00    +0.000 A 
ATOM     32  C   UNL     1       5.278   6.362  16.442  0.00  0.00    +0.000 A 
ATOM     33  C   UNL     1       4.149   6.361  17.271  0.00  0.00    +0.000 A 
ENDBRANCH  26  28
ENDBRANCH  24  26
ENDBRANCH  22  24
ENDBRANCH  20  22
ENDBRANCH   1  18
TORSDOF 8
ENDMDL
MODEL 5
REMARK VINA RESULT:      -7.8      1.391      1.997
REMARK  Name = 
REMARK  9 active torsions:
REMARK  status: ('A' for Active; 'I' for Inactive)
REMARK    1  A    between atoms: C_1  and  C_2
REMARK    2  A    between atoms: C_5  and  C_6
REMARK    3  A    between atoms: N_8  and  C_9
REMARK    4  A    between atoms: C_9  and  C_10
REMARK    5  A    between atoms: N_12  and  N_13
REMARK    6  A    between atoms: N_13  and  C_14
REMARK    7  A    between atoms: C_14  and  N_16
REMARK    8  A    between atoms: N_16  and  C_17
REMARK    9  A    between atoms: N_25  and  N_26
REMARK                            x       y       z     vdW  Elec       q    Type
REMARK                         _______ _______ _______ _____ _____    ______ ____
ROOT
ATOM      1  C   UNL     1       0.711  11.638  19.228  0.00  0.00    +0.000 C 
ENDROOT
BRANCH   1   4
ATOM      2  C   UNL     1       1.921   8.340  18.840  0.00  0.00    +0.000 A 
ATOM      3  N   UNL     1       1.641   9.497  18.280  0.00  0.00    +0.000 NA
ATOM      4  N   UNL     1       1.048  10.237  19.303  0.00  0.00    +0.000 N 
ATOM      5  C   UNL     1       1.038   9.509  20.496  0.00  0.00    +0.000 A 
ATOM      6  O   UNL     1       0.704   9.895  21.608  0.00  0.00    +0.000 OA
ATOM      7  N   UNL     1       1.564   8.279  20.162  0.00  0.00    +0.000 N 
BRANCH   2  12
ATOM      8  C   UNL     1       4.771   3.726  16.779  0.00  0.00    +0.000 C 
ATOM      9  C   UNL     1       4.019   4.954  17.203  0.00  0.00    +0.000 A 
ATOM     10  C   UNL     1       4.547   6.245  17.057  0.00  0.00    +0.000 A 
ATOM     11  C   UNL     1       3.846   7.366  17.542  0.00  0.00    +0.000 A 
ATOM     12  C   UNL     1       2.608   7.199  18.175  0.00  0.00    +0.000 A 
ATOM     13  C   UNL     1       2.051   5.917  18.232  0.00  0.00    +0.000 A 
ATOM     14  C   UNL     1       2.758   4.804  17.782  0.00  0.00    +0.000 A 
ENDBRANCH   2  12
BRANCH   7  15
ATOM     15  N   UNL     1       1.863   7.297  21.118  0.00  0.00    +0.000 N 
ATOM     16  H   UNL     1       2.769   7.551  21.527  0.00  0.00    +0.000 HD
ATOM     17  H   UNL     1       2.023   6.416  20.627  0.00  0.00    +0.000 HD
ENDBRANCH   7  15
ENDBRANCH   1   4
BRANCH   1  18
ATOM     18  C   UNL     1      -0.702  11.953  18.769  0.00  0.00    +0.000 C 
ATOM     19  O   UNL     1      -1.438  12.695  19.427  0.00  0.00    +0.000 OA
ATOM     20  N   UNL     1      -1.104  11.411  17.562  0.00  0.00    +0.000 N 
ATOM     21  H   UNL     1      -0.384  11.084  16.917  0.00  0.00    +0.000 HD
BRANCH  20  22
ATOM     22  N   UNL     1      -2.226  12.028  17.001  0.00  0.00    +0.000 N 
ATOM     23  H   UNL     1      -2.321  13.026  17.206  0.00  0.00    +0.000 HD
BRANCH  22  24
ATOM     24  C   UNL     1      -3.274  11.379  16.396  0.00  0.00    +0.000 C 
ATOM     25  S   UNL     1      -3.152  10.008  15.455  0.00  0.00    +0.000 S 
BRANCH  24  26
ATOM     26  N   UNL     1      -4.508  11.937  16.659  0.00  0.00    +0.000 N 
ATOM     27  H   UNL     1      -4.822  12.655  16.014  0.00  0.00    +0.000 HD
BRANCH  26  28
ATOM     28  C   UNL     1      -5.270  11.753  17.837  0.00  0.00    +0.000 A 
ATOM     29  C   UNL     1      -5.919  10.543  18.114  0.00  0.00    +0.000 A 
ATOM     30  C   UNL     1      -6.653  10.380  19.289  0.00  0.00    +0.000 A 
ATOM     31  C   UNL     1      -6.743  11.425  20.200  0.00  0.00    +0.000 A 
ATOM     32  C   UNL     1      -6.081  12.626  19.944  0.00  0.00    +0.000 A 
ATOM     33  C   UNL     1      -5.328  12.785  18.774  0.00  0.00    +0.000 A 
ENDBRANCH  26  28
ENDBRANCH  24  26
ENDBRANCH  22  24
ENDBRANCH  20  22
ENDBRANCH   1  18
TORSDOF 8
ENDMDL
MODEL 6
REMARK VINA RESULT:      -7.8      4.087      9.382
REMARK  Name = 
REMARK  9 active torsions:
REMARK  status: ('A' for Active; 'I' for Inactive)
REMARK    1  A    between atoms: C_1  and  C_2
REMARK    2  A    between atoms: C_5  and  C_6
REMARK    3  A    between atoms: N_8  and  C_9
REMARK    4  A    between atoms: C_9  and  C_10
REMARK    5  A    between atoms: N_12  and  N_13
REMARK    6  A    between atoms: N_13  and  C_14
REMARK    7  A    between atoms: C_14  and  N_16
REMARK    8  A    between atoms: N_16  and  C_17
REMARK    9  A    between atoms: N_25  and  N_26
REMARK                            x       y       z     vdW  Elec       q    Type
REMARK                         _______ _______ _______ _____ _____    ______ ____
ROOT
ATOM      1  C   UNL     1       0.158   9.686  18.518  0.00  0.00    +0.000 C 
ENDROOT
BRANCH   1   4
ATOM      2  C   UNL     1      -0.683  11.170  21.613  0.00  0.00    +0.000 A 
ATOM      3  N   UNL     1      -0.637  11.277  20.302  0.00  0.00    +0.000 NA
ATOM      4  N   UNL     1       0.012  10.114  19.888  0.00  0.00    +0.000 N 
ATOM      5  C   UNL     1       0.296   9.291  20.981  0.00  0.00    +0.000 A 
ATOM      6  O   UNL     1       0.747   8.153  20.969  0.00  0.00    +0.000 OA
ATOM      7  N   UNL     1      -0.121  10.011  22.081  0.00  0.00    +0.000 N 
BRANCH   2  12
ATOM      8  C   UNL     1      -3.492  15.140  24.777  0.00  0.00    +0.000 C 
ATOM      9  C   UNL     1      -2.693  14.099  24.047  0.00  0.00    +0.000 A 
ATOM     10  C   UNL     1      -1.379  14.327  23.616  0.00  0.00    +0.000 A 
ATOM     11  C   UNL     1      -0.692  13.355  22.863  0.00  0.00    +0.000 A 
ATOM     12  C   UNL     1      -1.319  12.145  22.540  0.00  0.00    +0.000 A 
ATOM     13  C   UNL     1      -2.595  11.893  23.055  0.00  0.00    +0.000 A 
ATOM     14  C   UNL     1      -3.288  12.867  23.772  0.00  0.00    +0.000 A 
ENDBRANCH   2  12
BRANCH   7  15
ATOM     15  N   UNL     1      -0.145   9.472  23.377  0.00  0.00    +0.000 N 
ATOM     16  H   UNL     1       0.739   8.967  23.502  0.00  0.00    +0.000 HD
ATOM     17  H   UNL     1      -0.874   8.758  23.407  0.00  0.00    +0.000 HD
ENDBRANCH   7  15
ENDBRANCH   1   4
BRANCH   1  18
ATOM     18  C   UNL     1       1.581   9.421  18.058  0.00  0.00    +0.000 C 
ATOM     19  O   UNL     1       2.331  10.347  17.734  0.00  0.00    +0.000 OA
ATOM     20  N   UNL     1       2.008   8.106  18.068  0.00  0.00    +0.000 N 
ATOM     21  H   UNL     1       1.485   7.434  18.630  0.00  0.00    +0.000 HD
BRANCH  20  22
ATOM     22  N   UNL     1       3.397   7.953  18.024  0.00  0.00    +0.000 N 
ATOM     23  H   UNL     1       3.932   8.821  18.108  0.00  0.00    +0.000 HD
BRANCH  22  24
ATOM     24  C   UNL     1       4.062   6.802  17.682  0.00  0.00    +0.000 C 
ATOM     25  S   UNL     1       4.849   6.528  16.238  0.00  0.00    +0.000 S 
BRANCH  24  26
ATOM     26  N   UNL     1       4.074   5.844  18.675  0.00  0.00    +0.000 N 
ATOM     27  H   UNL     1       4.979   5.633  19.084  0.00  0.00    +0.000 HD
BRANCH  26  28
ATOM     28  C   UNL     1       2.996   4.997  19.026  0.00  0.00    +0.000 A 
ATOM     29  C   UNL     1       2.374   5.076  20.279  0.00  0.00    +0.000 A 
ATOM     30  C   UNL     1       1.304   4.240  20.599  0.00  0.00    +0.000 A 
ATOM     31  C   UNL     1       0.843   3.318  19.666  0.00  0.00    +0.000 A 
ATOM     32  C   UNL     1       1.441   3.248  18.407  0.00  0.00    +0.000 A 
ATOM     33  C   UNL     1       2.503   4.100  18.079  0.00  0.00    +0.000 A 
ENDBRANCH  26  28
ENDBRANCH  24  26
ENDBRANCH  22  24
ENDBRANCH  20  22
ENDBRANCH   1  18
TORSDOF 8
ENDMDL
MODEL 7
REMARK VINA RESULT:      -7.8      3.112      9.499
REMARK  Name = 
REMARK  9 active torsions:
REMARK  status: ('A' for Active; 'I' for Inactive)
REMARK    1  A    between atoms: C_1  and  C_2
REMARK    2  A    between atoms: C_5  and  C_6
REMARK    3  A    between atoms: N_8  and  C_9
REMARK    4  A    between atoms: C_9  and  C_10
REMARK    5  A    between atoms: N_12  and  N_13
REMARK    6  A    between atoms: N_13  and  C_14
REMARK    7  A    between atoms: C_14  and  N_16
REMARK    8  A    between atoms: N_16  and  C_17
REMARK    9  A    between atoms: N_25  and  N_26
REMARK                            x       y       z     vdW  Elec       q    Type
REMARK                         _______ _______ _______ _____ _____    ______ ____
ROOT
ATOM      1  C   UNL     1       1.254   9.386  19.468  0.00  0.00    +0.000 C 
ENDROOT
BRANCH   1   4
ATOM      2  C   UNL     1      -1.613  11.259  18.593  0.00  0.00    +0.000 A 
ATOM      3  N   UNL     1      -1.088  10.080  18.851  0.00  0.00    +0.000 NA
ATOM      4  N   UNL     1       0.273  10.340  19.010  0.00  0.00    +0.000 N 
ATOM      5  C   UNL     1       0.531  11.709  18.897  0.00  0.00    +0.000 A 
ATOM      6  O   UNL     1       1.586  12.294  19.098  0.00  0.00    +0.000 OA
ATOM      7  N   UNL     1      -0.690  12.272  18.586  0.00  0.00    +0.000 N 
BRANCH   2  12
ATOM      8  C   UNL     1      -7.089  12.816  17.477  0.00  0.00    +0.000 C 
ATOM      9  C   UNL     1      -5.715  12.332  17.835  0.00  0.00    +0.000 A 
ATOM     10  C   UNL     1      -5.171  12.494  19.118  0.00  0.00    +0.000 A 
ATOM     11  C   UNL     1      -3.848  12.099  19.392  0.00  0.00    +0.000 A 
ATOM     12  C   UNL     1      -3.060  11.536  18.381  0.00  0.00    +0.000 A 
ATOM     13  C   UNL     1      -3.643  11.294  17.132  0.00  0.00    +0.000 A 
ATOM     14  C   UNL     1      -4.942  11.714  16.850  0.00  0.00    +0.000 A 
ENDBRANCH   2  12
BRANCH   7  15
ATOM     15  N   UNL     1      -0.893  13.659  18.532  0.00  0.00    +0.000 N 
ATOM     16  H   UNL     1      -1.459  13.906  19.351  0.00  0.00    +0.000 HD
ATOM     17  H   UNL     1      -1.482  13.860  17.722  0.00  0.00    +0.000 HD
ENDBRANCH   7  15
ENDBRANCH   1   4
BRANCH   1  18
ATOM     18  C   UNL     1       1.981   8.614  18.382  0.00  0.00    +0.000 C 
ATOM     19  O   UNL     1       2.144   9.095  17.255  0.00  0.00    +0.000 OA
ATOM     20  N   UNL     1       2.493   7.377  18.726  0.00  0.00    +0.000 N 
ATOM     21  H   UNL     1       2.616   7.166  19.717  0.00  0.00    +0.000 HD
BRANCH  20  22
ATOM     22  N   UNL     1       3.466   6.893  17.847  0.00  0.00    +0.000 N 
ATOM     23  H   UNL     1       3.532   7.390  16.956  0.00  0.00    +0.000 HD
BRANCH  22  24
ATOM     24  C   UNL     1       4.166   5.722  18.000  0.00  0.00    +0.000 C 
ATOM     25  S   UNL     1       5.807   5.601  18.274  0.00  0.00    +0.000 S 
BRANCH  24  26
ATOM     26  N   UNL     1       3.383   4.587  17.949  0.00  0.00    +0.000 N 
ATOM     27  H   UNL     1       3.129   4.259  17.023  0.00  0.00    +0.000 HD
BRANCH  26  28
ATOM     28  C   UNL     1       2.740   3.971  19.048  0.00  0.00    +0.000 A 
ATOM     29  C   UNL     1       3.465   3.336  20.065  0.00  0.00    +0.000 A 
ATOM     30  C   UNL     1       2.811   2.747  21.147  0.00  0.00    +0.000 A 
ATOM     31  C   UNL     1       1.424   2.789  21.225  0.00  0.00    +0.000 A 
ATOM     32  C   UNL     1       0.694   3.439  20.228  0.00  0.00    +0.000 A 
ATOM     33  C   UNL     1       1.351   4.048  19.152  0.00  0.00    +0.000 A 
ENDBRANCH  26  28
ENDBRANCH  24  26
ENDBRANCH  22  24
ENDBRANCH  20  22
ENDBRANCH   1  18
TORSDOF 8
ENDMDL
MODEL 8
REMARK VINA RESULT:      -7.8      2.445     10.051
REMARK  Name = 
REMARK  9 active torsions:
REMARK  status: ('A' for Active; 'I' for Inactive)
REMARK    1  A    between atoms: C_1  and  C_2
REMARK    2  A    between atoms: C_5  and  C_6
REMARK    3  A    between atoms: N_8  and  C_9
REMARK    4  A    between atoms: C_9  and  C_10
REMARK    5  A    between atoms: N_12  and  N_13
REMARK    6  A    between atoms: N_13  and  C_14
REMARK    7  A    between atoms: C_14  and  N_16
REMARK    8  A    between atoms: N_16  and  C_17
REMARK    9  A    between atoms: N_25  and  N_26
REMARK                            x       y       z     vdW  Elec       q    Type
REMARK                         _______ _______ _______ _____ _____    ______ ____
ROOT
ATOM      1  C   UNL     1       1.104   9.245  20.418  0.00  0.00    +0.000 C 
ENDROOT
BRANCH   1   4
ATOM      2  C   UNL     1      -1.437  11.102  18.809  0.00  0.00    +0.000 A 
ATOM      3  N   UNL     1      -1.104  10.026  19.491  0.00  0.00    +0.000 NA
ATOM      4  N   UNL     1       0.283  10.112  19.608  0.00  0.00    +0.000 N 
ATOM      5  C   UNL     1       0.755  11.293  19.029  0.00  0.00    +0.000 A 
ATOM      6  O   UNL     1       1.894  11.740  19.056  0.00  0.00    +0.000 OA
ATOM      7  N   UNL     1      -0.363  11.889  18.485  0.00  0.00    +0.000 N 
BRANCH   2  12
ATOM      8  C   UNL     1      -7.024  12.212  17.712  0.00  0.00    +0.000 C 
ATOM      9  C   UNL     1      -5.552  12.007  17.919  0.00  0.00    +0.000 A 
ATOM     10  C   UNL     1      -4.724  11.456  16.930  0.00  0.00    +0.000 A 
ATOM     11  C   UNL     1      -3.364  11.204  17.192  0.00  0.00    +0.000 A 
ATOM     12  C   UNL     1      -2.823  11.504  18.449  0.00  0.00    +0.000 A 
ATOM     13  C   UNL     1      -3.637  12.138  19.395  0.00  0.00    +0.000 A 
ATOM     14  C   UNL     1      -4.991  12.358  19.148  0.00  0.00    +0.000 A 
ENDBRANCH   2  12
BRANCH   7  15
ATOM     15  N   UNL     1      -0.342  13.179  17.933  0.00  0.00    +0.000 N 
ATOM     16  H   UNL     1       0.284  13.142  17.122  0.00  0.00    +0.000 HD
ATOM     17  H   UNL     1       0.113  13.801  18.602  0.00  0.00    +0.000 HD
ENDBRANCH   7  15
ENDBRANCH   1   4
BRANCH   1  18
ATOM     18  C   UNL     1       1.821   8.132  19.674  0.00  0.00    +0.000 C 
ATOM     19  O   UNL     1       2.096   8.238  18.475  0.00  0.00    +0.000 OA
ATOM     20  N   UNL     1       2.191   7.022  20.412  0.00  0.00    +0.000 N 
ATOM     21  H   UNL     1       2.233   7.111  21.427  0.00  0.00    +0.000 HD
BRANCH  20  22
ATOM     22  N   UNL     1       3.166   6.227  19.803  0.00  0.00    +0.000 N 
ATOM     23  H   UNL     1       3.952   6.739  19.396  0.00  0.00    +0.000 HD
BRANCH  22  24
ATOM     24  C   UNL     1       3.049   4.885  19.538  0.00  0.00    +0.000 C 
ATOM     25  S   UNL     1       1.615   4.047  19.384  0.00  0.00    +0.000 S 
BRANCH  24  26
ATOM     26  N   UNL     1       4.256   4.240  19.358  0.00  0.00    +0.000 N 
ATOM     27  H   UNL     1       4.641   3.775  20.174  0.00  0.00    +0.000 HD
BRANCH  26  28
ATOM     28  C   UNL     1       5.090   4.341  18.221  0.00  0.00    +0.000 A 
ATOM     29  C   UNL     1       6.445   4.684  18.327  0.00  0.00    +0.000 A 
ATOM     30  C   UNL     1       7.252   4.764  17.192  0.00  0.00    +0.000 A 
ATOM     31  C   UNL     1       6.713   4.498  15.939  0.00  0.00    +0.000 A 
ATOM     32  C   UNL     1       5.372   4.134  15.825  0.00  0.00    +0.000 A 
ATOM     33  C   UNL     1       4.565   4.034  16.965  0.00  0.00    +0.000 A 
ENDBRANCH  26  28
ENDBRANCH  24  26
ENDBRANCH  22  24
ENDBRANCH  20  22
ENDBRANCH   1  18
TORSDOF 8
ENDMDL
MODEL 9
REMARK VINA RESULT:      -7.7      0.582      1.378
REMARK  Name = 
REMARK  9 active torsions:
REMARK  status: ('A' for Active; 'I' for Inactive)
REMARK    1  A    between atoms: C_1  and  C_2
REMARK    2  A    between atoms: C_5  and  C_6
REMARK    3  A    between atoms: N_8  and  C_9
REMARK    4  A    between atoms: C_9  and  C_10
REMARK    5  A    between atoms: N_12  and  N_13
REMARK    6  A    between atoms: N_13  and  C_14
REMARK    7  A    between atoms: C_14  and  N_16
REMARK    8  A    between atoms: N_16  and  C_17
REMARK    9  A    between atoms: N_25  and  N_26
REMARK                            x       y       z     vdW  Elec       q    Type
REMARK                         _______ _______ _______ _____ _____    ______ ____
ROOT
ATOM      1  C   UNL     1       1.056  10.337  19.261  0.00  0.00    +0.000 C 
ENDROOT
BRANCH   1   4
ATOM      2  C   UNL     1       2.693   7.340  18.351  0.00  0.00    +0.000 A 
ATOM      3  N   UNL     1       2.230   8.514  17.978  0.00  0.00    +0.000 NA
ATOM      4  N   UNL     1       1.586   9.003  19.114  0.00  0.00    +0.000 N 
ATOM      5  C   UNL     1       1.729   8.115  20.184  0.00  0.00    +0.000 A 
ATOM      6  O   UNL     1       1.394   8.281  21.349  0.00  0.00    +0.000 OA
ATOM      7  N   UNL     1       2.405   7.035  19.655  0.00  0.00    +0.000 N 
BRANCH   2  12
ATOM      8  C   UNL     1       6.146   3.623  15.537  0.00  0.00    +0.000 C 
ATOM      9  C   UNL     1       5.210   4.616  16.162  0.00  0.00    +0.000 A 
ATOM     10  C   UNL     1       5.372   6.000  16.008  0.00  0.00    +0.000 A 
ATOM     11  C   UNL     1       4.522   6.901  16.677  0.00  0.00    +0.000 A 
ATOM     12  C   UNL     1       3.501   6.419  17.506  0.00  0.00    +0.000 A 
ATOM     13  C   UNL     1       3.292   5.037  17.578  0.00  0.00    +0.000 A 
ATOM     14  C   UNL     1       4.153   4.145  16.942  0.00  0.00    +0.000 A 
ENDBRANCH   2  12
BRANCH   7  15
ATOM     15  N   UNL     1       2.879   5.976  20.445  0.00  0.00    +0.000 N 
ATOM     16  H   UNL     1       2.537   5.111  20.012  0.00  0.00    +0.000 HD
ATOM     17  H   UNL     1       2.415   6.028  21.354  0.00  0.00    +0.000 HD
ENDBRANCH   7  15
ENDBRANCH   1   4
BRANCH   1  18
ATOM     18  C   UNL     1      -0.409  10.507  18.901  0.00  0.00    +0.000 C 
ATOM     19  O   UNL     1      -1.304  10.149  19.673  0.00  0.00    +0.000 OA
ATOM     20  N   UNL     1      -0.692  11.124  17.696  0.00  0.00    +0.000 N 
ATOM     21  H   UNL     1       0.043  11.677  17.254  0.00  0.00    +0.000 HD
BRANCH  20  22
ATOM     22  N   UNL     1      -2.000  11.605  17.589  0.00  0.00    +0.000 N 
ATOM     23  H   UNL     1      -2.298  12.223  18.348  0.00  0.00    +0.000 HD
BRANCH  22  24
ATOM     24  C   UNL     1      -2.941  11.164  16.692  0.00  0.00    +0.000 C 
ATOM     25  S   UNL     1      -2.864   9.742  15.824  0.00  0.00    +0.000 S 
BRANCH  24  26
ATOM     26  N   UNL     1      -4.036  11.995  16.572  0.00  0.00    +0.000 N 
ATOM     27  H   UNL     1      -3.947  12.762  15.913  0.00  0.00    +0.000 HD
BRANCH  26  28
ATOM     28  C   UNL     1      -5.171  12.002  17.417  0.00  0.00    +0.000 A 
ATOM     29  C   UNL     1      -5.196  11.290  18.623  0.00  0.00    +0.000 A 
ATOM     30  C   UNL     1      -6.321  11.321  19.447  0.00  0.00    +0.000 A 
ATOM     31  C   UNL     1      -7.432  12.069  19.074  0.00  0.00    +0.000 A 
ATOM     32  C   UNL     1      -7.408  12.800  17.886  0.00  0.00    +0.000 A 
ATOM     33  C   UNL     1      -6.272  12.784  17.067  0.00  0.00    +0.000 A 
ENDBRANCH  26  28
ENDBRANCH  24  26
ENDBRANCH  22  24
ENDBRANCH  20  22
ENDBRANCH   1  18
TORSDOF 8
ENDMDL
