MODEL 1
REMARK VINA RESULT:      -7.8      0.000      0.000
REMARK  Name = 
REMARK  7 active torsions:
REMARK  status: ('A' for Active; 'I' for Inactive)
REMARK    1  A    between atoms: C_2  and  C_3
REMARK    2  A    between atoms: C_3  and  C_4
REMARK    3  A    between atoms: C_4  and  C_5
REMARK    4  A    between atoms: C_5  and  O_6
REMARK    5  A    between atoms: O_6  and  C_7
REMARK    6  A    between atoms: C_7  and  C_8
REMARK    7  A    between atoms: C_18  and  N_19
REMARK                            x       y       z     vdW  Elec       q    Type
REMARK                         _______ _______ _______ _____ _____    ______ ____
ROOT
ATOM      1  O   UNL     1       7.205   5.426  20.134  0.00  0.00    +0.000 OA
ATOM      2  C   UNL     1       6.978   5.364  18.925  0.00  0.00    +0.000 C 
ATOM      3  N   UNL     1       5.939   4.598  18.411  0.00  0.00    +0.000 N 
ATOM      4  C   UNL     1       5.612   4.440  16.994  0.00  0.00    +0.000 C 
ATOM      5  C   UNL     1       4.202   4.958  16.718  0.00  0.00    +0.000 C 
ATOM      6  C   UNL     1       3.172   4.302  17.643  0.00  0.00    +0.000 C 
ATOM      7  C   UNL     1       3.587   4.411  19.122  0.00  0.00    +0.000 C 
ATOM      8  C   UNL     1       5.025   3.914  19.330  0.00  0.00    +0.000 C 
ENDROOT
BRANCH   7   9
ATOM      9  N   UNL     1       2.665   3.714  19.999  0.00  0.00    +0.000 N 
ATOM     10  C   UNL     1       1.306   3.778  20.002  0.00  0.00    +0.000 A 
ATOM     11  N   UNL     1       0.834   3.014  20.958  0.00  0.00    +0.000 NA
ATOM     12  C   UNL     1       1.961   2.496  21.526  0.00  0.00    +0.000 A 
ATOM     13  N   UNL     1       3.110   2.891  20.970  0.00  0.00    +0.000 NA
ENDBRANCH   7   9
BRANCH   2  14
ATOM     14  C   UNL     1       7.813   6.140  17.922  0.00  0.00    +0.000 C 
BRANCH  14  15
ATOM     15  C   UNL     1       8.208   7.526  18.436  0.00  0.00    +0.000 C 
BRANCH  15  16
ATOM     16  C   UNL     1       7.646   8.633  17.552  0.00  0.00    +0.000 C 
BRANCH  16  17
ATOM     17  O   UNL     1       8.110   9.892  18.029  0.00  0.00    +0.000 OA
BRANCH  17  18
ATOM     18  C   UNL     1       9.091   9.745  19.056  0.00  0.00    +0.000 C 
BRANCH  18  19
ATOM     19  C   UNL     1      10.038  10.920  19.043  0.00  0.00    +0.000 A 
ATOM     20  C   UNL     1      10.557  11.428  17.843  0.00  0.00    +0.000 A 
ATOM     21  C   UNL     1      11.442  12.506  17.849  0.00  0.00    +0.000 A 
ATOM     22  C   UNL     1      11.806  13.103  19.054  0.00  0.00    +0.000 A 
ATOM     23  C   UNL     1      11.269  12.635  20.251  0.00  0.00    +0.000 A 
ATOM     24  C   UNL     1      10.384  11.554  20.246  0.00  0.00    +0.000 A 
ENDBRANCH  18  19
ENDBRANCH  17  18
ENDBRANCH  16  17
ENDBRANCH  15  16
ENDBRANCH  14  15
ENDBRANCH   2  14
TORSDOF 7
ENDMDL
MODEL 2
REMARK VINA RESULT:      -7.7      0.565      1.019
REMARK  Name = 
REMARK  7 active torsions:
REMARK  status: ('A' for Active; 'I' for Inactive)
REMARK    1  A    between atoms: C_2  and  C_3
REMARK    2  A    between atoms: C_3  and  C_4
REMARK    3  A    between atoms: C_4  and  C_5
REMARK    4  A    between atoms: C_5  and  O_6
REMARK    5  A    between atoms: O_6  and  C_7
REMARK    6  A    between atoms: C_7  and  C_8
REMARK    7  A    between atoms: C_18  and  N_19
REMARK                            x       y       z     vdW  Elec       q    Type
REMARK                         _______ _______ _______ _____ _____    ______ ____
ROOT
ATOM      1  O   UNL     1       7.349   5.296  20.055  0.00  0.00    +0.000 OA
ATOM      2  C   UNL     1       7.006   5.463  18.885  0.00  0.00    +0.000 C 
ATOM      3  N   UNL     1       5.875   4.853  18.357  0.00  0.00    +0.000 N 
ATOM      4  C   UNL     1       5.404   4.969  16.977  0.00  0.00    +0.000 C 
ATOM      5  C   UNL     1       4.012   5.595  16.945  0.00  0.00    +0.000 C 
ATOM      6  C   UNL     1       3.034   4.833  17.844  0.00  0.00    +0.000 C 
ATOM      7  C   UNL     1       3.593   4.654  19.268  0.00  0.00    +0.000 C 
ATOM      8  C   UNL     1       5.009   4.059  19.233  0.00  0.00    +0.000 C 
ENDROOT
BRANCH   7   9
ATOM      9  N   UNL     1       2.715   3.855  20.102  0.00  0.00    +0.000 N 
ATOM     10  C   UNL     1       1.355   3.883  20.148  0.00  0.00    +0.000 A 
ATOM     11  N   UNL     1       0.930   3.022  21.042  0.00  0.00    +0.000 NA
ATOM     12  C   UNL     1       2.086   2.484  21.528  0.00  0.00    +0.000 A 
ATOM     13  N   UNL     1       3.208   2.958  20.979  0.00  0.00    +0.000 NA
ENDBRANCH   7   9
BRANCH   2  14
ATOM     14  C   UNL     1       7.790   6.367  17.950  0.00  0.00    +0.000 C 
BRANCH  14  15
ATOM     15  C   UNL     1       8.169   7.698  18.603  0.00  0.00    +0.000 C 
BRANCH  15  16
ATOM     16  C   UNL     1       8.100   8.850  17.607  0.00  0.00    +0.000 C 
BRANCH  16  17
ATOM     17  O   UNL     1       8.154  10.083  18.317  0.00  0.00    +0.000 OA
BRANCH  17  18
ATOM     18  C   UNL     1       9.214  10.104  19.273  0.00  0.00    +0.000 C 
BRANCH  18  19
ATOM     19  C   UNL     1      10.231  11.156  18.900  0.00  0.00    +0.000 A 
ATOM     20  C   UNL     1      11.391  11.354  19.662  0.00  0.00    +0.000 A 
ATOM     21  C   UNL     1      12.314  12.340  19.312  0.00  0.00    +0.000 A 
ATOM     22  C   UNL     1      12.099  13.127  18.182  0.00  0.00    +0.000 A 
ATOM     23  C   UNL     1      10.971  12.915  17.393  0.00  0.00    +0.000 A 
ATOM     24  C   UNL     1      10.045  11.930  17.744  0.00  0.00    +0.000 A 
ENDBRANCH  18  19
ENDBRANCH  17  18
ENDBRANCH  16  17
ENDBRANCH  15  16
ENDBRANCH  14  15
ENDBRANCH   2  14
TORSDOF 7
ENDMDL
MODEL 3
REMARK VINA RESULT:      -7.6      1.037      1.469
REMARK  Name = 
REMARK  7 active torsions:
REMARK  status: ('A' for Active; 'I' for Inactive)
REMARK    1  A    between atoms: C_2  and  C_3
REMARK    2  A    between atoms: C_3  and  C_4
REMARK    3  A    between atoms: C_4  and  C_5
REMARK    4  A    between atoms: C_5  and  O_6
REMARK    5  A    between atoms: O_6  and  C_7
REMARK    6  A    between atoms: C_7  and  C_8
REMARK    7  A    between atoms: C_18  and  N_19
REMARK                            x       y       z     vdW  Elec       q    Type
REMARK                         _______ _______ _______ _____ _____    ______ ____
ROOT
ATOM      1  O   UNL     1       7.235   4.427  18.584  0.00  0.00    +0.000 OA
ATOM      2  C   UNL     1       6.685   5.277  17.883  0.00  0.00    +0.000 C 
ATOM      3  N   UNL     1       5.308   5.299  17.702  0.00  0.00    +0.000 N 
ATOM      4  C   UNL     1       4.570   6.248  16.868  0.00  0.00    +0.000 C 
ATOM      5  C   UNL     1       3.592   7.050  17.723  0.00  0.00    +0.000 C 
ATOM      6  C   UNL     1       2.673   6.132  18.536  0.00  0.00    +0.000 C 
ATOM      7  C   UNL     1       3.476   5.090  19.337  0.00  0.00    +0.000 C 
ATOM      8  C   UNL     1       4.469   4.345  18.432  0.00  0.00    +0.000 C 
ENDROOT
BRANCH   7   9
ATOM      9  N   UNL     1       2.613   4.159  20.038  0.00  0.00    +0.000 N 
ATOM     10  C   UNL     1       1.883   3.138  19.511  0.00  0.00    +0.000 A 
ATOM     11  N   UNL     1       1.219   2.535  20.468  0.00  0.00    +0.000 NA
ATOM     12  C   UNL     1       1.577   3.235  21.582  0.00  0.00    +0.000 A 
ATOM     13  N   UNL     1       2.435   4.238  21.372  0.00  0.00    +0.000 NA
ENDBRANCH   7   9
BRANCH   2  14
ATOM     14  C   UNL     1       7.481   6.367  17.189  0.00  0.00    +0.000 C 
BRANCH  14  15
ATOM     15  C   UNL     1       7.947   7.459  18.155  0.00  0.00    +0.000 C 
BRANCH  15  16
ATOM     16  C   UNL     1       7.477   8.839  17.709  0.00  0.00    +0.000 C 
BRANCH  16  17
ATOM     17  O   UNL     1       8.579   9.739  17.742  0.00  0.00    +0.000 OA
BRANCH  17  18
ATOM     18  C   UNL     1       9.083   9.920  19.066  0.00  0.00    +0.000 C 
BRANCH  18  19
ATOM     19  C   UNL     1      10.093  11.042  19.089  0.00  0.00    +0.000 A 
ATOM     20  C   UNL     1      10.358  11.762  20.263  0.00  0.00    +0.000 A 
ATOM     21  C   UNL     1      11.284  12.806  20.265  0.00  0.00    +0.000 A 
ATOM     22  C   UNL     1      11.973  13.129  19.098  0.00  0.00    +0.000 A 
ATOM     23  C   UNL     1      11.749  12.397  17.934  0.00  0.00    +0.000 A 
ATOM     24  C   UNL     1      10.820  11.354  17.931  0.00  0.00    +0.000 A 
ENDBRANCH  18  19
ENDBRANCH  17  18
ENDBRANCH  16  17
ENDBRANCH  15  16
ENDBRANCH  14  15
ENDBRANCH   2  14
TORSDOF 7
ENDMDL
MODEL 4
REMARK VINA RESULT:      -7.2      5.368      8.495
REMARK  Name = 
REMARK  7 active torsions:
REMARK  status: ('A' for Active; 'I' for Inactive)
REMARK    1  A    between atoms: C_2  and  C_3
REMARK    2  A    between atoms: C_3  and  C_4
REMARK    3  A    between atoms: C_4  and  C_5
REMARK    4  A    between atoms: C_5  and  O_6
REMARK    5  A    between atoms: O_6  and  C_7
REMARK    6  A    between atoms: C_7  and  C_8
REMARK    7  A    between atoms: C_18  and  N_19
REMARK                            x       y       z     vdW  Elec       q    Type
REMARK                         _______ _______ _______ _____ _____    ______ ____
ROOT
ATOM      1  O   UNL     1       2.949   6.394  19.843  0.00  0.00    +0.000 OA
ATOM      2  C   UNL     1       2.806   7.113  18.854  0.00  0.00    +0.000 C 
ATOM      3  N   UNL     1       1.860   8.130  18.816  0.00  0.00    +0.000 N 
ATOM      4  C   UNL     1       1.599   9.013  17.680  0.00  0.00    +0.000 C 
ATOM      5  C   UNL     1       1.866  10.466  18.069  0.00  0.00    +0.000 C 
ATOM      6  C   UNL     1       1.082  10.863  19.324  0.00  0.00    +0.000 C 
ATOM      7  C   UNL     1       1.313   9.867  20.476  0.00  0.00    +0.000 C 
ATOM      8  C   UNL     1       1.068   8.423  20.013  0.00  0.00    +0.000 C 
ENDROOT
BRANCH   7   9
ATOM      9  N   UNL     1       0.505  10.183  21.639  0.00  0.00    +0.000 N 
ATOM     10  C   UNL     1       0.475   9.535  22.836  0.00  0.00    +0.000 A 
ATOM     11  N   UNL     1      -0.396  10.115  23.625  0.00  0.00    +0.000 NA
ATOM     12  C   UNL     1      -0.885  11.130  22.855  0.00  0.00    +0.000 A 
ATOM     13  N   UNL     1      -0.360  11.218  21.630  0.00  0.00    +0.000 NA
ENDBRANCH   7   9
BRANCH   2  14
ATOM     14  C   UNL     1       3.673   6.942  17.619  0.00  0.00    +0.000 C 
BRANCH  14  15
ATOM     15  C   UNL     1       4.961   6.170  17.909  0.00  0.00    +0.000 C 
BRANCH  15  16
ATOM     16  C   UNL     1       5.082   4.932  17.028  0.00  0.00    +0.000 C 
BRANCH  16  17
ATOM     17  O   UNL     1       4.983   3.768  17.843  0.00  0.00    +0.000 OA
BRANCH  17  18
ATOM     18  C   UNL     1       3.774   3.048  17.602  0.00  0.00    +0.000 C 
BRANCH  18  19
ATOM     19  C   UNL     1       2.904   3.064  18.835  0.00  0.00    +0.000 A 
ATOM     20  C   UNL     1       1.525   3.305  18.755  0.00  0.00    +0.000 A 
ATOM     21  C   UNL     1       0.737   3.330  19.906  0.00  0.00    +0.000 A 
ATOM     22  C   UNL     1       1.314   3.094  21.152  0.00  0.00    +0.000 A 
ATOM     23  C   UNL     1       2.677   2.815  21.244  0.00  0.00    +0.000 A 
ATOM     24  C   UNL     1       3.466   2.792  20.092  0.00  0.00    +0.000 A 
ENDBRANCH  18  19
ENDBRANCH  17  18
ENDBRANCH  16  17
ENDBRANCH  15  16
ENDBRANCH  14  15
ENDBRANCH   2  14
TORSDOF 7
ENDMDL
MODEL 5
REMARK VINA RESULT:      -7.2      1.351      1.616
REMARK  Name = 
REMARK  7 active torsions:
REMARK  status: ('A' for Active; 'I' for Inactive)
REMARK    1  A    between atoms: C_2  and  C_3
REMARK    2  A    between atoms: C_3  and  C_4
REMARK    3  A    between atoms: C_4  and  C_5
REMARK    4  A    between atoms: C_5  and  O_6
REMARK    5  A    between atoms: O_6  and  C_7
REMARK    6  A    between atoms: C_7  and  C_8
REMARK    7  A    between atoms: C_18  and  N_19
REMARK                            x       y       z     vdW  Elec       q    Type
REMARK                         _______ _______ _______ _____ _____    ______ ____
ROOT
ATOM      1  O   UNL     1       7.818   5.785  19.266  0.00  0.00    +0.000 OA
ATOM      2  C   UNL     1       7.218   6.263  18.303  0.00  0.00    +0.000 C 
ATOM      3  N   UNL     1       5.944   5.839  17.947  0.00  0.00    +0.000 N 
ATOM      4  C   UNL     1       5.166   6.326  16.808  0.00  0.00    +0.000 C 
ATOM      5  C   UNL     1       3.868   6.967  17.292  0.00  0.00    +0.000 C 
ATOM      6  C   UNL     1       3.073   6.014  18.191  0.00  0.00    +0.000 C 
ATOM      7  C   UNL     1       3.942   5.453  19.331  0.00  0.00    +0.000 C 
ATOM      8  C   UNL     1       5.250   4.859  18.787  0.00  0.00    +0.000 C 
ENDROOT
BRANCH   7   9
ATOM      9  N   UNL     1       3.225   4.480  20.134  0.00  0.00    +0.000 N 
ATOM     10  C   UNL     1       2.197   4.705  20.998  0.00  0.00    +0.000 A 
ATOM     11  N   UNL     1       1.829   3.572  21.544  0.00  0.00    +0.000 NA
ATOM     12  C   UNL     1       2.676   2.665  20.978  0.00  0.00    +0.000 A 
ATOM     13  N   UNL     1       3.548   3.171  20.101  0.00  0.00    +0.000 NA
ENDBRANCH   7   9
BRANCH   2  14
ATOM     14  C   UNL     1       7.829   7.366  17.457  0.00  0.00    +0.000 C 
BRANCH  14  15
ATOM     15  C   UNL     1       7.414   8.763  17.925  0.00  0.00    +0.000 C 
BRANCH  15  16
ATOM     16  C   UNL     1       8.600   9.719  17.954  0.00  0.00    +0.000 C 
BRANCH  16  17
ATOM     17  O   UNL     1       9.257   9.610  19.213  0.00  0.00    +0.000 OA
BRANCH  17  18
ATOM     18  C   UNL     1       9.361  10.872  19.873  0.00  0.00    +0.000 C 
BRANCH  18  19
ATOM     19  C   UNL     1       9.999  11.887  18.956  0.00  0.00    +0.000 A 
ATOM     20  C   UNL     1       9.365  13.101  18.655  0.00  0.00    +0.000 A 
ATOM     21  C   UNL     1       9.961  14.024  17.795  0.00  0.00    +0.000 A 
ATOM     22  C   UNL     1      11.210  13.753  17.240  0.00  0.00    +0.000 A 
ATOM     23  C   UNL     1      11.871  12.568  17.561  0.00  0.00    +0.000 A 
ATOM     24  C   UNL     1      11.272  11.644  18.419  0.00  0.00    +0.000 A 
ENDBRANCH  18  19
ENDBRANCH  17  18
ENDBRANCH  16  17
ENDBRANCH  15  16
ENDBRANCH  14  15
ENDBRANCH   2  14
TORSDOF 7
ENDMDL
MODEL 6
REMARK VINA RESULT:      -7.1      5.583      8.426
REMARK  Name = 
REMARK  7 active torsions:
REMARK  status: ('A' for Active; 'I' for Inactive)
REMARK    1  A    between atoms: C_2  and  C_3
REMARK    2  A    between atoms: C_3  and  C_4
REMARK    3  A    between atoms: C_4  and  C_5
REMARK    4  A    between atoms: C_5  and  O_6
REMARK    5  A    between atoms: O_6  and  C_7
REMARK    6  A    between atoms: C_7  and  C_8
REMARK    7  A    between atoms: C_18  and  N_19
REMARK                            x       y       z     vdW  Elec       q    Type
REMARK                         _______ _______ _______ _____ _____    ______ ____
ROOT
ATOM      1  O   UNL     1       3.296   6.145  19.976  0.00  0.00    +0.000 OA
ATOM      2  C   UNL     1       3.092   6.774  18.938  0.00  0.00    +0.000 C 
ATOM      3  N   UNL     1       2.085   7.726  18.842  0.00  0.00    +0.000 N 
ATOM      4  C   UNL     1       1.750   8.501  17.648  0.00  0.00    +0.000 C 
ATOM      5  C   UNL     1       1.933   9.992  17.918  0.00  0.00    +0.000 C 
ATOM      6  C   UNL     1       1.147  10.438  19.156  0.00  0.00    +0.000 C 
ATOM      7  C   UNL     1       1.458   9.551  20.375  0.00  0.00    +0.000 C 
ATOM      8  C   UNL     1       1.296   8.063  20.030  0.00  0.00    +0.000 C 
ENDROOT
BRANCH   7   9
ATOM      9  N   UNL     1       0.653   9.907  21.528  0.00  0.00    +0.000 N 
ATOM     10  C   UNL     1       0.127  11.125  21.835  0.00  0.00    +0.000 A 
ATOM     11  N   UNL     1      -0.527  11.046  22.969  0.00  0.00    +0.000 NA
ATOM     12  C   UNL     1      -0.368   9.739  23.328  0.00  0.00    +0.000 A 
ATOM     13  N   UNL     1       0.343   8.997  22.474  0.00  0.00    +0.000 NA
ENDBRANCH   7   9
BRANCH   2  14
ATOM     14  C   UNL     1       3.947   6.560  17.701  0.00  0.00    +0.000 C 
BRANCH  14  15
ATOM     15  C   UNL     1       4.930   5.399  17.861  0.00  0.00    +0.000 C 
BRANCH  15  16
ATOM     16  C   UNL     1       4.811   4.403  16.713  0.00  0.00    +0.000 C 
BRANCH  16  17
ATOM     17  O   UNL     1       3.616   3.645  16.876  0.00  0.00    +0.000 OA
BRANCH  17  18
ATOM     18  C   UNL     1       3.785   2.574  17.805  0.00  0.00    +0.000 C 
BRANCH  18  19
ATOM     19  C   UNL     1       2.918   2.797  19.020  0.00  0.00    +0.000 A 
ATOM     20  C   UNL     1       3.391   2.536  20.314  0.00  0.00    +0.000 A 
ATOM     21  C   UNL     1       2.571   2.734  21.426  0.00  0.00    +0.000 A 
ATOM     22  C   UNL     1       1.274   3.215  21.260  0.00  0.00    +0.000 A 
ATOM     23  C   UNL     1       0.804   3.516  19.983  0.00  0.00    +0.000 A 
ATOM     24  C   UNL     1       1.622   3.315  18.870  0.00  0.00    +0.000 A 
ENDBRANCH  18  19
ENDBRANCH  17  18
ENDBRANCH  16  17
ENDBRANCH  15  16
ENDBRANCH  14  15
ENDBRANCH   2  14
TORSDOF 7
ENDMDL
MODEL 7
REMARK VINA RESULT:      -7.1      5.601      8.678
REMARK  Name = 
REMARK  7 active torsions:
REMARK  status: ('A' for Active; 'I' for Inactive)
REMARK    1  A    between atoms: C_2  and  C_3
REMARK    2  A    between atoms: C_3  and  C_4
REMARK    3  A    between atoms: C_4  and  C_5
REMARK    4  A    between atoms: C_5  and  O_6
REMARK    5  A    between atoms: O_6  and  C_7
REMARK    6  A    between atoms: C_7  and  C_8
REMARK    7  A    between atoms: C_18  and  N_19
REMARK                            x       y       z     vdW  Elec       q    Type
REMARK                         _______ _______ _______ _____ _____    ______ ____
ROOT
ATOM      1  O   UNL     1       2.612   6.579  20.035  0.00  0.00    +0.000 OA
ATOM      2  C   UNL     1       2.563   7.274  19.020  0.00  0.00    +0.000 C 
ATOM      3  N   UNL     1       1.681   8.341  18.903  0.00  0.00    +0.000 N 
ATOM      4  C   UNL     1       1.531   9.202  17.730  0.00  0.00    +0.000 C 
ATOM      5  C   UNL     1       1.860  10.648  18.093  0.00  0.00    +0.000 C 
ATOM      6  C   UNL     1       1.037  11.127  19.292  0.00  0.00    +0.000 C 
ATOM      7  C   UNL     1       1.148  10.156  20.482  0.00  0.00    +0.000 C 
ATOM      8  C   UNL     1       0.845   8.715  20.047  0.00  0.00    +0.000 C 
ENDROOT
BRANCH   7   9
ATOM      9  N   UNL     1       0.301  10.553  21.590  0.00  0.00    +0.000 N 
ATOM     10  C   UNL     1      -0.037   9.821  22.687  0.00  0.00    +0.000 A 
ATOM     11  N   UNL     1      -0.835  10.524  23.454  0.00  0.00    +0.000 NA
ATOM     12  C   UNL     1      -0.963  11.700  22.773  0.00  0.00    +0.000 A 
ATOM     13  N   UNL     1      -0.281  11.769  21.626  0.00  0.00    +0.000 NA
ENDBRANCH   7   9
BRANCH   2  14
ATOM     14  C   UNL     1       3.482   7.017  17.839  0.00  0.00    +0.000 C 
BRANCH  14  15
ATOM     15  C   UNL     1       4.598   6.024  18.170  0.00  0.00    +0.000 C 
BRANCH  15  16
ATOM     16  C   UNL     1       4.838   5.049  17.023  0.00  0.00    +0.000 C 
BRANCH  16  17
ATOM     17  O   UNL     1       4.729   3.717  17.513  0.00  0.00    +0.000 OA
BRANCH  17  18
ATOM     18  C   UNL     1       3.406   3.200  17.365  0.00  0.00    +0.000 C 
BRANCH  18  19
ATOM     19  C   UNL     1       2.702   3.182  18.700  0.00  0.00    +0.000 A 
ATOM     20  C   UNL     1       3.367   2.796  19.873  0.00  0.00    +0.000 A 
ATOM     21  C   UNL     1       2.699   2.772  21.097  0.00  0.00    +0.000 A 
ATOM     22  C   UNL     1       1.360   3.153  21.168  0.00  0.00    +0.000 A 
ATOM     23  C   UNL     1       0.697   3.576  20.018  0.00  0.00    +0.000 A 
ATOM     24  C   UNL     1       1.365   3.598  18.792  0.00  0.00    +0.000 A 
ENDBRANCH  18  19
ENDBRANCH  17  18
ENDBRANCH  16  17
ENDBRANCH  15  16
ENDBRANCH  14  15
ENDBRANCH   2  14
TORSDOF 7
ENDMDL
MODEL 8
REMARK VINA RESULT:      -7.1      4.733      8.603
REMARK  Name = 
REMARK  7 active torsions:
REMARK  status: ('A' for Active; 'I' for Inactive)
REMARK    1  A    between atoms: C_2  and  C_3
REMARK    2  A    between atoms: C_3  and  C_4
REMARK    3  A    between atoms: C_4  and  C_5
REMARK    4  A    between atoms: C_5  and  O_6
REMARK    5  A    between atoms: O_6  and  C_7
REMARK    6  A    between atoms: C_7  and  C_8
REMARK    7  A    between atoms: C_18  and  N_19
REMARK                            x       y       z     vdW  Elec       q    Type
REMARK                         _______ _______ _______ _____ _____    ______ ____
ROOT
ATOM      1  O   UNL     1       2.725   5.215  17.442  0.00  0.00    +0.000 OA
ATOM      2  C   UNL     1       3.748   5.290  18.123  0.00  0.00    +0.000 C 
ATOM      3  N   UNL     1       4.967   4.799  17.672  0.00  0.00    +0.000 N 
ATOM      4  C   UNL     1       6.225   4.818  18.418  0.00  0.00    +0.000 C 
ATOM      5  C   UNL     1       7.271   5.639  17.668  0.00  0.00    +0.000 C 
ATOM      6  C   UNL     1       7.441   5.149  16.226  0.00  0.00    +0.000 C 
ATOM      7  C   UNL     1       6.089   5.061  15.494  0.00  0.00    +0.000 C 
ATOM      8  C   UNL     1       5.069   4.258  16.314  0.00  0.00    +0.000 C 
ENDROOT
BRANCH   7   9
ATOM      9  N   UNL     1       6.228   4.512  14.158  0.00  0.00    +0.000 N 
ATOM     10  C   UNL     1       7.265   4.677  13.292  0.00  0.00    +0.000 A 
ATOM     11  N   UNL     1       7.009   4.036  12.177  0.00  0.00    +0.000 NA
ATOM     12  C   UNL     1       5.783   3.486  12.410  0.00  0.00    +0.000 A 
ATOM     13  N   UNL     1       5.263   3.744  13.613  0.00  0.00    +0.000 NA
ENDBRANCH   7   9
BRANCH   2  14
ATOM     14  C   UNL     1       3.742   5.944  19.493  0.00  0.00    +0.000 C 
BRANCH  14  15
ATOM     15  C   UNL     1       2.384   6.554  19.846  0.00  0.00    +0.000 C 
BRANCH  15  16
ATOM     16  C   UNL     1       1.498   5.560  20.588  0.00  0.00    +0.000 C 
BRANCH  16  17
ATOM     17  O   UNL     1       2.285   4.859  21.545  0.00  0.00    +0.000 OA
BRANCH  17  18
ATOM     18  C   UNL     1       1.943   3.474  21.608  0.00  0.00    +0.000 C 
BRANCH  18  19
ATOM     19  C   UNL     1       2.494   2.746  20.406  0.00  0.00    +0.000 A 
ATOM     20  C   UNL     1       1.692   2.462  19.292  0.00  0.00    +0.000 A 
ATOM     21  C   UNL     1       2.213   1.776  18.194  0.00  0.00    +0.000 A 
ATOM     22  C   UNL     1       3.550   1.383  18.188  0.00  0.00    +0.000 A 
ATOM     23  C   UNL     1       4.370   1.693  19.271  0.00  0.00    +0.000 A 
ATOM     24  C   UNL     1       3.848   2.378  20.371  0.00  0.00    +0.000 A 
ENDBRANCH  18  19
ENDBRANCH  17  18
ENDBRANCH  16  17
ENDBRANCH  15  16
ENDBRANCH  14  15
ENDBRANCH   2  14
TORSDOF 7
ENDMDL
MODEL 9
REMARK VINA RESULT:      -7.0      1.451      1.780
REMARK  Name = 
REMARK  7 active torsions:
REMARK  status: ('A' for Active; 'I' for Inactive)
REMARK    1  A    between atoms: C_2  and  C_3
REMARK    2  A    between atoms: C_3  and  C_4
REMARK    3  A    between atoms: C_4  and  C_5
REMARK    4  A    between atoms: C_5  and  O_6
REMARK    5  A    between atoms: O_6  and  C_7
REMARK    6  A    between atoms: C_7  and  C_8
REMARK    7  A    between atoms: C_18  and  N_19
REMARK                            x       y       z     vdW  Elec       q    Type
REMARK                         _______ _______ _______ _____ _____    ______ ____
ROOT
ATOM      1  O   UNL     1       7.061   4.485  18.376  0.00  0.00    +0.000 OA
ATOM      2  C   UNL     1       6.560   5.362  17.673  0.00  0.00    +0.000 C 
ATOM      3  N   UNL     1       5.186   5.465  17.495  0.00  0.00    +0.000 N 
ATOM      4  C   UNL     1       4.502   6.452  16.659  0.00  0.00    +0.000 C 
ATOM      5  C   UNL     1       3.576   7.315  17.513  0.00  0.00    +0.000 C 
ATOM      6  C   UNL     1       2.607   6.456  18.332  0.00  0.00    +0.000 C 
ATOM      7  C   UNL     1       3.350   5.373  19.136  0.00  0.00    +0.000 C 
ATOM      8  C   UNL     1       4.294   4.566  18.233  0.00  0.00    +0.000 C 
ENDROOT
BRANCH   7   9
ATOM      9  N   UNL     1       2.435   4.497  19.845  0.00  0.00    +0.000 N 
ATOM     10  C   UNL     1       2.451   4.165  21.164  0.00  0.00    +0.000 A 
ATOM     11  N   UNL     1       1.468   3.335  21.418  0.00  0.00    +0.000 NA
ATOM     12  C   UNL     1       0.869   3.183  20.202  0.00  0.00    +0.000 A 
ATOM     13  N   UNL     1       1.421   3.880  19.205  0.00  0.00    +0.000 NA
ENDBRANCH   7   9
BRANCH   2  14
ATOM     14  C   UNL     1       7.417   6.401  16.971  0.00  0.00    +0.000 C 
BRANCH  14  15
ATOM     15  C   UNL     1       7.418   7.748  17.697  0.00  0.00    +0.000 C 
BRANCH  15  16
ATOM     16  C   UNL     1       8.496   7.804  18.772  0.00  0.00    +0.000 C 
BRANCH  16  17
ATOM     17  O   UNL     1       8.853   9.163  19.003  0.00  0.00    +0.000 OA
BRANCH  17  18
ATOM     18  C   UNL     1       8.521   9.999  17.894  0.00  0.00    +0.000 C 
BRANCH  18  19
ATOM     19  C   UNL     1       9.340  11.267  17.935  0.00  0.00    +0.000 A 
ATOM     20  C   UNL     1       8.732  12.530  17.931  0.00  0.00    +0.000 A 
ATOM     21  C   UNL     1       9.503  13.693  17.955  0.00  0.00    +0.000 A 
ATOM     22  C   UNL     1      10.893  13.607  18.003  0.00  0.00    +0.000 A 
ATOM     23  C   UNL     1      11.510  12.358  18.046  0.00  0.00    +0.000 A 
ATOM     24  C   UNL     1      10.738  11.195  18.020  0.00  0.00    +0.000 A 
ENDBRANCH  18  19
ENDBRANCH  17  18
ENDBRANCH  16  17
ENDBRANCH  15  16
ENDBRANCH  14  15
ENDBRANCH   2  14
TORSDOF 7
ENDMDL
