MODEL 1
REMARK VINA RESULT:      -6.3      0.000      0.000
REMARK  Name = 
REMARK  15 active torsions:
REMARK  status: ('A' for Active; 'I' for Inactive)
REMARK    1  A    between atoms: C_1  and  C_2
REMARK    2  A    between atoms: C_2  and  C_3
REMARK    3  A    between atoms: C_2  and  C_4
REMARK    4  A    between atoms: C_4  and  C_5
REMARK    5  A    between atoms: C_5  and  N_6
REMARK    6  A    between atoms: C_5  and  C_14
REMARK    7  A    between atoms: C_7  and  O_9
REMARK    8  A    between atoms: O_9  and  C_10
REMARK    9  A    between atoms: C_10  and  C_11
REMARK   10  A    between atoms: C_10  and  C_12
REMARK   11  A    between atoms: C_10  and  C_13
REMARK   12  A    between atoms: N_16  and  C_17
REMARK   13  A    between atoms: N_16  and  N_18
REMARK   14  A    between atoms: N_18  and  C_19
REMARK   15  A    between atoms: N_18  and  C_20
REMARK                            x       y       z     vdW  Elec       q    Type
REMARK                         _______ _______ _______ _____ _____    ______ ____
ROOT
ATOM      1  C   UNL     1       2.519   6.046  19.768  0.00  0.00    +0.000 C 
ENDROOT
BRANCH   1   2
ATOM      2  N   UNL     1       3.991   6.153  19.716  0.00  0.00    +0.000 N 
ATOM      3  C   UNL     1       4.761   5.217  19.077  0.00  0.00    +0.000 C 
ATOM      4  O   UNL     1       4.275   4.290  18.442  0.00  0.00    +0.000 OA
ATOM      5  H   UNL     1       4.477   6.824  20.301  0.00  0.00    +0.000 HD
BRANCH   3   6
ATOM      6  O   UNL     1       6.092   5.429  19.266  0.00  0.00    +0.000 OA
BRANCH   6   7
ATOM      7  C   UNL     1       6.911   5.845  18.122  0.00  0.00    +0.000 C 
ATOM      8  C   UNL     1       6.102   6.642  17.088  0.00  0.00    +0.000 C 
ATOM      9  C   UNL     1       8.053   6.745  18.644  0.00  0.00    +0.000 C 
ATOM     10  C   UNL     1       7.557   4.619  17.461  0.00  0.00    +0.000 C 
ENDBRANCH   6   7
ENDBRANCH   3   6
ENDBRANCH   1   2
BRANCH   1  11
ATOM     11  C   UNL     1       1.899   7.453  20.014  0.00  0.00    +0.000 C 
ATOM     12  O   UNL     1       1.516   7.719  21.159  0.00  0.00    +0.000 OA
ATOM     13  N   UNL     1       1.892   8.381  18.962  0.00  0.00    +0.000 N 
ATOM     14  C   UNL     1       2.487   8.164  17.638  0.00  0.00    +0.000 C 
BRANCH  13  15
ATOM     15  N   UNL     1       1.166   9.746  19.075  0.00  0.00    +0.000 N 
ATOM     16  C   UNL     1      -0.154   9.901  19.740  0.00  0.00    +0.000 C 
BRANCH  15  17
ATOM     17  C   UNL     1       1.777  10.837  18.551  0.00  0.00    +0.000 C 
ATOM     18  N   UNL     1       2.300  11.761  18.106  0.00  0.00    +0.000 NA
ENDBRANCH  15  17
ENDBRANCH  13  15
ENDBRANCH   1  11
BRANCH   1  19
ATOM     19  C   UNL     1       2.064   5.076  20.899  0.00  0.00    +0.000 C 
BRANCH  19  21
ATOM     20  C   UNL     1       1.112   3.646  18.990  0.00  0.00    +0.000 C 
ATOM     21  C   UNL     1       1.049   3.987  20.479  0.00  0.00    +0.000 C 
ATOM     22  C   UNL     1       1.295   2.690  21.262  0.00  0.00    +0.000 C 
ENDBRANCH  19  21
ENDBRANCH   1  19
TORSDOF 8
ENDMDL
MODEL 2
REMARK VINA RESULT:      -6.2      0.367      1.279
REMARK  Name = 
REMARK  15 active torsions:
REMARK  status: ('A' for Active; 'I' for Inactive)
REMARK    1  A    between atoms: C_1  and  C_2
REMARK    2  A    between atoms: C_2  and  C_3
REMARK    3  A    between atoms: C_2  and  C_4
REMARK    4  A    between atoms: C_4  and  C_5
REMARK    5  A    between atoms: C_5  and  N_6
REMARK    6  A    between atoms: C_5  and  C_14
REMARK    7  A    between atoms: C_7  and  O_9
REMARK    8  A    between atoms: O_9  and  C_10
REMARK    9  A    between atoms: C_10  and  C_11
REMARK   10  A    between atoms: C_10  and  C_12
REMARK   11  A    between atoms: C_10  and  C_13
REMARK   12  A    between atoms: N_16  and  C_17
REMARK   13  A    between atoms: N_16  and  N_18
REMARK   14  A    between atoms: N_18  and  C_19
REMARK   15  A    between atoms: N_18  and  C_20
REMARK                            x       y       z     vdW  Elec       q    Type
REMARK                         _______ _______ _______ _____ _____    ______ ____
ROOT
ATOM      1  C   UNL     1       2.357   5.989  19.759  0.00  0.00    +0.000 C 
ENDROOT
BRANCH   1   2
ATOM      2  N   UNL     1       3.835   5.978  19.771  0.00  0.00    +0.000 N 
ATOM      3  C   UNL     1       4.557   5.201  18.904  0.00  0.00    +0.000 C 
ATOM      4  O   UNL     1       4.030   4.541  18.017  0.00  0.00    +0.000 OA
ATOM      5  H   UNL     1       4.344   6.407  20.535  0.00  0.00    +0.000 HD
BRANCH   3   6
ATOM      6  O   UNL     1       5.891   5.233  19.174  0.00  0.00    +0.000 OA
BRANCH   6   7
ATOM      7  C   UNL     1       6.801   5.800  18.173  0.00  0.00    +0.000 C 
ATOM      8  C   UNL     1       7.991   6.526  18.816  0.00  0.00    +0.000 C 
ATOM      9  C   UNL     1       7.348   4.646  17.304  0.00  0.00    +0.000 C 
ATOM     10  C   UNL     1       6.036   6.752  17.242  0.00  0.00    +0.000 C 
ENDBRANCH   6   7
ENDBRANCH   3   6
ENDBRANCH   1   2
BRANCH   1  11
ATOM     11  C   UNL     1       1.842   7.436  20.015  0.00  0.00    +0.000 C 
ATOM     12  O   UNL     1       1.520   7.735  21.170  0.00  0.00    +0.000 OA
ATOM     13  N   UNL     1       1.857   8.354  18.954  0.00  0.00    +0.000 N 
ATOM     14  C   UNL     1       2.387   8.089  17.611  0.00  0.00    +0.000 C 
BRANCH  13  15
ATOM     15  N   UNL     1       1.228   9.765  19.080  0.00  0.00    +0.000 N 
ATOM     16  C   UNL     1      -0.046  10.016  19.804  0.00  0.00    +0.000 C 
BRANCH  15  17
ATOM     17  C   UNL     1       1.884  10.808  18.512  0.00  0.00    +0.000 C 
ATOM     18  N   UNL     1       2.445  11.690  18.029  0.00  0.00    +0.000 NA
ENDBRANCH  15  17
ENDBRANCH  13  15
ENDBRANCH   1  11
BRANCH   1  19
ATOM     19  C   UNL     1       1.778   5.035  20.847  0.00  0.00    +0.000 C 
BRANCH  19  21
ATOM     20  C   UNL     1       1.664   2.635  21.756  0.00  0.00    +0.000 C 
ATOM     21  C   UNL     1       1.870   3.524  20.529  0.00  0.00    +0.000 C 
ATOM     22  C   UNL     1       0.814   3.128  19.487  0.00  0.00    +0.000 C 
ENDBRANCH  19  21
ENDBRANCH   1  19
TORSDOF 8
ENDMDL
MODEL 3
REMARK VINA RESULT:      -6.1      0.660      1.683
REMARK  Name = 
REMARK  15 active torsions:
REMARK  status: ('A' for Active; 'I' for Inactive)
REMARK    1  A    between atoms: C_1  and  C_2
REMARK    2  A    between atoms: C_2  and  C_3
REMARK    3  A    between atoms: C_2  and  C_4
REMARK    4  A    between atoms: C_4  and  C_5
REMARK    5  A    between atoms: C_5  and  N_6
REMARK    6  A    between atoms: C_5  and  C_14
REMARK    7  A    between atoms: C_7  and  O_9
REMARK    8  A    between atoms: O_9  and  C_10
REMARK    9  A    between atoms: C_10  and  C_11
REMARK   10  A    between atoms: C_10  and  C_12
REMARK   11  A    between atoms: C_10  and  C_13
REMARK   12  A    between atoms: N_16  and  C_17
REMARK   13  A    between atoms: N_16  and  N_18
REMARK   14  A    between atoms: N_18  and  C_19
REMARK   15  A    between atoms: N_18  and  C_20
REMARK                            x       y       z     vdW  Elec       q    Type
REMARK                         _______ _______ _______ _____ _____    ______ ____
ROOT
ATOM      1  C   UNL     1       2.368   5.988  19.664  0.00  0.00    +0.000 C 
ENDROOT
BRANCH   1   2
ATOM      2  N   UNL     1       3.843   5.903  19.718  0.00  0.00    +0.000 N 
ATOM      3  C   UNL     1       4.555   5.152  18.821  0.00  0.00    +0.000 C 
ATOM      4  O   UNL     1       4.027   4.579  17.876  0.00  0.00    +0.000 OA
ATOM      5  H   UNL     1       4.346   6.254  20.525  0.00  0.00    +0.000 HD
BRANCH   3   6
ATOM      6  O   UNL     1       5.879   5.098  19.132  0.00  0.00    +0.000 OA
BRANCH   6   7
ATOM      7  C   UNL     1       6.850   5.651  18.181  0.00  0.00    +0.000 C 
ATOM      8  C   UNL     1       7.389   4.586  17.215  0.00  0.00    +0.000 C 
ATOM      9  C   UNL     1       6.147   6.748  17.351  0.00  0.00    +0.000 C 
ATOM     10  C   UNL     1       8.009   6.319  18.936  0.00  0.00    +0.000 C 
ENDBRANCH   6   7
ENDBRANCH   3   6
ENDBRANCH   1   2
BRANCH   1  11
ATOM     11  C   UNL     1       1.921   7.463  19.886  0.00  0.00    +0.000 C 
ATOM     12  O   UNL     1       1.611   7.802  21.033  0.00  0.00    +0.000 OA
ATOM     13  N   UNL     1       1.980   8.356  18.805  0.00  0.00    +0.000 N 
ATOM     14  C   UNL     1       2.499   8.036  17.470  0.00  0.00    +0.000 C 
BRANCH  13  15
ATOM     15  N   UNL     1       1.417   9.797  18.899  0.00  0.00    +0.000 N 
ATOM     16  C   UNL     1       2.104  10.969  18.297  0.00  0.00    +0.000 C 
BRANCH  15  17
ATOM     17  C   UNL     1       0.241   9.980  19.550  0.00  0.00    +0.000 C 
ATOM     18  N   UNL     1      -0.755  10.140  20.104  0.00  0.00    +0.000 NA
ENDBRANCH  15  17
ENDBRANCH  13  15
ENDBRANCH   1  11
BRANCH   1  19
ATOM     19  C   UNL     1       1.712   5.080  20.746  0.00  0.00    +0.000 C 
BRANCH  19  21
ATOM     20  C   UNL     1       1.598   2.730  21.776  0.00  0.00    +0.000 C 
ATOM     21  C   UNL     1       1.849   3.557  20.515  0.00  0.00    +0.000 C 
ATOM     22  C   UNL     1       0.855   3.083  19.445  0.00  0.00    +0.000 C 
ENDBRANCH  19  21
ENDBRANCH   1  19
TORSDOF 8
ENDMDL
MODEL 4
REMARK VINA RESULT:      -6.1      0.558      1.198
REMARK  Name = 
REMARK  15 active torsions:
REMARK  status: ('A' for Active; 'I' for Inactive)
REMARK    1  A    between atoms: C_1  and  C_2
REMARK    2  A    between atoms: C_2  and  C_3
REMARK    3  A    between atoms: C_2  and  C_4
REMARK    4  A    between atoms: C_4  and  C_5
REMARK    5  A    between atoms: C_5  and  N_6
REMARK    6  A    between atoms: C_5  and  C_14
REMARK    7  A    between atoms: C_7  and  O_9
REMARK    8  A    between atoms: O_9  and  C_10
REMARK    9  A    between atoms: C_10  and  C_11
REMARK   10  A    between atoms: C_10  and  C_12
REMARK   11  A    between atoms: C_10  and  C_13
REMARK   12  A    between atoms: N_16  and  C_17
REMARK   13  A    between atoms: N_16  and  N_18
REMARK   14  A    between atoms: N_18  and  C_19
REMARK   15  A    between atoms: N_18  and  C_20
REMARK                            x       y       z     vdW  Elec       q    Type
REMARK                         _______ _______ _______ _____ _____    ______ ____
ROOT
ATOM      1  C   UNL     1       2.578   5.971  19.768  0.00  0.00    +0.000 C 
ENDROOT
BRANCH   1   2
ATOM      2  N   UNL     1       4.053   6.029  19.708  0.00  0.00    +0.000 N 
ATOM      3  C   UNL     1       4.788   5.058  19.081  0.00  0.00    +0.000 C 
ATOM      4  O   UNL     1       4.269   4.137  18.462  0.00  0.00    +0.000 OA
ATOM      5  H   UNL     1       4.563   6.692  20.281  0.00  0.00    +0.000 HD
BRANCH   3   6
ATOM      6  O   UNL     1       6.126   5.228  19.261  0.00  0.00    +0.000 OA
BRANCH   6   7
ATOM      7  C   UNL     1       6.932   5.729  18.142  0.00  0.00    +0.000 C 
ATOM      8  C   UNL     1       6.101   6.562  17.156  0.00  0.00    +0.000 C 
ATOM      9  C   UNL     1       8.052   6.627  18.713  0.00  0.00    +0.000 C 
ATOM     10  C   UNL     1       7.609   4.560  17.412  0.00  0.00    +0.000 C 
ENDBRANCH   6   7
ENDBRANCH   3   6
ENDBRANCH   1   2
BRANCH   1  11
ATOM     11  C   UNL     1       2.005   7.405  19.961  0.00  0.00    +0.000 C 
ATOM     12  O   UNL     1       1.633   7.727  21.095  0.00  0.00    +0.000 OA
ATOM     13  N   UNL     1       2.024   8.291  18.874  0.00  0.00    +0.000 N 
ATOM     14  C   UNL     1       2.609   8.005  17.558  0.00  0.00    +0.000 C 
BRANCH  13  15
ATOM     15  N   UNL     1       1.343   9.683  18.935  0.00  0.00    +0.000 N 
ATOM     16  C   UNL     1       1.899  10.881  18.255  0.00  0.00    +0.000 C 
BRANCH  15  17
ATOM     17  C   UNL     1       0.185   9.794  19.634  0.00  0.00    +0.000 C 
ATOM     18  N   UNL     1      -0.799   9.891  20.222  0.00  0.00    +0.000 NA
ENDBRANCH  15  17
ENDBRANCH  13  15
ENDBRANCH   1  11
BRANCH   1  19
ATOM     19  C   UNL     1       2.097   5.060  20.938  0.00  0.00    +0.000 C 
BRANCH  19  21
ATOM     20  C   UNL     1       1.075   3.624  19.069  0.00  0.00    +0.000 C 
ATOM     21  C   UNL     1       1.064   3.972  20.558  0.00  0.00    +0.000 C 
ATOM     22  C   UNL     1       1.333   2.678  21.338  0.00  0.00    +0.000 C 
ENDBRANCH  19  21
ENDBRANCH   1  19
TORSDOF 8
ENDMDL
MODEL 5
REMARK VINA RESULT:      -6.1      3.524      6.533
REMARK  Name = 
REMARK  15 active torsions:
REMARK  status: ('A' for Active; 'I' for Inactive)
REMARK    1  A    between atoms: C_1  and  C_2
REMARK    2  A    between atoms: C_2  and  C_3
REMARK    3  A    between atoms: C_2  and  C_4
REMARK    4  A    between atoms: C_4  and  C_5
REMARK    5  A    between atoms: C_5  and  N_6
REMARK    6  A    between atoms: C_5  and  C_14
REMARK    7  A    between atoms: C_7  and  O_9
REMARK    8  A    between atoms: O_9  and  C_10
REMARK    9  A    between atoms: C_10  and  C_11
REMARK   10  A    between atoms: C_10  and  C_12
REMARK   11  A    between atoms: C_10  and  C_13
REMARK   12  A    between atoms: N_16  and  C_17
REMARK   13  A    between atoms: N_16  and  N_18
REMARK   14  A    between atoms: N_18  and  C_19
REMARK   15  A    between atoms: N_18  and  C_20
REMARK                            x       y       z     vdW  Elec       q    Type
REMARK                         _______ _______ _______ _____ _____    ______ ____
ROOT
ATOM      1  C   UNL     1       5.472   3.952  16.043  0.00  0.00    +0.000 C 
ENDROOT
BRANCH   1   2
ATOM      2  N   UNL     1       4.213   4.194  16.777  0.00  0.00    +0.000 N 
ATOM      3  C   UNL     1       3.538   3.180  17.405  0.00  0.00    +0.000 C 
ATOM      4  O   UNL     1       3.977   2.039  17.469  0.00  0.00    +0.000 OA
ATOM      5  H   UNL     1       3.727   5.079  16.683  0.00  0.00    +0.000 HD
BRANCH   3   6
ATOM      6  O   UNL     1       2.338   3.590  17.900  0.00  0.00    +0.000 OA
BRANCH   6   7
ATOM      7  C   UNL     1       2.219   3.851  19.338  0.00  0.00    +0.000 C 
ATOM      8  C   UNL     1       3.387   3.253  20.136  0.00  0.00    +0.000 C 
ATOM      9  C   UNL     1       2.216   5.381  19.556  0.00  0.00    +0.000 C 
ATOM     10  C   UNL     1       0.882   3.310  19.866  0.00  0.00    +0.000 C 
ENDBRANCH   6   7
ENDBRANCH   3   6
ENDBRANCH   1   2
BRANCH   1  11
ATOM     11  C   UNL     1       6.653   4.643  16.786  0.00  0.00    +0.000 C 
ATOM     12  O   UNL     1       7.766   4.112  16.715  0.00  0.00    +0.000 OA
ATOM     13  N   UNL     1       6.423   5.875  17.418  0.00  0.00    +0.000 N 
ATOM     14  C   UNL     1       5.160   6.621  17.385  0.00  0.00    +0.000 C 
BRANCH  13  15
ATOM     15  N   UNL     1       7.498   6.558  18.302  0.00  0.00    +0.000 N 
ATOM     16  C   UNL     1       8.137   5.878  19.459  0.00  0.00    +0.000 C 
BRANCH  15  17
ATOM     17  C   UNL     1       7.870   7.824  17.989  0.00  0.00    +0.000 C 
ATOM     18  N   UNL     1       8.181   8.900  17.723  0.00  0.00    +0.000 NA
ENDBRANCH  15  17
ENDBRANCH  13  15
ENDBRANCH   1  11
BRANCH   1  19
ATOM     19  C   UNL     1       5.388   4.499  14.586  0.00  0.00    +0.000 C 
BRANCH  19  21
ATOM     20  C   UNL     1       5.701   3.325  12.323  0.00  0.00    +0.000 C 
ATOM     21  C   UNL     1       6.381   3.873  13.578  0.00  0.00    +0.000 C 
ATOM     22  C   UNL     1       7.418   4.912  13.128  0.00  0.00    +0.000 C 
ENDBRANCH  19  21
ENDBRANCH   1  19
TORSDOF 8
ENDMDL
MODEL 6
REMARK VINA RESULT:      -6.0      2.840      5.313
REMARK  Name = 
REMARK  15 active torsions:
REMARK  status: ('A' for Active; 'I' for Inactive)
REMARK    1  A    between atoms: C_1  and  C_2
REMARK    2  A    between atoms: C_2  and  C_3
REMARK    3  A    between atoms: C_2  and  C_4
REMARK    4  A    between atoms: C_4  and  C_5
REMARK    5  A    between atoms: C_5  and  N_6
REMARK    6  A    between atoms: C_5  and  C_14
REMARK    7  A    between atoms: C_7  and  O_9
REMARK    8  A    between atoms: O_9  and  C_10
REMARK    9  A    between atoms: C_10  and  C_11
REMARK   10  A    between atoms: C_10  and  C_12
REMARK   11  A    between atoms: C_10  and  C_13
REMARK   12  A    between atoms: N_16  and  C_17
REMARK   13  A    between atoms: N_16  and  N_18
REMARK   14  A    between atoms: N_18  and  C_19
REMARK   15  A    between atoms: N_18  and  C_20
REMARK                            x       y       z     vdW  Elec       q    Type
REMARK                         _______ _______ _______ _____ _____    ______ ____
ROOT
ATOM      1  C   UNL     1       3.443   6.266  17.885  0.00  0.00    +0.000 C 
ENDROOT
BRANCH   1   2
ATOM      2  N   UNL     1       4.211   6.040  16.643  0.00  0.00    +0.000 N 
ATOM      3  C   UNL     1       5.474   6.543  16.474  0.00  0.00    +0.000 C 
ATOM      4  O   UNL     1       6.072   7.131  17.366  0.00  0.00    +0.000 OA
ATOM      5  H   UNL     1       3.754   5.660  15.821  0.00  0.00    +0.000 HD
BRANCH   3   6
ATOM      6  O   UNL     1       5.945   6.339  15.213  0.00  0.00    +0.000 OA
BRANCH   6   7
ATOM      7  C   UNL     1       6.487   5.021  14.866  0.00  0.00    +0.000 C 
ATOM      8  C   UNL     1       5.419   4.091  14.273  0.00  0.00    +0.000 C 
ATOM      9  C   UNL     1       7.601   5.216  13.812  0.00  0.00    +0.000 C 
ATOM     10  C   UNL     1       7.132   4.373  16.099  0.00  0.00    +0.000 C 
ENDBRANCH   6   7
ENDBRANCH   3   6
ENDBRANCH   1   2
BRANCH   1  11
ATOM     11  C   UNL     1       2.845   4.918  18.384  0.00  0.00    +0.000 C 
ATOM     12  O   UNL     1       1.676   4.660  18.079  0.00  0.00    +0.000 OA
ATOM     13  N   UNL     1       3.681   4.023  19.069  0.00  0.00    +0.000 N 
ATOM     14  C   UNL     1       5.116   4.217  19.307  0.00  0.00    +0.000 C 
BRANCH  13  15
ATOM     15  N   UNL     1       3.135   2.731  19.728  0.00  0.00    +0.000 N 
ATOM     16  C   UNL     1       3.150   1.412  19.043  0.00  0.00    +0.000 C 
BRANCH  15  17
ATOM     17  C   UNL     1       2.635   2.819  20.986  0.00  0.00    +0.000 C 
ATOM     18  N   UNL     1       2.207   2.896  22.052  0.00  0.00    +0.000 NA
ENDBRANCH  15  17
ENDBRANCH  13  15
ENDBRANCH   1  11
BRANCH   1  19
ATOM     19  C   UNL     1       2.290   7.289  17.655  0.00  0.00    +0.000 C 
BRANCH  19  21
ATOM     20  C   UNL     1       1.322   9.611  18.175  0.00  0.00    +0.000 C 
ATOM     21  C   UNL     1       2.256   8.490  18.631  0.00  0.00    +0.000 C 
ATOM     22  C   UNL     1       1.794   8.039  20.023  0.00  0.00    +0.000 C 
ENDBRANCH  19  21
ENDBRANCH   1  19
TORSDOF 8
ENDMDL
MODEL 7
REMARK VINA RESULT:      -5.9      0.992      1.249
REMARK  Name = 
REMARK  15 active torsions:
REMARK  status: ('A' for Active; 'I' for Inactive)
REMARK    1  A    between atoms: C_1  and  C_2
REMARK    2  A    between atoms: C_2  and  C_3
REMARK    3  A    between atoms: C_2  and  C_4
REMARK    4  A    between atoms: C_4  and  C_5
REMARK    5  A    between atoms: C_5  and  N_6
REMARK    6  A    between atoms: C_5  and  C_14
REMARK    7  A    between atoms: C_7  and  O_9
REMARK    8  A    between atoms: O_9  and  C_10
REMARK    9  A    between atoms: C_10  and  C_11
REMARK   10  A    between atoms: C_10  and  C_12
REMARK   11  A    between atoms: C_10  and  C_13
REMARK   12  A    between atoms: N_16  and  C_17
REMARK   13  A    between atoms: N_16  and  N_18
REMARK   14  A    between atoms: N_18  and  C_19
REMARK   15  A    between atoms: N_18  and  C_20
REMARK                            x       y       z     vdW  Elec       q    Type
REMARK                         _______ _______ _______ _____ _____    ______ ____
ROOT
ATOM      1  C   UNL     1       2.292   5.892  19.605  0.00  0.00    +0.000 C 
ENDROOT
BRANCH   1   2
ATOM      2  N   UNL     1       3.760   5.924  19.768  0.00  0.00    +0.000 N 
ATOM      3  C   UNL     1       4.603   5.406  18.820  0.00  0.00    +0.000 C 
ATOM      4  O   UNL     1       4.199   4.966  17.751  0.00  0.00    +0.000 OA
ATOM      5  H   UNL     1       4.171   6.169  20.662  0.00  0.00    +0.000 HD
BRANCH   3   6
ATOM      6  O   UNL     1       5.902   5.411  19.227  0.00  0.00    +0.000 OA
BRANCH   6   7
ATOM      7  C   UNL     1       6.938   5.829  18.277  0.00  0.00    +0.000 C 
ATOM      8  C   UNL     1       6.438   6.916  17.314  0.00  0.00    +0.000 C 
ATOM      9  C   UNL     1       8.129   6.401  19.078  0.00  0.00    +0.000 C 
ATOM     10  C   UNL     1       7.454   4.617  17.489  0.00  0.00    +0.000 C 
ENDBRANCH   6   7
ENDBRANCH   3   6
ENDBRANCH   1   2
BRANCH   1  11
ATOM     11  C   UNL     1       1.682   7.241  20.086  0.00  0.00    +0.000 C 
ATOM     12  O   UNL     1       1.286   7.308  21.255  0.00  0.00    +0.000 OA
ATOM     13  N   UNL     1       1.696   8.338  19.211  0.00  0.00    +0.000 N 
ATOM     14  C   UNL     1       2.306   8.349  17.877  0.00  0.00    +0.000 C 
BRANCH  13  15
ATOM     15  N   UNL     1       0.981   9.670  19.553  0.00  0.00    +0.000 N 
ATOM     16  C   UNL     1       0.155  10.414  18.567  0.00  0.00    +0.000 C 
BRANCH  15  17
ATOM     17  C   UNL     1       1.114  10.160  20.811  0.00  0.00    +0.000 C 
ATOM     18  N   UNL     1       1.227  10.580  21.876  0.00  0.00    +0.000 NA
ENDBRANCH  15  17
ENDBRANCH  13  15
ENDBRANCH   1  11
BRANCH   1  19
ATOM     19  C   UNL     1       1.661   4.721  20.416  0.00  0.00    +0.000 C 
BRANCH  19  21
ATOM     20  C   UNL     1       1.253   3.721  18.085  0.00  0.00    +0.000 C 
ATOM     21  C   UNL     1       1.274   3.469  19.593  0.00  0.00    +0.000 C 
ATOM     22  C   UNL     1       2.261   2.324  19.858  0.00  0.00    +0.000 C 
ENDBRANCH  19  21
ENDBRANCH   1  19
TORSDOF 8
ENDMDL
MODEL 8
REMARK VINA RESULT:      -5.9      2.548      6.141
REMARK  Name = 
REMARK  15 active torsions:
REMARK  status: ('A' for Active; 'I' for Inactive)
REMARK    1  A    between atoms: C_1  and  C_2
REMARK    2  A    between atoms: C_2  and  C_3
REMARK    3  A    between atoms: C_2  and  C_4
REMARK    4  A    between atoms: C_4  and  C_5
REMARK    5  A    between atoms: C_5  and  N_6
REMARK    6  A    between atoms: C_5  and  C_14
REMARK    7  A    between atoms: C_7  and  O_9
REMARK    8  A    between atoms: O_9  and  C_10
REMARK    9  A    between atoms: C_10  and  C_11
REMARK   10  A    between atoms: C_10  and  C_12
REMARK   11  A    between atoms: C_10  and  C_13
REMARK   12  A    between atoms: N_16  and  C_17
REMARK   13  A    between atoms: N_16  and  N_18
REMARK   14  A    between atoms: N_18  and  C_19
REMARK   15  A    between atoms: N_18  and  C_20
REMARK                            x       y       z     vdW  Elec       q    Type
REMARK                         _______ _______ _______ _____ _____    ______ ____
ROOT
ATOM      1  C   UNL     1       3.296   6.504  17.528  0.00  0.00    +0.000 C 
ENDROOT
BRANCH   1   2
ATOM      2  N   UNL     1       2.910   5.691  18.700  0.00  0.00    +0.000 N 
ATOM      3  C   UNL     1       1.875   4.796  18.647  0.00  0.00    +0.000 C 
ATOM      4  O   UNL     1       1.267   4.553  17.612  0.00  0.00    +0.000 OA
ATOM      5  H   UNL     1       3.286   5.905  19.617  0.00  0.00    +0.000 HD
BRANCH   3   6
ATOM      6  O   UNL     1       1.599   4.257  19.866  0.00  0.00    +0.000 OA
BRANCH   6   7
ATOM      7  C   UNL     1       2.084   2.906  20.168  0.00  0.00    +0.000 C 
ATOM      8  C   UNL     1       3.612   2.800  20.064  0.00  0.00    +0.000 C 
ATOM      9  C   UNL     1       1.670   2.552  21.614  0.00  0.00    +0.000 C 
ATOM     10  C   UNL     1       1.416   1.883  19.237  0.00  0.00    +0.000 C 
ENDBRANCH   6   7
ENDBRANCH   3   6
ENDBRANCH   1   2
BRANCH   1  11
ATOM     11  C   UNL     1       4.801   6.274  17.203  0.00  0.00    +0.000 C 
ATOM     12  O   UNL     1       5.599   7.164  17.518  0.00  0.00    +0.000 OA
ATOM     13  N   UNL     1       5.193   5.041  16.660  0.00  0.00    +0.000 N 
ATOM     14  C   UNL     1       4.303   3.898  16.427  0.00  0.00    +0.000 C 
BRANCH  13  15
ATOM     15  N   UNL     1       6.641   4.782  16.172  0.00  0.00    +0.000 N 
ATOM     16  C   UNL     1       7.034   4.868  14.741  0.00  0.00    +0.000 C 
BRANCH  15  17
ATOM     17  C   UNL     1       7.581   4.475  17.100  0.00  0.00    +0.000 C 
ATOM     18  N   UNL     1       8.378   4.219  17.891  0.00  0.00    +0.000 NA
ENDBRANCH  15  17
ENDBRANCH  13  15
ENDBRANCH   1  11
BRANCH   1  19
ATOM     19  C   UNL     1       3.049   8.021  17.789  0.00  0.00    +0.000 C 
BRANCH  19  21
ATOM     20  C   UNL     1       1.714   8.427  19.945  0.00  0.00    +0.000 C 
ATOM     21  C   UNL     1       1.682   8.378  18.417  0.00  0.00    +0.000 C 
ATOM     22  C   UNL     1       1.202   9.749  17.919  0.00  0.00    +0.000 C 
ENDBRANCH  19  21
ENDBRANCH   1  19
TORSDOF 8
ENDMDL
MODEL 9
REMARK VINA RESULT:      -5.9      2.824      5.361
REMARK  Name = 
REMARK  15 active torsions:
REMARK  status: ('A' for Active; 'I' for Inactive)
REMARK    1  A    between atoms: C_1  and  C_2
REMARK    2  A    between atoms: C_2  and  C_3
REMARK    3  A    between atoms: C_2  and  C_4
REMARK    4  A    between atoms: C_4  and  C_5
REMARK    5  A    between atoms: C_5  and  N_6
REMARK    6  A    between atoms: C_5  and  C_14
REMARK    7  A    between atoms: C_7  and  O_9
REMARK    8  A    between atoms: O_9  and  C_10
REMARK    9  A    between atoms: C_10  and  C_11
REMARK   10  A    between atoms: C_10  and  C_12
REMARK   11  A    between atoms: C_10  and  C_13
REMARK   12  A    between atoms: N_16  and  C_17
REMARK   13  A    between atoms: N_16  and  N_18
REMARK   14  A    between atoms: N_18  and  C_19
REMARK   15  A    between atoms: N_18  and  C_20
REMARK                            x       y       z     vdW  Elec       q    Type
REMARK                         _______ _______ _______ _____ _____    ______ ____
ROOT
ATOM      1  C   UNL     1       3.929   6.439  18.087  0.00  0.00    +0.000 C 
ENDROOT
BRANCH   1   2
ATOM      2  N   UNL     1       4.283   5.970  16.731  0.00  0.00    +0.000 N 
ATOM      3  C   UNL     1       5.430   6.377  16.104  0.00  0.00    +0.000 C 
ATOM      4  O   UNL     1       6.268   7.081  16.656  0.00  0.00    +0.000 OA
ATOM      5  H   UNL     1       3.601   5.477  16.166  0.00  0.00    +0.000 HD
BRANCH   3   6
ATOM      6  O   UNL     1       5.496   5.941  14.816  0.00  0.00    +0.000 OA
BRANCH   6   7
ATOM      7  C   UNL     1       6.302   4.753  14.514  0.00  0.00    +0.000 C 
ATOM      8  C   UNL     1       6.643   3.946  15.774  0.00  0.00    +0.000 C 
ATOM      9  C   UNL     1       5.491   3.846  13.561  0.00  0.00    +0.000 C 
ATOM     10  C   UNL     1       7.587   5.158  13.778  0.00  0.00    +0.000 C 
ENDBRANCH   6   7
ENDBRANCH   3   6
ENDBRANCH   1   2
BRANCH   1  11
ATOM     11  C   UNL     1       4.143   5.288  19.113  0.00  0.00    +0.000 C 
ATOM     12  O   UNL     1       5.139   5.347  19.843  0.00  0.00    +0.000 OA
ATOM     13  N   UNL     1       3.158   4.295  19.228  0.00  0.00    +0.000 N 
ATOM     14  C   UNL     1       1.884   4.278  18.501  0.00  0.00    +0.000 C 
BRANCH  13  15
ATOM     15  N   UNL     1       3.358   3.039  20.114  0.00  0.00    +0.000 N 
ATOM     16  C   UNL     1       4.424   2.035  19.856  0.00  0.00    +0.000 C 
BRANCH  15  17
ATOM     17  C   UNL     1       2.527   2.866  21.171  0.00  0.00    +0.000 C 
ATOM     18  N   UNL     1       1.822   2.715  22.069  0.00  0.00    +0.000 NA
ENDBRANCH  15  17
ENDBRANCH  13  15
ENDBRANCH   1  11
BRANCH   1  19
ATOM     19  C   UNL     1       2.446   6.916  18.148  0.00  0.00    +0.000 C 
BRANCH  19  21
ATOM     20  C   UNL     1       1.289   9.203  17.978  0.00  0.00    +0.000 C 
ATOM     21  C   UNL     1       2.215   8.302  18.795  0.00  0.00    +0.000 C 
ATOM     22  C   UNL     1       1.598   8.148  20.192  0.00  0.00    +0.000 C 
ENDBRANCH  19  21
ENDBRANCH   1  19
TORSDOF 8
ENDMDL
