MODEL 1
REMARK VINA RESULT:      -6.8      0.000      0.000
REMARK  Name = 
REMARK  7 active torsions:
REMARK  status: ('A' for Active; 'I' for Inactive)
REMARK    1  A    between atoms: N_2  and  C_4
REMARK    2  A    between atoms: C_8  and  N_9
REMARK    3  A    between atoms: N_9  and  C_10
REMARK    4  A    between atoms: C_10  and  O_12
REMARK    5  A    between atoms: O_12  and  C_13
REMARK    6  A    between atoms: C_13  and  C_14
REMARK    7  A    between atoms: C_14  and  C_15
REMARK                            x       y       z     vdW  Elec       q    Type
REMARK                         _______ _______ _______ _____ _____    ______ ____
ROOT
ATOM      1  N   UNL     1       3.264   5.997  17.913  0.00  0.00    +0.000 N 
ATOM      2  H   UNL     1       2.567   5.483  17.385  0.00  0.00    +0.000 HD
ENDROOT
BRANCH   1   7
ATOM      3  C   UNL     1       6.410   5.017  16.175  0.00  0.00    +0.000 A 
ATOM      4  C   UNL     1       7.268   4.847  17.271  0.00  0.00    +0.000 A 
ATOM      5  C   UNL     1       6.793   5.110  18.555  0.00  0.00    +0.000 A 
ATOM      6  C   UNL     1       5.469   5.522  18.740  0.00  0.00    +0.000 A 
ATOM      7  C   UNL     1       4.608   5.691  17.645  0.00  0.00    +0.000 A 
ATOM      8  C   UNL     1       5.087   5.444  16.362  0.00  0.00    +0.000 A 
BRANCH   3  10
ATOM      9  O   UNL     1       7.771   5.413  14.342  0.00  0.00    +0.000 OA
ATOM     10  N   UNL     1       6.871   4.702  14.821  0.00  0.00    +0.000 N 
ATOM     11  O   UNL     1       6.348   3.749  14.234  0.00  0.00    +0.000 OA
ENDBRANCH   3  10
ENDBRANCH   1   7
BRANCH   1  12
ATOM     12  C   UNL     1       2.723   6.994  18.681  0.00  0.00    +0.000 C 
ATOM     13  S   UNL     1       2.342   8.455  17.969  0.00  0.00    +0.000 S 
BRANCH  12  14
ATOM     14  O   UNL     1       2.490   6.702  19.995  0.00  0.00    +0.000 OA
BRANCH  14  15
ATOM     15  C   UNL     1       1.538   5.666  20.329  0.00  0.00    +0.000 C 
BRANCH  15  16
ATOM     16  C   UNL     1       2.198   4.482  21.033  0.00  0.00    +0.000 C 
BRANCH  16  17
ATOM     17  C   UNL     1       2.713   3.540  19.971  0.00  0.00    +0.000 A 
ATOM     18  C   UNL     1       3.815   2.724  20.220  0.00  0.00    +0.000 A 
ATOM     19  C   UNL     1       4.167   1.761  19.277  0.00  0.00    +0.000 A 
ATOM     20  C   UNL     1       3.415   1.638  18.115  0.00  0.00    +0.000 A 
ATOM     21  C   UNL     1       2.338   2.489  17.943  0.00  0.00    +0.000 A 
ATOM     22  N   UNL     1       1.970   3.429  18.842  0.00  0.00    +0.000 NA
ENDBRANCH  16  17
ENDBRANCH  15  16
ENDBRANCH  14  15
ENDBRANCH  12  14
ENDBRANCH   1  12
TORSDOF 7
ENDMDL
MODEL 2
REMARK VINA RESULT:      -6.8      1.981      2.291
REMARK  Name = 
REMARK  7 active torsions:
REMARK  status: ('A' for Active; 'I' for Inactive)
REMARK    1  A    between atoms: N_2  and  C_4
REMARK    2  A    between atoms: C_8  and  N_9
REMARK    3  A    between atoms: N_9  and  C_10
REMARK    4  A    between atoms: C_10  and  O_12
REMARK    5  A    between atoms: O_12  and  C_13
REMARK    6  A    between atoms: C_13  and  C_14
REMARK    7  A    between atoms: C_14  and  C_15
REMARK                            x       y       z     vdW  Elec       q    Type
REMARK                         _______ _______ _______ _____ _____    ______ ____
ROOT
ATOM      1  N   UNL     1       3.250   5.825  17.722  0.00  0.00    +0.000 N 
ATOM      2  H   UNL     1       2.582   5.519  17.023  0.00  0.00    +0.000 HD
ENDROOT
BRANCH   1   7
ATOM      3  C   UNL     1       6.933   5.416  18.108  0.00  0.00    +0.000 A 
ATOM      4  C   UNL     1       7.222   4.622  16.989  0.00  0.00    +0.000 A 
ATOM      5  C   UNL     1       6.181   4.203  16.162  0.00  0.00    +0.000 A 
ATOM      6  C   UNL     1       4.867   4.589  16.445  0.00  0.00    +0.000 A 
ATOM      7  C   UNL     1       4.573   5.384  17.563  0.00  0.00    +0.000 A 
ATOM      8  C   UNL     1       5.612   5.788  18.397  0.00  0.00    +0.000 A 
BRANCH   3  10
ATOM      9  O   UNL     1       8.469   5.127  19.817  0.00  0.00    +0.000 OA
ATOM     10  N   UNL     1       8.014   5.907  18.964  0.00  0.00    +0.000 N 
ATOM     11  O   UNL     1       8.417   7.063  18.789  0.00  0.00    +0.000 OA
ENDBRANCH   3  10
ENDBRANCH   1   7
BRANCH   1  12
ATOM     12  C   UNL     1       2.723   6.733  18.602  0.00  0.00    +0.000 C 
ATOM     13  S   UNL     1       2.264   8.237  18.042  0.00  0.00    +0.000 S 
BRANCH  12  14
ATOM     14  O   UNL     1       2.569   6.321  19.895  0.00  0.00    +0.000 OA
BRANCH  14  15
ATOM     15  C   UNL     1       1.341   5.666  20.285  0.00  0.00    +0.000 C 
BRANCH  15  16
ATOM     16  C   UNL     1       1.591   4.291  20.902  0.00  0.00    +0.000 C 
BRANCH  16  17
ATOM     17  C   UNL     1       2.331   3.455  19.886  0.00  0.00    +0.000 A 
ATOM     18  C   UNL     1       3.564   2.887  20.198  0.00  0.00    +0.000 A 
ATOM     19  C   UNL     1       4.145   1.998  19.295  0.00  0.00    +0.000 A 
ATOM     20  C   UNL     1       3.483   1.702  18.110  0.00  0.00    +0.000 A 
ATOM     21  C   UNL     1       2.263   2.311  17.875  0.00  0.00    +0.000 A 
ATOM     22  N   UNL     1       1.674   3.172  18.734  0.00  0.00    +0.000 NA
ENDBRANCH  16  17
ENDBRANCH  15  16
ENDBRANCH  14  15
ENDBRANCH  12  14
ENDBRANCH   1  12
TORSDOF 7
ENDMDL
MODEL 3
REMARK VINA RESULT:      -6.4      2.756      3.974
REMARK  Name = 
REMARK  7 active torsions:
REMARK  status: ('A' for Active; 'I' for Inactive)
REMARK    1  A    between atoms: N_2  and  C_4
REMARK    2  A    between atoms: C_8  and  N_9
REMARK    3  A    between atoms: N_9  and  C_10
REMARK    4  A    between atoms: C_10  and  O_12
REMARK    5  A    between atoms: O_12  and  C_13
REMARK    6  A    between atoms: C_13  and  C_14
REMARK    7  A    between atoms: C_14  and  C_15
REMARK                            x       y       z     vdW  Elec       q    Type
REMARK                         _______ _______ _______ _____ _____    ______ ____
ROOT
ATOM      1  N   UNL     1       6.165   4.371  16.189  0.00  0.00    +0.000 N 
ATOM      2  H   UNL     1       6.530   3.576  16.701  0.00  0.00    +0.000 HD
ENDROOT
BRANCH   1   7
ATOM      3  C   UNL     1       5.958   3.541  12.563  0.00  0.00    +0.000 A 
ATOM      4  C   UNL     1       7.042   4.280  12.067  0.00  0.00    +0.000 A 
ATOM      5  C   UNL     1       7.785   5.072  12.943  0.00  0.00    +0.000 A 
ATOM      6  C   UNL     1       7.454   5.111  14.301  0.00  0.00    +0.000 A 
ATOM      7  C   UNL     1       6.369   4.373  14.800  0.00  0.00    +0.000 A 
ATOM      8  C   UNL     1       5.620   3.595  13.923  0.00  0.00    +0.000 A 
BRANCH   3  10
ATOM      9  O   UNL     1       4.076   3.062  11.300  0.00  0.00    +0.000 OA
ATOM     10  N   UNL     1       5.194   2.666  11.673  0.00  0.00    +0.000 N 
ATOM     11  O   UNL     1       5.700   1.590  11.337  0.00  0.00    +0.000 OA
ENDBRANCH   3  10
ENDBRANCH   1   7
BRANCH   1  12
ATOM     12  C   UNL     1       5.416   5.211  16.970  0.00  0.00    +0.000 C 
ATOM     13  S   UNL     1       5.837   6.823  17.068  0.00  0.00    +0.000 S 
BRANCH  12  14
ATOM     14  O   UNL     1       4.330   4.667  17.595  0.00  0.00    +0.000 OA
BRANCH  14  15
ATOM     15  C   UNL     1       3.654   3.544  16.984  0.00  0.00    +0.000 C 
BRANCH  15  16
ATOM     16  C   UNL     1       3.611   2.326  17.905  0.00  0.00    +0.000 C 
BRANCH  16  17
ATOM     17  C   UNL     1       2.832   2.706  19.141  0.00  0.00    +0.000 A 
ATOM     18  C   UNL     1       1.508   3.129  19.043  0.00  0.00    +0.000 A 
ATOM     19  C   UNL     1       0.774   3.324  20.212  0.00  0.00    +0.000 A 
ATOM     20  C   UNL     1       1.379   3.095  21.441  0.00  0.00    +0.000 A 
ATOM     21  C   UNL     1       2.699   2.681  21.452  0.00  0.00    +0.000 A 
ATOM     22  N   UNL     1       3.433   2.478  20.334  0.00  0.00    +0.000 NA
ENDBRANCH  16  17
ENDBRANCH  15  16
ENDBRANCH  14  15
ENDBRANCH  12  14
ENDBRANCH   1  12
TORSDOF 7
ENDMDL
MODEL 4
REMARK VINA RESULT:      -6.4      2.318      4.095
REMARK  Name = 
REMARK  7 active torsions:
REMARK  status: ('A' for Active; 'I' for Inactive)
REMARK    1  A    between atoms: N_2  and  C_4
REMARK    2  A    between atoms: C_8  and  N_9
REMARK    3  A    between atoms: N_9  and  C_10
REMARK    4  A    between atoms: C_10  and  O_12
REMARK    5  A    between atoms: O_12  and  C_13
REMARK    6  A    between atoms: C_13  and  C_14
REMARK    7  A    between atoms: C_14  and  C_15
REMARK                            x       y       z     vdW  Elec       q    Type
REMARK                         _______ _______ _______ _____ _____    ______ ____
ROOT
ATOM      1  N   UNL     1       5.040   3.387  19.062  0.00  0.00    +0.000 N 
ATOM      2  H   UNL     1       5.568   2.604  19.430  0.00  0.00    +0.000 HD
ENDROOT
BRANCH   1   7
ATOM      3  C   UNL     1       6.755   5.125  16.249  0.00  0.00    +0.000 A 
ATOM      4  C   UNL     1       7.418   6.147  16.944  0.00  0.00    +0.000 A 
ATOM      5  C   UNL     1       7.239   6.262  18.322  0.00  0.00    +0.000 A 
ATOM      6  C   UNL     1       6.419   5.353  18.998  0.00  0.00    +0.000 A 
ATOM      7  C   UNL     1       5.755   4.329  18.306  0.00  0.00    +0.000 A 
ATOM      8  C   UNL     1       5.922   4.225  16.928  0.00  0.00    +0.000 A 
BRANCH   3  10
ATOM      9  O   UNL     1       7.927   5.550  14.296  0.00  0.00    +0.000 OA
ATOM     10  N   UNL     1       6.964   4.955  14.810  0.00  0.00    +0.000 N 
ATOM     11  O   UNL     1       6.180   4.230  14.189  0.00  0.00    +0.000 OA
ENDBRANCH   3  10
ENDBRANCH   1   7
BRANCH   1  12
ATOM     12  C   UNL     1       3.692   3.268  19.275  0.00  0.00    +0.000 C 
ATOM     13  S   UNL     1       2.782   2.335  18.233  0.00  0.00    +0.000 S 
BRANCH  12  14
ATOM     14  O   UNL     1       3.183   3.902  20.373  0.00  0.00    +0.000 OA
BRANCH  14  15
ATOM     15  C   UNL     1       2.275   5.012  20.188  0.00  0.00    +0.000 C 
BRANCH  15  16
ATOM     16  C   UNL     1       2.946   6.196  19.493  0.00  0.00    +0.000 C 
BRANCH  16  17
ATOM     17  C   UNL     1       2.059   7.404  19.675  0.00  0.00    +0.000 A 
ATOM     18  C   UNL     1       1.481   7.680  20.913  0.00  0.00    +0.000 A 
ATOM     19  C   UNL     1       0.796   8.881  21.083  0.00  0.00    +0.000 A 
ATOM     20  C   UNL     1       0.704   9.770  20.020  0.00  0.00    +0.000 A 
ATOM     21  C   UNL     1       1.302   9.419  18.823  0.00  0.00    +0.000 A 
ATOM     22  N   UNL     1       1.978   8.263  18.630  0.00  0.00    +0.000 NA
ENDBRANCH  16  17
ENDBRANCH  15  16
ENDBRANCH  14  15
ENDBRANCH  12  14
ENDBRANCH   1  12
TORSDOF 7
ENDMDL
MODEL 5
REMARK VINA RESULT:      -6.3      3.046      4.169
REMARK  Name = 
REMARK  7 active torsions:
REMARK  status: ('A' for Active; 'I' for Inactive)
REMARK    1  A    between atoms: N_2  and  C_4
REMARK    2  A    between atoms: C_8  and  N_9
REMARK    3  A    between atoms: N_9  and  C_10
REMARK    4  A    between atoms: C_10  and  O_12
REMARK    5  A    between atoms: O_12  and  C_13
REMARK    6  A    between atoms: C_13  and  C_14
REMARK    7  A    between atoms: C_14  and  C_15
REMARK                            x       y       z     vdW  Elec       q    Type
REMARK                         _______ _______ _______ _____ _____    ______ ____
ROOT
ATOM      1  N   UNL     1       5.702   5.179  15.779  0.00  0.00    +0.000 N 
ATOM      2  H   UNL     1       5.219   6.064  15.886  0.00  0.00    +0.000 HD
ENDROOT
BRANCH   1   7
ATOM      3  C   UNL     1       5.904   3.554  12.433  0.00  0.00    +0.000 A 
ATOM      4  C   UNL     1       7.144   4.034  11.988  0.00  0.00    +0.000 A 
ATOM      5  C   UNL     1       7.860   4.922  12.790  0.00  0.00    +0.000 A 
ATOM      6  C   UNL     1       7.345   5.312  14.030  0.00  0.00    +0.000 A 
ATOM      7  C   UNL     1       6.104   4.834  14.478  0.00  0.00    +0.000 A 
ATOM      8  C   UNL     1       5.384   3.960  13.670  0.00  0.00    +0.000 A 
BRANCH   3  10
ATOM      9  O   UNL     1       4.037   2.926  11.213  0.00  0.00    +0.000 OA
ATOM     10  N   UNL     1       5.157   2.585  11.629  0.00  0.00    +0.000 N 
ATOM     11  O   UNL     1       5.680   1.487  11.405  0.00  0.00    +0.000 OA
ENDBRANCH   3  10
ENDBRANCH   1   7
BRANCH   1  12
ATOM     12  C   UNL     1       5.982   4.576  16.977  0.00  0.00    +0.000 C 
ATOM     13  S   UNL     1       7.531   4.667  17.592  0.00  0.00    +0.000 S 
BRANCH  12  14
ATOM     14  O   UNL     1       4.942   3.964  17.617  0.00  0.00    +0.000 OA
BRANCH  14  15
ATOM     15  C   UNL     1       3.605   4.103  17.082  0.00  0.00    +0.000 C 
BRANCH  15  16
ATOM     16  C   UNL     1       2.777   5.125  17.858  0.00  0.00    +0.000 C 
BRANCH  16  17
ATOM     17  C   UNL     1       2.174   4.423  19.052  0.00  0.00    +0.000 A 
ATOM     18  C   UNL     1       1.268   3.379  18.878  0.00  0.00    +0.000 A 
ATOM     19  C   UNL     1       0.851   2.656  19.993  0.00  0.00    +0.000 A 
ATOM     20  C   UNL     1       1.346   2.992  21.247  0.00  0.00    +0.000 A 
ATOM     21  C   UNL     1       2.240   4.044  21.334  0.00  0.00    +0.000 A 
ATOM     22  N   UNL     1       2.666   4.760  20.269  0.00  0.00    +0.000 NA
ENDBRANCH  16  17
ENDBRANCH  15  16
ENDBRANCH  14  15
ENDBRANCH  12  14
ENDBRANCH   1  12
TORSDOF 7
ENDMDL
MODEL 6
REMARK VINA RESULT:      -6.3      2.855      3.876
REMARK  Name = 
REMARK  7 active torsions:
REMARK  status: ('A' for Active; 'I' for Inactive)
REMARK    1  A    between atoms: N_2  and  C_4
REMARK    2  A    between atoms: C_8  and  N_9
REMARK    3  A    between atoms: N_9  and  C_10
REMARK    4  A    between atoms: C_10  and  O_12
REMARK    5  A    between atoms: O_12  and  C_13
REMARK    6  A    between atoms: C_13  and  C_14
REMARK    7  A    between atoms: C_14  and  C_15
REMARK                            x       y       z     vdW  Elec       q    Type
REMARK                         _______ _______ _______ _____ _____    ______ ____
ROOT
ATOM      1  N   UNL     1       5.197   3.228  19.459  0.00  0.00    +0.000 N 
ATOM      2  H   UNL     1       5.880   3.078  20.194  0.00  0.00    +0.000 HD
ENDROOT
BRANCH   1   7
ATOM      3  C   UNL     1       6.677   6.078  17.571  0.00  0.00    +0.000 A 
ATOM      4  C   UNL     1       6.035   5.928  16.334  0.00  0.00    +0.000 A 
ATOM      5  C   UNL     1       5.164   4.856  16.143  0.00  0.00    +0.000 A 
ATOM      6  C   UNL     1       4.926   3.955  17.185  0.00  0.00    +0.000 A 
ATOM      7  C   UNL     1       5.567   4.102  18.425  0.00  0.00    +0.000 A 
ATOM      8  C   UNL     1       6.448   5.163  18.610  0.00  0.00    +0.000 A 
BRANCH   3  10
ATOM      9  O   UNL     1       8.352   7.144  18.765  0.00  0.00    +0.000 OA
ATOM     10  N   UNL     1       7.559   7.221  17.811  0.00  0.00    +0.000 N 
ATOM     11  O   UNL     1       7.473   8.194  17.053  0.00  0.00    +0.000 OA
ENDBRANCH   3  10
ENDBRANCH   1   7
BRANCH   1  12
ATOM     12  C   UNL     1       4.100   2.415  19.576  0.00  0.00    +0.000 C 
ATOM     13  S   UNL     1       3.811   1.265  18.402  0.00  0.00    +0.000 S 
BRANCH  12  14
ATOM     14  O   UNL     1       3.327   2.579  20.690  0.00  0.00    +0.000 OA
BRANCH  14  15
ATOM     15  C   UNL     1       1.901   2.361  20.597  0.00  0.00    +0.000 C 
BRANCH  15  16
ATOM     16  C   UNL     1       1.105   3.648  20.804  0.00  0.00    +0.000 C 
BRANCH  16  17
ATOM     17  C   UNL     1       1.675   4.699  19.881  0.00  0.00    +0.000 A 
ATOM     18  C   UNL     1       1.567   4.563  18.499  0.00  0.00    +0.000 A 
ATOM     19  C   UNL     1       1.966   5.621  17.684  0.00  0.00    +0.000 A 
ATOM     20  C   UNL     1       2.462   6.780  18.268  0.00  0.00    +0.000 A 
ATOM     21  C   UNL     1       2.540   6.833  19.648  0.00  0.00    +0.000 A 
ATOM     22  N   UNL     1       2.155   5.825  20.463  0.00  0.00    +0.000 NA
ENDBRANCH  16  17
ENDBRANCH  15  16
ENDBRANCH  14  15
ENDBRANCH  12  14
ENDBRANCH   1  12
TORSDOF 7
ENDMDL
MODEL 7
REMARK VINA RESULT:      -6.3      0.971      1.332
REMARK  Name = 
REMARK  7 active torsions:
REMARK  status: ('A' for Active; 'I' for Inactive)
REMARK    1  A    between atoms: N_2  and  C_4
REMARK    2  A    between atoms: C_8  and  N_9
REMARK    3  A    between atoms: N_9  and  C_10
REMARK    4  A    between atoms: C_10  and  O_12
REMARK    5  A    between atoms: O_12  and  C_13
REMARK    6  A    between atoms: C_13  and  C_14
REMARK    7  A    between atoms: C_14  and  C_15
REMARK                            x       y       z     vdW  Elec       q    Type
REMARK                         _______ _______ _______ _____ _____    ______ ____
ROOT
ATOM      1  N   UNL     1       4.108   7.555  17.726  0.00  0.00    +0.000 N 
ATOM      2  H   UNL     1       4.497   8.480  17.869  0.00  0.00    +0.000 HD
ENDROOT
BRANCH   1   7
ATOM      3  C   UNL     1       6.111   5.126  15.734  0.00  0.00    +0.000 A 
ATOM      4  C   UNL     1       6.645   4.332  16.758  0.00  0.00    +0.000 A 
ATOM      5  C   UNL     1       6.365   4.652  18.086  0.00  0.00    +0.000 A 
ATOM      6  C   UNL     1       5.546   5.746  18.383  0.00  0.00    +0.000 A 
ATOM      7  C   UNL     1       5.010   6.543  17.360  0.00  0.00    +0.000 A 
ATOM      8  C   UNL     1       5.303   6.232  16.036  0.00  0.00    +0.000 A 
BRANCH   3  10
ATOM      9  O   UNL     1       7.379   5.236  13.798  0.00  0.00    +0.000 OA
ATOM     10  N   UNL     1       6.352   4.782  14.332  0.00  0.00    +0.000 N 
ATOM     11  O   UNL     1       5.530   4.059  13.759  0.00  0.00    +0.000 OA
ENDBRANCH   3  10
ENDBRANCH   1   7
BRANCH   1  12
ATOM     12  C   UNL     1       2.783   7.474  18.066  0.00  0.00    +0.000 C 
ATOM     13  S   UNL     1       1.809   8.815  17.867  0.00  0.00    +0.000 S 
BRANCH  12  14
ATOM     14  O   UNL     1       2.335   6.265  18.515  0.00  0.00    +0.000 OA
BRANCH  14  15
ATOM     15  C   UNL     1       2.260   6.025  19.939  0.00  0.00    +0.000 C 
BRANCH  15  16
ATOM     16  C   UNL     1       1.462   4.765  20.271  0.00  0.00    +0.000 C 
BRANCH  16  17
ATOM     17  C   UNL     1       2.151   3.594  19.614  0.00  0.00    +0.000 A 
ATOM     18  C   UNL     1       1.649   3.045  18.436  0.00  0.00    +0.000 A 
ATOM     19  C   UNL     1       2.393   2.068  17.776  0.00  0.00    +0.000 A 
ATOM     20  C   UNL     1       3.611   1.665  18.308  0.00  0.00    +0.000 A 
ATOM     21  C   UNL     1       4.037   2.258  19.483  0.00  0.00    +0.000 A 
ATOM     22  N   UNL     1       3.340   3.211  20.142  0.00  0.00    +0.000 NA
ENDBRANCH  16  17
ENDBRANCH  15  16
ENDBRANCH  14  15
ENDBRANCH  12  14
ENDBRANCH   1  12
TORSDOF 7
ENDMDL
MODEL 8
REMARK VINA RESULT:      -6.3      2.992      4.105
REMARK  Name = 
REMARK  7 active torsions:
REMARK  status: ('A' for Active; 'I' for Inactive)
REMARK    1  A    between atoms: N_2  and  C_4
REMARK    2  A    between atoms: C_8  and  N_9
REMARK    3  A    between atoms: N_9  and  C_10
REMARK    4  A    between atoms: C_10  and  O_12
REMARK    5  A    between atoms: O_12  and  C_13
REMARK    6  A    between atoms: C_13  and  C_14
REMARK    7  A    between atoms: C_14  and  C_15
REMARK                            x       y       z     vdW  Elec       q    Type
REMARK                         _______ _______ _______ _____ _____    ______ ____
ROOT
ATOM      1  N   UNL     1       5.681   5.125  15.753  0.00  0.00    +0.000 N 
ATOM      2  H   UNL     1       5.208   6.014  15.873  0.00  0.00    +0.000 HD
ENDROOT
BRANCH   1   7
ATOM      3  C   UNL     1       5.944   3.536  12.394  0.00  0.00    +0.000 A 
ATOM      4  C   UNL     1       7.169   4.059  11.957  0.00  0.00    +0.000 A 
ATOM      5  C   UNL     1       7.853   4.964  12.768  0.00  0.00    +0.000 A 
ATOM      6  C   UNL     1       7.322   5.327  14.010  0.00  0.00    +0.000 A 
ATOM      7  C   UNL     1       6.097   4.805  14.451  0.00  0.00    +0.000 A 
ATOM      8  C   UNL     1       5.408   3.914  13.633  0.00  0.00    +0.000 A 
BRANCH   3  10
ATOM      9  O   UNL     1       5.817   1.482  11.329  0.00  0.00    +0.000 OA
ATOM     10  N   UNL     1       5.231   2.549  11.581  0.00  0.00    +0.000 N 
ATOM     11  O   UNL     1       4.090   2.826  11.195  0.00  0.00    +0.000 OA
ENDBRANCH   3  10
ENDBRANCH   1   7
BRANCH   1  12
ATOM     12  C   UNL     1       5.934   4.491  16.940  0.00  0.00    +0.000 C 
ATOM     13  S   UNL     1       7.403   4.733  17.695  0.00  0.00    +0.000 S 
BRANCH  12  14
ATOM     14  O   UNL     1       4.930   3.722  17.455  0.00  0.00    +0.000 OA
BRANCH  14  15
ATOM     15  C   UNL     1       3.581   3.902  16.965  0.00  0.00    +0.000 C 
BRANCH  15  16
ATOM     16  C   UNL     1       2.772   4.858  17.840  0.00  0.00    +0.000 C 
BRANCH  16  17
ATOM     17  C   UNL     1       2.365   4.111  19.088  0.00  0.00    +0.000 A 
ATOM     18  C   UNL     1       2.661   4.625  20.349  0.00  0.00    +0.000 A 
ATOM     19  C   UNL     1       2.138   3.990  21.474  0.00  0.00    +0.000 A 
ATOM     20  C   UNL     1       1.340   2.864  21.312  0.00  0.00    +0.000 A 
ATOM     21  C   UNL     1       1.098   2.417  20.026  0.00  0.00    +0.000 A 
ATOM     22  N   UNL     1       1.587   3.015  18.916  0.00  0.00    +0.000 NA
ENDBRANCH  16  17
ENDBRANCH  15  16
ENDBRANCH  14  15
ENDBRANCH  12  14
ENDBRANCH   1  12
TORSDOF 7
ENDMDL
MODEL 9
REMARK VINA RESULT:      -6.3      2.828      4.708
REMARK  Name = 
REMARK  7 active torsions:
REMARK  status: ('A' for Active; 'I' for Inactive)
REMARK    1  A    between atoms: N_2  and  C_4
REMARK    2  A    between atoms: C_8  and  N_9
REMARK    3  A    between atoms: N_9  and  C_10
REMARK    4  A    between atoms: C_10  and  O_12
REMARK    5  A    between atoms: O_12  and  C_13
REMARK    6  A    between atoms: C_13  and  C_14
REMARK    7  A    between atoms: C_14  and  C_15
REMARK                            x       y       z     vdW  Elec       q    Type
REMARK                         _______ _______ _______ _____ _____    ______ ____
ROOT
ATOM      1  N   UNL     1       4.546   2.937  17.450  0.00  0.00    +0.000 N 
ATOM      2  H   UNL     1       4.503   2.000  17.065  0.00  0.00    +0.000 HD
ENDROOT
BRANCH   1   7
ATOM      3  C   UNL     1       6.956   5.724  16.905  0.00  0.00    +0.000 A 
ATOM      4  C   UNL     1       7.087   5.683  15.510  0.00  0.00    +0.000 A 
ATOM      5  C   UNL     1       6.408   4.700  14.790  0.00  0.00    +0.000 A 
ATOM      6  C   UNL     1       5.596   3.780  15.460  0.00  0.00    +0.000 A 
ATOM      7  C   UNL     1       5.463   3.819  16.856  0.00  0.00    +0.000 A 
ATOM      8  C   UNL     1       6.153   4.790  17.575  0.00  0.00    +0.000 A 
BRANCH   3  10
ATOM      9  O   UNL     1       7.724   7.896  17.151  0.00  0.00    +0.000 OA
ATOM     10  N   UNL     1       7.621   6.776  17.678  0.00  0.00    +0.000 N 
ATOM     11  O   UNL     1       8.038   6.494  18.807  0.00  0.00    +0.000 OA
ENDBRANCH   3  10
ENDBRANCH   1   7
BRANCH   1  12
ATOM     12  C   UNL     1       3.576   3.174  18.388  0.00  0.00    +0.000 C 
ATOM     13  S   UNL     1       3.808   2.635  19.951  0.00  0.00    +0.000 S 
BRANCH  12  14
ATOM     14  O   UNL     1       2.484   3.885  17.981  0.00  0.00    +0.000 OA
BRANCH  14  15
ATOM     15  C   UNL     1       2.159   5.125  18.652  0.00  0.00    +0.000 C 
BRANCH  15  16
ATOM     16  C   UNL     1       3.008   6.291  18.150  0.00  0.00    +0.000 C 
BRANCH  16  17
ATOM     17  C   UNL     1       2.377   7.570  18.645  0.00  0.00    +0.000 A 
ATOM     18  C   UNL     1       2.076   8.603  17.758  0.00  0.00    +0.000 A 
ATOM     19  C   UNL     1       1.357   9.702  18.223  0.00  0.00    +0.000 A 
ATOM     20  C   UNL     1       0.960   9.743  19.554  0.00  0.00    +0.000 A 
ATOM     21  C   UNL     1       1.302   8.679  20.369  0.00  0.00    +0.000 A 
ATOM     22  N   UNL     1       1.994   7.597  19.945  0.00  0.00    +0.000 NA
ENDBRANCH  16  17
ENDBRANCH  15  16
ENDBRANCH  14  15
ENDBRANCH  12  14
ENDBRANCH   1  12
TORSDOF 7
ENDMDL
