MODEL 1
REMARK VINA RESULT:      -8.5      0.000      0.000
REMARK  Name = 
REMARK  6 active torsions:
REMARK  status: ('A' for Active; 'I' for Inactive)
REMARK    1  A    between atoms: C_1  and  C_2
REMARK    2  A    between atoms: C_2  and  C_3
REMARK    3  A    between atoms: C_2  and  N_4
REMARK    4  A    between atoms: C_7  and  C_8
REMARK    5  A    between atoms: C_13  and  C_14
REMARK    6  A    between atoms: N_18  and  C_19
REMARK                            x       y       z     vdW  Elec       q    Type
REMARK                         _______ _______ _______ _____ _____    ______ ____
ROOT
ATOM      1  C   UNL     1       3.589   6.284  18.307  0.00  0.00    +0.000 A 
ATOM      2  N   UNL     1       3.229   7.295  17.452  0.00  0.00    +0.000 NA
ATOM      3  C   UNL     1       2.477   8.069  18.204  0.00  0.00    +0.000 A 
ATOM      4  C   UNL     1       1.803   9.294  17.947  0.00  0.00    +0.000 A 
ATOM      5  C   UNL     1       1.088   9.879  18.933  0.00  0.00    +0.000 A 
ATOM      6  C   UNL     1       0.969   9.286  20.266  0.00  0.00    +0.000 A 
ATOM      7  C   UNL     1       1.630   8.135  20.498  0.00  0.00    +0.000 A 
ATOM      8  N   UNL     1       2.369   7.532  19.484  0.00  0.00    +0.000 N 
ATOM      9  N   UNL     1       3.075   6.380  19.539  0.00  0.00    +0.000 NA
ENDROOT
BRANCH   1  13
ATOM     10  N   UNL     1       3.056   2.701  18.833  0.00  0.00    +0.000 NA
ATOM     11  C   UNL     1       2.647   3.396  17.604  0.00  0.00    +0.000 C 
ATOM     12  C   UNL     1       3.776   4.168  16.920  0.00  0.00    +0.000 C 
ATOM     13  C   UNL     1       4.467   5.133  17.890  0.00  0.00    +0.000 C 
ATOM     14  C   UNL     1       4.988   4.305  19.068  0.00  0.00    +0.000 C 
ATOM     15  C   UNL     1       3.867   3.520  19.750  0.00  0.00    +0.000 C 
BRANCH  10  17
ATOM     16  C   UNL     1       1.726   2.527  21.008  0.00  0.00    +0.000 C 
ATOM     17  C   UNL     1       1.919   2.069  19.551  0.00  0.00    +0.000 C 
ATOM     18  C   UNL     1       0.601   2.244  18.784  0.00  0.00    +0.000 C 
ENDBRANCH  10  17
ENDBRANCH   1  13
BRANCH   6  19
ATOM     19  C   UNL     1       0.267   9.875  21.352  0.00  0.00    +0.000 A 
ATOM     20  C   UNL     1      -0.535   9.343  22.344  0.00  0.00    +0.000 A 
ATOM     21  C   UNL     1      -0.937  10.442  23.120  0.00  0.00    +0.000 A 
ATOM     22  N   UNL     1      -0.435  11.591  22.669  0.00  0.00    +0.000 NA
ATOM     23  N   UNL     1       0.289  11.231  21.588  0.00  0.00    +0.000 N 
ATOM     24  C   UNL     1       0.965  12.265  20.836  0.00  0.00    +0.000 C 
ENDBRANCH   6  19
TORSDOF 3
ENDMDL
MODEL 2
REMARK VINA RESULT:      -8.3      1.571      2.545
REMARK  Name = 
REMARK  6 active torsions:
REMARK  status: ('A' for Active; 'I' for Inactive)
REMARK    1  A    between atoms: C_1  and  C_2
REMARK    2  A    between atoms: C_2  and  C_3
REMARK    3  A    between atoms: C_2  and  N_4
REMARK    4  A    between atoms: C_7  and  C_8
REMARK    5  A    between atoms: C_13  and  C_14
REMARK    6  A    between atoms: N_18  and  C_19
REMARK                            x       y       z     vdW  Elec       q    Type
REMARK                         _______ _______ _______ _____ _____    ______ ____
ROOT
ATOM      1  C   UNL     1       3.465   6.389  18.460  0.00  0.00    +0.000 A 
ATOM      2  N   UNL     1       2.909   6.403  19.714  0.00  0.00    +0.000 NA
ATOM      3  C   UNL     1       2.213   7.519  19.721  0.00  0.00    +0.000 A 
ATOM      4  C   UNL     1       1.382   8.125  20.701  0.00  0.00    +0.000 A 
ATOM      5  C   UNL     1       0.777   9.301  20.425  0.00  0.00    +0.000 A 
ATOM      6  C   UNL     1       0.956   9.988  19.144  0.00  0.00    +0.000 A 
ATOM      7  C   UNL     1       1.732   9.389  18.219  0.00  0.00    +0.000 A 
ATOM      8  N   UNL     1       2.354   8.176  18.502  0.00  0.00    +0.000 N 
ATOM      9  N   UNL     1       3.170   7.452  17.703  0.00  0.00    +0.000 NA
ENDROOT
BRANCH   1  13
ATOM     10  N   UNL     1       3.039   2.773  18.832  0.00  0.00    +0.000 NA
ATOM     11  C   UNL     1       2.589   3.510  17.643  0.00  0.00    +0.000 C 
ATOM     12  C   UNL     1       3.684   4.343  16.976  0.00  0.00    +0.000 C 
ATOM     13  C   UNL     1       4.366   5.283  17.976  0.00  0.00    +0.000 C 
ATOM     14  C   UNL     1       4.931   4.417  19.107  0.00  0.00    +0.000 C 
ATOM     15  C   UNL     1       3.845   3.572  19.771  0.00  0.00    +0.000 C 
BRANCH  10  17
ATOM     16  C   UNL     1       1.725   2.498  21.006  0.00  0.00    +0.000 C 
ATOM     17  C   UNL     1       1.933   2.078  19.541  0.00  0.00    +0.000 C 
ATOM     18  C   UNL     1       0.607   2.209  18.779  0.00  0.00    +0.000 C 
ENDBRANCH  10  17
ENDBRANCH   1  13
BRANCH   6  19
ATOM     19  C   UNL     1       0.314  11.202  18.782  0.00  0.00    +0.000 A 
ATOM     20  C   UNL     1       0.713  12.524  18.842  0.00  0.00    +0.000 A 
ATOM     21  C   UNL     1      -0.372  13.259  18.337  0.00  0.00    +0.000 A 
ATOM     22  N   UNL     1      -1.390  12.477  17.978  0.00  0.00    +0.000 NA
ATOM     23  N   UNL     1      -0.961  11.229  18.262  0.00  0.00    +0.000 N 
ATOM     24  C   UNL     1      -1.852  10.119  18.006  0.00  0.00    +0.000 C 
ENDBRANCH   6  19
TORSDOF 3
ENDMDL
MODEL 3
REMARK VINA RESULT:      -8.2      2.100      4.003
REMARK  Name = 
REMARK  6 active torsions:
REMARK  status: ('A' for Active; 'I' for Inactive)
REMARK    1  A    between atoms: C_1  and  C_2
REMARK    2  A    between atoms: C_2  and  C_3
REMARK    3  A    between atoms: C_2  and  N_4
REMARK    4  A    between atoms: C_7  and  C_8
REMARK    5  A    between atoms: C_13  and  C_14
REMARK    6  A    between atoms: N_18  and  C_19
REMARK                            x       y       z     vdW  Elec       q    Type
REMARK                         _______ _______ _______ _____ _____    ______ ____
ROOT
ATOM      1  C   UNL     1       2.833   5.644  18.597  0.00  0.00    +0.000 A 
ATOM      2  N   UNL     1       2.437   5.804  19.901  0.00  0.00    +0.000 NA
ATOM      3  C   UNL     1       1.992   7.041  19.929  0.00  0.00    +0.000 A 
ATOM      4  C   UNL     1       1.420   7.832  20.963  0.00  0.00    +0.000 A 
ATOM      5  C   UNL     1       1.043   9.101  20.697  0.00  0.00    +0.000 A 
ATOM      6  C   UNL     1       1.214   9.705  19.374  0.00  0.00    +0.000 A 
ATOM      7  C   UNL     1       1.740   8.935  18.401  0.00  0.00    +0.000 A 
ATOM      8  N   UNL     1       2.127   7.626  18.672  0.00  0.00    +0.000 N 
ATOM      9  N   UNL     1       2.680   6.728  17.826  0.00  0.00    +0.000 NA
ENDROOT
BRANCH   1  13
ATOM     10  N   UNL     1       6.331   4.902  17.816  0.00  0.00    +0.000 NA
ATOM     11  C   UNL     1       5.721   4.592  19.117  0.00  0.00    +0.000 C 
ATOM     12  C   UNL     1       4.455   3.741  19.024  0.00  0.00    +0.000 C 
ATOM     13  C   UNL     1       3.426   4.362  18.073  0.00  0.00    +0.000 C 
ATOM     14  C   UNL     1       4.100   4.516  16.706  0.00  0.00    +0.000 C 
ATOM     15  C   UNL     1       5.374   5.355  16.792  0.00  0.00    +0.000 C 
BRANCH  10  17
ATOM     16  C   UNL     1       7.207   7.272  17.434  0.00  0.00    +0.000 C 
ATOM     17  C   UNL     1       7.481   5.837  17.918  0.00  0.00    +0.000 C 
ATOM     18  C   UNL     1       8.045   5.880  19.345  0.00  0.00    +0.000 C 
ENDBRANCH  10  17
ENDBRANCH   1  13
BRANCH   6  19
ATOM     19  C   UNL     1       0.800  11.019  19.026  0.00  0.00    +0.000 A 
ATOM     20  C   UNL     1       1.458  12.235  19.018  0.00  0.00    +0.000 A 
ATOM     21  C   UNL     1       0.504  13.165  18.574  0.00  0.00    +0.000 A 
ATOM     22  N   UNL     1      -0.674  12.598  18.314  0.00  0.00    +0.000 NA
ATOM     23  N   UNL     1      -0.481  11.293  18.601  0.00  0.00    +0.000 N 
ATOM     24  C   UNL     1      -1.592  10.381  18.443  0.00  0.00    +0.000 C 
ENDBRANCH   6  19
TORSDOF 3
ENDMDL
MODEL 4
REMARK VINA RESULT:      -8.1      1.468      2.296
REMARK  Name = 
REMARK  6 active torsions:
REMARK  status: ('A' for Active; 'I' for Inactive)
REMARK    1  A    between atoms: C_1  and  C_2
REMARK    2  A    between atoms: C_2  and  C_3
REMARK    3  A    between atoms: C_2  and  N_4
REMARK    4  A    between atoms: C_7  and  C_8
REMARK    5  A    between atoms: C_13  and  C_14
REMARK    6  A    between atoms: N_18  and  C_19
REMARK                            x       y       z     vdW  Elec       q    Type
REMARK                         _______ _______ _______ _____ _____    ______ ____
ROOT
ATOM      1  C   UNL     1       3.430   6.390  18.499  0.00  0.00    +0.000 A 
ATOM      2  N   UNL     1       2.937   6.432  19.779  0.00  0.00    +0.000 NA
ATOM      3  C   UNL     1       2.199   7.520  19.779  0.00  0.00    +0.000 A 
ATOM      4  C   UNL     1       1.393   8.133  20.778  0.00  0.00    +0.000 A 
ATOM      5  C   UNL     1       0.729   9.273  20.488  0.00  0.00    +0.000 A 
ATOM      6  C   UNL     1       0.817   9.915  19.176  0.00  0.00    +0.000 A 
ATOM      7  C   UNL     1       1.569   9.310  18.235  0.00  0.00    +0.000 A 
ATOM      8  N   UNL     1       2.253   8.134  18.531  0.00  0.00    +0.000 N 
ATOM      9  N   UNL     1       3.056   7.410  17.719  0.00  0.00    +0.000 NA
ENDROOT
BRANCH   1  13
ATOM     10  N   UNL     1       3.052   2.765  18.837  0.00  0.00    +0.000 NA
ATOM     11  C   UNL     1       2.599   3.507  17.652  0.00  0.00    +0.000 C 
ATOM     12  C   UNL     1       3.687   4.361  16.999  0.00  0.00    +0.000 C 
ATOM     13  C   UNL     1       4.350   5.300  18.012  0.00  0.00    +0.000 C 
ATOM     14  C   UNL     1       4.919   4.433  19.138  0.00  0.00    +0.000 C 
ATOM     15  C   UNL     1       3.840   3.567  19.789  0.00  0.00    +0.000 C 
BRANCH  10  17
ATOM     16  C   UNL     1       1.732   2.448  21.002  0.00  0.00    +0.000 C 
ATOM     17  C   UNL     1       1.951   2.049  19.532  0.00  0.00    +0.000 C 
ATOM     18  C   UNL     1       0.626   2.176  18.768  0.00  0.00    +0.000 C 
ENDBRANCH  10  17
ENDBRANCH   1  13
BRANCH   6  19
ATOM     19  C   UNL     1       0.110  11.089  18.802  0.00  0.00    +0.000 A 
ATOM     20  C   UNL     1      -1.153  11.292  18.277  0.00  0.00    +0.000 A 
ATOM     21  C   UNL     1      -1.267  12.684  18.123  0.00  0.00    +0.000 A 
ATOM     22  N   UNL     1      -0.169  13.329  18.517  0.00  0.00    +0.000 NA
ATOM     23  N   UNL     1       0.663  12.345  18.920  0.00  0.00    +0.000 N 
ATOM     24  C   UNL     1       1.977  12.708  19.399  0.00  0.00    +0.000 C 
ENDBRANCH   6  19
TORSDOF 3
ENDMDL
MODEL 5
REMARK VINA RESULT:      -8.1      1.631      3.245
REMARK  Name = 
REMARK  6 active torsions:
REMARK  status: ('A' for Active; 'I' for Inactive)
REMARK    1  A    between atoms: C_1  and  C_2
REMARK    2  A    between atoms: C_2  and  C_3
REMARK    3  A    between atoms: C_2  and  N_4
REMARK    4  A    between atoms: C_7  and  C_8
REMARK    5  A    between atoms: C_13  and  C_14
REMARK    6  A    between atoms: N_18  and  C_19
REMARK                            x       y       z     vdW  Elec       q    Type
REMARK                         _______ _______ _______ _____ _____    ______ ____
ROOT
ATOM      1  C   UNL     1       3.027   5.615  18.347  0.00  0.00    +0.000 A 
ATOM      2  N   UNL     1       2.914   6.706  17.523  0.00  0.00    +0.000 NA
ATOM      3  C   UNL     1       2.297   7.589  18.277  0.00  0.00    +0.000 A 
ATOM      4  C   UNL     1       1.893   8.932  18.047  0.00  0.00    +0.000 A 
ATOM      5  C   UNL     1       1.264   9.614  19.029  0.00  0.00    +0.000 A 
ATOM      6  C   UNL     1       0.969   9.013  20.331  0.00  0.00    +0.000 A 
ATOM      7  C   UNL     1       1.377   7.745  20.538  0.00  0.00    +0.000 A 
ATOM      8  N   UNL     1       2.027   7.041  19.528  0.00  0.00    +0.000 N 
ATOM      9  N   UNL     1       2.486   5.770  19.561  0.00  0.00    +0.000 NA
ENDROOT
BRANCH   1  13
ATOM     10  N   UNL     1       6.587   4.893  17.903  0.00  0.00    +0.000 NA
ATOM     11  C   UNL     1       5.867   4.613  19.153  0.00  0.00    +0.000 C 
ATOM     12  C   UNL     1       4.622   3.744  18.972  0.00  0.00    +0.000 C 
ATOM     13  C   UNL     1       3.677   4.326  17.915  0.00  0.00    +0.000 C 
ATOM     14  C   UNL     1       4.469   4.449  16.610  0.00  0.00    +0.000 C 
ATOM     15  C   UNL     1       5.722   5.306  16.785  0.00  0.00    +0.000 C 
BRANCH  10  17
ATOM     16  C   UNL     1       7.469   7.264  17.536  0.00  0.00    +0.000 C 
ATOM     17  C   UNL     1       7.715   5.846  18.081  0.00  0.00    +0.000 C 
ATOM     18  C   UNL     1       8.151   5.932  19.549  0.00  0.00    +0.000 C 
ENDBRANCH  10  17
ENDBRANCH   1  13
BRANCH   6  19
ATOM     19  C   UNL     1       0.349   9.693  21.413  0.00  0.00    +0.000 A 
ATOM     20  C   UNL     1      -0.403   9.252  22.485  0.00  0.00    +0.000 A 
ATOM     21  C   UNL     1      -0.731  10.412  23.205  0.00  0.00    +0.000 A 
ATOM     22  N   UNL     1      -0.230  11.514  22.647  0.00  0.00    +0.000 NA
ATOM     23  N   UNL     1       0.418  11.061  21.552  0.00  0.00    +0.000 N 
ATOM     24  C   UNL     1       1.071  12.022  20.692  0.00  0.00    +0.000 C 
ENDBRANCH   6  19
TORSDOF 3
ENDMDL
MODEL 6
REMARK VINA RESULT:      -7.9      2.279      7.682
REMARK  Name = 
REMARK  6 active torsions:
REMARK  status: ('A' for Active; 'I' for Inactive)
REMARK    1  A    between atoms: C_1  and  C_2
REMARK    2  A    between atoms: C_2  and  C_3
REMARK    3  A    between atoms: C_2  and  N_4
REMARK    4  A    between atoms: C_7  and  C_8
REMARK    5  A    between atoms: C_13  and  C_14
REMARK    6  A    between atoms: N_18  and  C_19
REMARK                            x       y       z     vdW  Elec       q    Type
REMARK                         _______ _______ _______ _____ _____    ______ ____
ROOT
ATOM      1  C   UNL     1       1.607   9.536  18.333  0.00  0.00    +0.000 A 
ATOM      2  N   UNL     1       1.494   8.606  19.335  0.00  0.00    +0.000 NA
ATOM      3  C   UNL     1       2.353   7.676  18.979  0.00  0.00    +0.000 A 
ATOM      4  C   UNL     1       2.745   6.451  19.583  0.00  0.00    +0.000 A 
ATOM      5  C   UNL     1       3.674   5.679  18.978  0.00  0.00    +0.000 A 
ATOM      6  C   UNL     1       4.290   6.055  17.704  0.00  0.00    +0.000 A 
ATOM      7  C   UNL     1       3.920   7.229  17.155  0.00  0.00    +0.000 A 
ATOM      8  N   UNL     1       2.965   8.026  17.778  0.00  0.00    +0.000 N 
ATOM      9  N   UNL     1       2.472   9.215  17.363  0.00  0.00    +0.000 NA
ENDROOT
BRANCH   1  13
ATOM     10  N   UNL     1      -0.225  11.143  21.064  0.00  0.00    +0.000 NA
ATOM     11  C   UNL     1       1.155  11.501  20.711  0.00  0.00    +0.000 C 
ATOM     12  C   UNL     1       1.342  11.889  19.244  0.00  0.00    +0.000 C 
ATOM     13  C   UNL     1       0.801  10.808  18.302  0.00  0.00    +0.000 C 
ATOM     14  C   UNL     1      -0.678  10.602  18.643  0.00  0.00    +0.000 C 
ATOM     15  C   UNL     1      -0.875  10.226  20.112  0.00  0.00    +0.000 C 
BRANCH  10  17
ATOM     16  C   UNL     1      -1.566  11.192  23.239  0.00  0.00    +0.000 C 
ATOM     17  C   UNL     1      -0.360  10.643  22.457  0.00  0.00    +0.000 C 
ATOM     18  C   UNL     1      -0.378   9.109  22.505  0.00  0.00    +0.000 C 
ENDBRANCH  10  17
ENDBRANCH   1  13
BRANCH   6  19
ATOM     19  C   UNL     1       5.300   5.306  17.043  0.00  0.00    +0.000 A 
ATOM     20  C   UNL     1       5.252   4.337  16.058  0.00  0.00    +0.000 A 
ATOM     21  C   UNL     1       6.590   3.980  15.828  0.00  0.00    +0.000 A 
ATOM     22  N   UNL     1       7.436   4.663  16.598  0.00  0.00    +0.000 NA
ATOM     23  N   UNL     1       6.637   5.460  17.338  0.00  0.00    +0.000 N 
ATOM     24  C   UNL     1       7.248   6.336  18.312  0.00  0.00    +0.000 C 
ENDBRANCH   6  19
TORSDOF 3
ENDMDL
MODEL 7
REMARK VINA RESULT:      -7.8      1.593      3.171
REMARK  Name = 
REMARK  6 active torsions:
REMARK  status: ('A' for Active; 'I' for Inactive)
REMARK    1  A    between atoms: C_1  and  C_2
REMARK    2  A    between atoms: C_2  and  C_3
REMARK    3  A    between atoms: C_2  and  N_4
REMARK    4  A    between atoms: C_7  and  C_8
REMARK    5  A    between atoms: C_13  and  C_14
REMARK    6  A    between atoms: N_18  and  C_19
REMARK                            x       y       z     vdW  Elec       q    Type
REMARK                         _______ _______ _______ _____ _____    ______ ____
ROOT
ATOM      1  C   UNL     1       2.865   5.442  18.909  0.00  0.00    +0.000 A 
ATOM      2  N   UNL     1       2.836   6.314  17.850  0.00  0.00    +0.000 NA
ATOM      3  C   UNL     1       2.292   7.394  18.367  0.00  0.00    +0.000 A 
ATOM      4  C   UNL     1       1.993   8.673  17.822  0.00  0.00    +0.000 A 
ATOM      5  C   UNL     1       1.422   9.613  18.607  0.00  0.00    +0.000 A 
ATOM      6  C   UNL     1       1.085   9.359  20.008  0.00  0.00    +0.000 A 
ATOM      7  C   UNL     1       1.393   8.148  20.514  0.00  0.00    +0.000 A 
ATOM      8  N   UNL     1       1.983   7.179  19.708  0.00  0.00    +0.000 N 
ATOM      9  N   UNL     1       2.342   5.919  20.045  0.00  0.00    +0.000 NA
ENDROOT
BRANCH   1  13
ATOM     10  N   UNL     1       5.988   4.325  17.361  0.00  0.00    +0.000 NA
ATOM     11  C   UNL     1       5.874   4.633  18.793  0.00  0.00    +0.000 C 
ATOM     12  C   UNL     1       4.760   3.866  19.508  0.00  0.00    +0.000 C 
ATOM     13  C   UNL     1       3.412   4.042  18.802  0.00  0.00    +0.000 C 
ATOM     14  C   UNL     1       3.584   3.563  17.357  0.00  0.00    +0.000 C 
ATOM     15  C   UNL     1       4.704   4.316  16.639  0.00  0.00    +0.000 C 
BRANCH  10  17
ATOM     16  C   UNL     1       6.951   5.096  15.123  0.00  0.00    +0.000 C 
ATOM     17  C   UNL     1       6.984   5.175  16.659  0.00  0.00    +0.000 C 
ATOM     18  C   UNL     1       6.878   6.643  17.096  0.00  0.00    +0.000 C 
ENDBRANCH  10  17
ENDBRANCH   1  13
BRANCH   6  19
ATOM     19  C   UNL     1       0.523  10.319  20.891  0.00  0.00    +0.000 A 
ATOM     20  C   UNL     1      -0.385  10.217  21.928  0.00  0.00    +0.000 A 
ATOM     21  C   UNL     1      -0.538  11.526  22.412  0.00  0.00    +0.000 A 
ATOM     22  N   UNL     1       0.211  12.404  21.746  0.00  0.00    +0.000 NA
ATOM     23  N   UNL     1       0.845  11.656  20.818  0.00  0.00    +0.000 N 
ATOM     24  C   UNL     1       1.740  12.318  19.895  0.00  0.00    +0.000 C 
ENDBRANCH   6  19
TORSDOF 3
ENDMDL
MODEL 8
REMARK VINA RESULT:      -7.7      1.757      3.281
REMARK  Name = 
REMARK  6 active torsions:
REMARK  status: ('A' for Active; 'I' for Inactive)
REMARK    1  A    between atoms: C_1  and  C_2
REMARK    2  A    between atoms: C_2  and  C_3
REMARK    3  A    between atoms: C_2  and  N_4
REMARK    4  A    between atoms: C_7  and  C_8
REMARK    5  A    between atoms: C_13  and  C_14
REMARK    6  A    between atoms: N_18  and  C_19
REMARK                            x       y       z     vdW  Elec       q    Type
REMARK                         _______ _______ _______ _____ _____    ______ ____
ROOT
ATOM      1  C   UNL     1       2.570   6.246  18.811  0.00  0.00    +0.000 A 
ATOM      2  N   UNL     1       2.597   7.165  17.792  0.00  0.00    +0.000 NA
ATOM      3  C   UNL     1       2.073   8.238  18.342  0.00  0.00    +0.000 A 
ATOM      4  C   UNL     1       1.829   9.548  17.847  0.00  0.00    +0.000 A 
ATOM      5  C   UNL     1       1.267  10.471  18.658  0.00  0.00    +0.000 A 
ATOM      6  C   UNL     1       0.883  10.166  20.038  0.00  0.00    +0.000 A 
ATOM      7  C   UNL     1       1.139   8.925  20.496  0.00  0.00    +0.000 A 
ATOM      8  N   UNL     1       1.721   7.974  19.663  0.00  0.00    +0.000 N 
ATOM      9  N   UNL     1       2.030   6.690  19.953  0.00  0.00    +0.000 NA
ENDROOT
BRANCH   1  13
ATOM     10  N   UNL     1       5.963   5.110  18.042  0.00  0.00    +0.000 NA
ATOM     11  C   UNL     1       5.456   5.236  19.416  0.00  0.00    +0.000 C 
ATOM     12  C   UNL     1       4.160   4.468  19.674  0.00  0.00    +0.000 C 
ATOM     13  C   UNL     1       3.075   4.835  18.656  0.00  0.00    +0.000 C 
ATOM     14  C   UNL     1       3.634   4.538  17.262  0.00  0.00    +0.000 C 
ATOM     15  C   UNL     1       4.938   5.292  17.000  0.00  0.00    +0.000 C 
BRANCH  10  17
ATOM     16  C   UNL     1       6.832   7.376  17.240  0.00  0.00    +0.000 C 
ATOM     17  C   UNL     1       7.147   5.968  17.776  0.00  0.00    +0.000 C 
ATOM     18  C   UNL     1       8.047   6.084  19.014  0.00  0.00    +0.000 C 
ENDBRANCH  10  17
ENDBRANCH   1  13
BRANCH   6  19
ATOM     19  C   UNL     1       0.327  11.105  20.947  0.00  0.00    +0.000 A 
ATOM     20  C   UNL     1      -0.750  11.044  21.811  0.00  0.00    +0.000 A 
ATOM     21  C   UNL     1      -0.788  12.299  22.440  0.00  0.00    +0.000 A 
ATOM     22  N   UNL     1       0.186  13.106  22.020  0.00  0.00    +0.000 NA
ATOM     23  N   UNL     1       0.851  12.369  21.106  0.00  0.00    +0.000 N 
ATOM     24  C   UNL     1       1.979  12.967  20.427  0.00  0.00    +0.000 C 
ENDBRANCH   6  19
TORSDOF 3
ENDMDL
MODEL 9
REMARK VINA RESULT:      -7.7      0.767      1.025
REMARK  Name = 
REMARK  6 active torsions:
REMARK  status: ('A' for Active; 'I' for Inactive)
REMARK    1  A    between atoms: C_1  and  C_2
REMARK    2  A    between atoms: C_2  and  C_3
REMARK    3  A    between atoms: C_2  and  N_4
REMARK    4  A    between atoms: C_7  and  C_8
REMARK    5  A    between atoms: C_13  and  C_14
REMARK    6  A    between atoms: N_18  and  C_19
REMARK                            x       y       z     vdW  Elec       q    Type
REMARK                         _______ _______ _______ _____ _____    ______ ____
ROOT
ATOM      1  C   UNL     1       3.584   6.339  18.283  0.00  0.00    +0.000 A 
ATOM      2  N   UNL     1       3.333   7.335  17.373  0.00  0.00    +0.000 NA
ATOM      3  C   UNL     1       2.556   8.160  18.039  0.00  0.00    +0.000 A 
ATOM      4  C   UNL     1       1.954   9.400  17.693  0.00  0.00    +0.000 A 
ATOM      5  C   UNL     1       1.188  10.044  18.600  0.00  0.00    +0.000 A 
ATOM      6  C   UNL     1       0.941   9.500  19.937  0.00  0.00    +0.000 A 
ATOM      7  C   UNL     1       1.535   8.333  20.255  0.00  0.00    +0.000 A 
ATOM      8  N   UNL     1       2.327   7.670  19.322  0.00  0.00    +0.000 N 
ATOM      9  N   UNL     1       2.979   6.495  19.467  0.00  0.00    +0.000 NA
ENDROOT
BRANCH   1  13
ATOM     10  N   UNL     1       2.914   2.806  18.964  0.00  0.00    +0.000 NA
ATOM     11  C   UNL     1       2.589   3.447  17.682  0.00  0.00    +0.000 C 
ATOM     12  C   UNL     1       3.775   4.149  17.019  0.00  0.00    +0.000 C 
ATOM     13  C   UNL     1       4.446   5.143  17.972  0.00  0.00    +0.000 C 
ATOM     14  C   UNL     1       4.881   4.364  19.217  0.00  0.00    +0.000 C 
ATOM     15  C   UNL     1       3.703   3.649  19.879  0.00  0.00    +0.000 C 
BRANCH  10  17
ATOM     16  C   UNL     1       1.483   2.770  21.081  0.00  0.00    +0.000 C 
ATOM     17  C   UNL     1       1.723   2.246  19.654  0.00  0.00    +0.000 C 
ATOM     18  C   UNL     1       0.449   2.437  18.821  0.00  0.00    +0.000 C 
ENDBRANCH  10  17
ENDBRANCH   1  13
BRANCH   6  19
ATOM     19  C   UNL     1       0.180  10.150  20.946  0.00  0.00    +0.000 A 
ATOM     20  C   UNL     1      -0.888  11.027  20.892  0.00  0.00    +0.000 A 
ATOM     21  C   UNL     1      -1.195  11.314  22.232  0.00  0.00    +0.000 A 
ATOM     22  N   UNL     1      -0.394  10.674  23.083  0.00  0.00    +0.000 NA
ATOM     23  N   UNL     1       0.443   9.977  22.286  0.00  0.00    +0.000 N 
ATOM     24  C   UNL     1       1.472   9.172  22.905  0.00  0.00    +0.000 C 
ENDBRANCH   6  19
TORSDOF 3
ENDMDL
