MODEL 1
REMARK VINA RESULT:      -7.3      0.000      0.000
REMARK  Name = 
REMARK  8 active torsions:
REMARK  status: ('A' for Active; 'I' for Inactive)
REMARK    1  A    between atoms: C_1  and  O_2
REMARK    2  A    between atoms: O_2  and  N_3
REMARK    3  A    between atoms: N_3  and  C_4
REMARK    4  A    between atoms: C_5  and  C_7
REMARK    5  A    between atoms: C_8  and  C_9
REMARK    6  A    between atoms: C_9  and  C_10
REMARK    7  A    between atoms: C_11  and  C_12
REMARK    8  A    between atoms: C_12  and  O_14
REMARK                            x       y       z     vdW  Elec       q    Type
REMARK                         _______ _______ _______ _____ _____    ______ ____
ROOT
ATOM      1  C   UNL     1       3.556   3.998  18.215  0.00  0.00    +0.000 C 
ATOM      2  C   UNL     1       4.526   3.785  17.047  0.00  0.00    +0.000 C 
ATOM      3  C   UNL     1       3.892   3.270  19.545  0.00  0.00    +0.000 C 
ATOM      4  N   UNL     1       2.640   3.191  20.320  0.00  0.00    +0.000 N 
ATOM      5  C   UNL     1       2.178   4.298  20.970  0.00  0.00    +0.000 C 
ATOM      6  O   UNL     1       2.757   5.141  21.613  0.00  0.00    +0.000 OA
ATOM      7  C   UNL     1       0.794   4.176  20.324  0.00  0.00    +0.000 C 
ATOM      8  C   UNL     1       1.372   2.972  19.570  0.00  0.00    +0.000 C 
ATOM      9  S   UNL     1       1.924   3.150  17.863  0.00  0.00    +0.000 S 
ATOM     10  O   UNL     1       1.022   4.007  17.124  0.00  0.00    +0.000 OA
ATOM     11  O   UNL     1       2.250   1.830  17.337  0.00  0.00    +0.000 OA
ENDROOT
BRANCH   1  13
ATOM     12  C   UNL     1       3.836   6.600  17.734  0.00  0.00    +0.000 C 
ATOM     13  C   UNL     1       3.233   5.508  18.237  0.00  0.00    +0.000 C 
BRANCH  12  16
ATOM     14  N   UNL     1       6.273   6.656  17.613  0.00  0.00    +0.000 N 
ATOM     15  C   UNL     1       7.451   6.145  16.937  0.00  0.00    +0.000 C 
ATOM     16  C   UNL     1       5.075   6.702  16.910  0.00  0.00    +0.000 C 
ATOM     17  O   UNL     1       4.990   6.887  15.698  0.00  0.00    +0.000 OA
BRANCH  14  19
ATOM     18  C   UNL     1       7.504   5.638  19.298  0.00  0.00    +0.000 C 
ATOM     19  O   UNL     1       6.214   6.133  18.934  0.00  0.00    +0.000 OA
ENDBRANCH  14  19
ENDBRANCH  12  16
ENDBRANCH   1  13
BRANCH   3  20
ATOM     20  C   UNL     1       4.484   1.842  19.562  0.00  0.00    +0.000 C 
ATOM     21  O   UNL     1       5.149   1.439  20.512  0.00  0.00    +0.000 OA
BRANCH  20  22
ATOM     22  O   UNL     1       4.177   0.978  18.578  0.00  0.00    +0.000 OA
ATOM     23  H   UNL     1       4.864   0.357  18.240  0.00  0.00    +0.000 HD
ENDBRANCH  20  22
ENDBRANCH   3  20
TORSDOF 5
ENDMDL
MODEL 2
REMARK VINA RESULT:      -7.2      2.613      4.497
REMARK  Name = 
REMARK  8 active torsions:
REMARK  status: ('A' for Active; 'I' for Inactive)
REMARK    1  A    between atoms: C_1  and  O_2
REMARK    2  A    between atoms: O_2  and  N_3
REMARK    3  A    between atoms: N_3  and  C_4
REMARK    4  A    between atoms: C_5  and  C_7
REMARK    5  A    between atoms: C_8  and  C_9
REMARK    6  A    between atoms: C_9  and  C_10
REMARK    7  A    between atoms: C_11  and  C_12
REMARK    8  A    between atoms: C_12  and  O_14
REMARK                            x       y       z     vdW  Elec       q    Type
REMARK                         _______ _______ _______ _____ _____    ______ ____
ROOT
ATOM      1  C   UNL     1       4.149   5.205  17.489  0.00  0.00    +0.000 C 
ATOM      2  C   UNL     1       4.971   6.285  16.777  0.00  0.00    +0.000 C 
ATOM      3  C   UNL     1       2.760   5.632  18.038  0.00  0.00    +0.000 C 
ATOM      4  N   UNL     1       2.389   4.652  19.076  0.00  0.00    +0.000 N 
ATOM      5  C   UNL     1       1.935   3.418  18.709  0.00  0.00    +0.000 C 
ATOM      6  O   UNL     1       1.173   3.081  17.835  0.00  0.00    +0.000 OA
ATOM      7  C   UNL     1       2.958   2.709  19.600  0.00  0.00    +0.000 C 
ATOM      8  C   UNL     1       3.474   4.112  19.941  0.00  0.00    +0.000 C 
ATOM      9  S   UNL     1       4.945   4.761  19.125  0.00  0.00    +0.000 S 
ATOM     10  O   UNL     1       5.941   3.722  18.972  0.00  0.00    +0.000 OA
ATOM     11  O   UNL     1       5.315   6.020  19.760  0.00  0.00    +0.000 OA
ENDROOT
BRANCH   1  13
ATOM     12  C   UNL     1       5.182   3.477  15.751  0.00  0.00    +0.000 C 
ATOM     13  C   UNL     1       4.264   3.933  16.622  0.00  0.00    +0.000 C 
BRANCH  12  16
ATOM     14  N   UNL     1       6.722   4.140  13.977  0.00  0.00    +0.000 N 
ATOM     15  C   UNL     1       7.586   5.190  13.472  0.00  0.00    +0.000 C 
ATOM     16  C   UNL     1       6.485   4.080  15.345  0.00  0.00    +0.000 C 
ATOM     17  O   UNL     1       7.294   4.422  16.204  0.00  0.00    +0.000 OA
BRANCH  14  19
ATOM     18  C   UNL     1       5.895   3.077  12.085  0.00  0.00    +0.000 C 
ATOM     19  O   UNL     1       5.588   4.003  13.130  0.00  0.00    +0.000 OA
ENDBRANCH  14  19
ENDBRANCH  12  16
ENDBRANCH   1  13
BRANCH   3  20
ATOM     20  C   UNL     1       2.529   7.021  18.675  0.00  0.00    +0.000 C 
ATOM     21  O   UNL     1       2.296   8.008  17.983  0.00  0.00    +0.000 OA
BRANCH  20  22
ATOM     22  O   UNL     1       2.469   7.143  20.013  0.00  0.00    +0.000 OA
ATOM     23  H   UNL     1       3.283   7.366  20.521  0.00  0.00    +0.000 HD
ENDBRANCH  20  22
ENDBRANCH   3  20
TORSDOF 5
ENDMDL
MODEL 3
REMARK VINA RESULT:      -7.1      1.973      2.686
REMARK  Name = 
REMARK  8 active torsions:
REMARK  status: ('A' for Active; 'I' for Inactive)
REMARK    1  A    between atoms: C_1  and  O_2
REMARK    2  A    between atoms: O_2  and  N_3
REMARK    3  A    between atoms: N_3  and  C_4
REMARK    4  A    between atoms: C_5  and  C_7
REMARK    5  A    between atoms: C_8  and  C_9
REMARK    6  A    between atoms: C_9  and  C_10
REMARK    7  A    between atoms: C_11  and  C_12
REMARK    8  A    between atoms: C_12  and  O_14
REMARK                            x       y       z     vdW  Elec       q    Type
REMARK                         _______ _______ _______ _____ _____    ______ ____
ROOT
ATOM      1  C   UNL     1       3.150   2.870  18.440  0.00  0.00    +0.000 C 
ATOM      2  C   UNL     1       3.555   1.528  17.821  0.00  0.00    +0.000 C 
ATOM      3  C   UNL     1       3.862   3.276  19.760  0.00  0.00    +0.000 C 
ATOM      4  N   UNL     1       3.007   4.280  20.419  0.00  0.00    +0.000 N 
ATOM      5  C   UNL     1       2.995   5.564  19.957  0.00  0.00    +0.000 C 
ATOM      6  O   UNL     1       3.891   6.282  19.583  0.00  0.00    +0.000 OA
ATOM      7  C   UNL     1       1.468   5.574  19.842  0.00  0.00    +0.000 C 
ATOM      8  C   UNL     1       1.531   4.114  20.308  0.00  0.00    +0.000 C 
ATOM      9  S   UNL     1       1.405   2.773  19.110  0.00  0.00    +0.000 S 
ATOM     10  O   UNL     1       0.422   3.089  18.096  0.00  0.00    +0.000 OA
ATOM     11  O   UNL     1       1.309   1.509  19.832  0.00  0.00    +0.000 OA
ENDROOT
BRANCH   1  13
ATOM     12  C   UNL     1       4.007   4.545  16.559  0.00  0.00    +0.000 C 
ATOM     13  C   UNL     1       3.082   3.880  17.274  0.00  0.00    +0.000 C 
BRANCH  12  16
ATOM     14  N   UNL     1       6.164   4.243  15.458  0.00  0.00    +0.000 N 
ATOM     15  C   UNL     1       7.513   4.755  15.305  0.00  0.00    +0.000 C 
ATOM     16  C   UNL     1       5.495   4.489  16.650  0.00  0.00    +0.000 C 
ATOM     17  O   UNL     1       6.044   4.587  17.745  0.00  0.00    +0.000 OA
BRANCH  14  19
ATOM     18  C   UNL     1       6.020   3.707  13.203  0.00  0.00    +0.000 C 
ATOM     19  O   UNL     1       5.429   4.464  14.261  0.00  0.00    +0.000 OA
ENDBRANCH  14  19
ENDBRANCH  12  16
ENDBRANCH   1  13
BRANCH   3  20
ATOM     20  C   UNL     1       4.202   2.236  20.852  0.00  0.00    +0.000 C 
ATOM     21  O   UNL     1       5.261   1.614  20.832  0.00  0.00    +0.000 OA
BRANCH  20  22
ATOM     22  O   UNL     1       3.385   2.084  21.909  0.00  0.00    +0.000 OA
ATOM     23  H   UNL     1       2.525   2.566  21.936  0.00  0.00    +0.000 HD
ENDBRANCH  20  22
ENDBRANCH   3  20
TORSDOF 5
ENDMDL
MODEL 4
REMARK VINA RESULT:      -7.0      3.129      5.562
REMARK  Name = 
REMARK  8 active torsions:
REMARK  status: ('A' for Active; 'I' for Inactive)
REMARK    1  A    between atoms: C_1  and  O_2
REMARK    2  A    between atoms: O_2  and  N_3
REMARK    3  A    between atoms: N_3  and  C_4
REMARK    4  A    between atoms: C_5  and  C_7
REMARK    5  A    between atoms: C_8  and  C_9
REMARK    6  A    between atoms: C_9  and  C_10
REMARK    7  A    between atoms: C_11  and  C_12
REMARK    8  A    between atoms: C_12  and  O_14
REMARK                            x       y       z     vdW  Elec       q    Type
REMARK                         _______ _______ _______ _____ _____    ______ ____
ROOT
ATOM      1  C   UNL     1       6.629   5.046  17.394  0.00  0.00    +0.000 C 
ATOM      2  C   UNL     1       7.941   4.272  17.566  0.00  0.00    +0.000 C 
ATOM      3  C   UNL     1       6.742   6.585  17.215  0.00  0.00    +0.000 C 
ATOM      4  N   UNL     1       5.431   7.157  17.570  0.00  0.00    +0.000 N 
ATOM      5  C   UNL     1       4.393   7.067  16.687  0.00  0.00    +0.000 C 
ATOM      6  O   UNL     1       4.356   7.214  15.489  0.00  0.00    +0.000 OA
ATOM      7  C   UNL     1       3.467   6.456  17.743  0.00  0.00    +0.000 C 
ATOM      8  C   UNL     1       4.675   6.521  18.685  0.00  0.00    +0.000 C 
ATOM      9  S   UNL     1       5.663   5.045  18.997  0.00  0.00    +0.000 S 
ATOM     10  O   UNL     1       4.812   3.879  19.111  0.00  0.00    +0.000 OA
ATOM     11  O   UNL     1       6.620   5.339  20.057  0.00  0.00    +0.000 OA
ENDROOT
BRANCH   1  13
ATOM     12  C   UNL     1       5.830   4.012  15.076  0.00  0.00    +0.000 C 
ATOM     13  C   UNL     1       5.773   4.228  16.403  0.00  0.00    +0.000 C 
BRANCH  12  16
ATOM     14  N   UNL     1       6.793   3.878  12.837  0.00  0.00    +0.000 N 
ATOM     15  C   UNL     1       7.237   4.628  11.678  0.00  0.00    +0.000 C 
ATOM     16  C   UNL     1       6.828   4.499  14.080  0.00  0.00    +0.000 C 
ATOM     17  O   UNL     1       7.654   5.347  14.407  0.00  0.00    +0.000 OA
BRANCH  14  19
ATOM     18  C   UNL     1       5.900   2.196  11.508  0.00  0.00    +0.000 C 
ATOM     19  O   UNL     1       5.606   3.162  12.520  0.00  0.00    +0.000 OA
ENDBRANCH  14  19
ENDBRANCH  12  16
ENDBRANCH   1  13
BRANCH   3  20
ATOM     20  C   UNL     1       7.786   7.418  17.993  0.00  0.00    +0.000 C 
ATOM     21  O   UNL     1       7.947   8.614  17.763  0.00  0.00    +0.000 OA
BRANCH  20  22
ATOM     22  O   UNL     1       8.455   6.864  19.020  0.00  0.00    +0.000 OA
ATOM     23  H   UNL     1       8.498   5.882  19.102  0.00  0.00    +0.000 HD
ENDBRANCH  20  22
ENDBRANCH   3  20
TORSDOF 5
ENDMDL
MODEL 5
REMARK VINA RESULT:      -6.9      2.755      4.950
REMARK  Name = 
REMARK  8 active torsions:
REMARK  status: ('A' for Active; 'I' for Inactive)
REMARK    1  A    between atoms: C_1  and  O_2
REMARK    2  A    between atoms: O_2  and  N_3
REMARK    3  A    between atoms: N_3  and  C_4
REMARK    4  A    between atoms: C_5  and  C_7
REMARK    5  A    between atoms: C_8  and  C_9
REMARK    6  A    between atoms: C_9  and  C_10
REMARK    7  A    between atoms: C_11  and  C_12
REMARK    8  A    between atoms: C_12  and  O_14
REMARK                            x       y       z     vdW  Elec       q    Type
REMARK                         _______ _______ _______ _____ _____    ______ ____
ROOT
ATOM      1  C   UNL     1       5.300   6.399  17.518  0.00  0.00    +0.000 C 
ATOM      2  C   UNL     1       5.863   7.786  17.847  0.00  0.00    +0.000 C 
ATOM      3  C   UNL     1       5.708   5.236  18.463  0.00  0.00    +0.000 C 
ATOM      4  N   UNL     1       5.502   3.982  17.715  0.00  0.00    +0.000 N 
ATOM      5  C   UNL     1       4.237   3.492  17.555  0.00  0.00    +0.000 C 
ATOM      6  O   UNL     1       3.311   3.419  18.326  0.00  0.00    +0.000 OA
ATOM      7  C   UNL     1       4.408   3.380  16.037  0.00  0.00    +0.000 C 
ATOM      8  C   UNL     1       5.799   3.987  16.256  0.00  0.00    +0.000 C 
ATOM      9  S   UNL     1       6.082   5.741  15.949  0.00  0.00    +0.000 S 
ATOM     10  O   UNL     1       5.363   6.172  14.769  0.00  0.00    +0.000 OA
ATOM     11  O   UNL     1       7.511   6.009  16.055  0.00  0.00    +0.000 OA
ENDROOT
BRANCH   1  13
ATOM     12  C   UNL     1       2.698   6.792  17.907  0.00  0.00    +0.000 C 
ATOM     13  C   UNL     1       3.810   6.609  17.172  0.00  0.00    +0.000 C 
BRANCH  12  16
ATOM     14  N   UNL     1       2.073   8.106  19.866  0.00  0.00    +0.000 N 
ATOM     15  C   UNL     1       1.337   8.115  21.117  0.00  0.00    +0.000 C 
ATOM     16  C   UNL     1       2.547   6.890  19.387  0.00  0.00    +0.000 C 
ATOM     17  O   UNL     1       2.901   5.955  20.101  0.00  0.00    +0.000 OA
BRANCH  14  19
ATOM     18  C   UNL     1       0.547   9.839  19.617  0.00  0.00    +0.000 C 
ATOM     19  O   UNL     1       1.425   8.949  18.923  0.00  0.00    +0.000 OA
ENDBRANCH  14  19
ENDBRANCH  12  16
ENDBRANCH   1  13
BRANCH   3  20
ATOM     20  C   UNL     1       7.130   5.135  19.061  0.00  0.00    +0.000 C 
ATOM     21  O   UNL     1       7.380   5.558  20.186  0.00  0.00    +0.000 OA
BRANCH  20  22
ATOM     22  O   UNL     1       8.092   4.474  18.392  0.00  0.00    +0.000 OA
ATOM     23  H   UNL     1       8.417   3.608  18.732  0.00  0.00    +0.000 HD
ENDBRANCH  20  22
ENDBRANCH   3  20
TORSDOF 5
ENDMDL
MODEL 6
REMARK VINA RESULT:      -6.8      1.636      1.902
REMARK  Name = 
REMARK  8 active torsions:
REMARK  status: ('A' for Active; 'I' for Inactive)
REMARK    1  A    between atoms: C_1  and  O_2
REMARK    2  A    between atoms: O_2  and  N_3
REMARK    3  A    between atoms: N_3  and  C_4
REMARK    4  A    between atoms: C_5  and  C_7
REMARK    5  A    between atoms: C_8  and  C_9
REMARK    6  A    between atoms: C_9  and  C_10
REMARK    7  A    between atoms: C_11  and  C_12
REMARK    8  A    between atoms: C_12  and  O_14
REMARK                            x       y       z     vdW  Elec       q    Type
REMARK                         _______ _______ _______ _____ _____    ______ ____
ROOT
ATOM      1  C   UNL     1       3.264   3.062  18.455  0.00  0.00    +0.000 C 
ATOM      2  C   UNL     1       3.842   1.800  17.807  0.00  0.00    +0.000 C 
ATOM      3  C   UNL     1       3.790   3.425  19.872  0.00  0.00    +0.000 C 
ATOM      4  N   UNL     1       2.789   4.315  20.487  0.00  0.00    +0.000 N 
ATOM      5  C   UNL     1       2.726   5.625  20.107  0.00  0.00    +0.000 C 
ATOM      6  O   UNL     1       3.599   6.430  19.884  0.00  0.00    +0.000 OA
ATOM      7  C   UNL     1       1.226   5.532  19.816  0.00  0.00    +0.000 C 
ATOM      8  C   UNL     1       1.353   4.052  20.195  0.00  0.00    +0.000 C 
ATOM      9  S   UNL     1       1.468   2.792  18.910  0.00  0.00    +0.000 S 
ATOM     10  O   UNL     1       0.583   3.107  17.810  0.00  0.00    +0.000 OA
ATOM     11  O   UNL     1       1.394   1.478  19.537  0.00  0.00    +0.000 OA
ENDROOT
BRANCH   1  13
ATOM     12  C   UNL     1       4.177   4.643  16.520  0.00  0.00    +0.000 C 
ATOM     13  C   UNL     1       3.246   4.144  17.353  0.00  0.00    +0.000 C 
BRANCH  12  16
ATOM     14  N   UNL     1       6.521   5.025  17.081  0.00  0.00    +0.000 N 
ATOM     15  C   UNL     1       7.771   4.410  17.483  0.00  0.00    +0.000 C 
ATOM     16  C   UNL     1       5.610   4.261  16.362  0.00  0.00    +0.000 C 
ATOM     17  O   UNL     1       5.921   3.368  15.578  0.00  0.00    +0.000 OA
BRANCH  14  19
ATOM     18  C   UNL     1       6.816   5.599  19.312  0.00  0.00    +0.000 C 
ATOM     19  O   UNL     1       5.996   5.792  18.157  0.00  0.00    +0.000 OA
ENDBRANCH  14  19
ENDBRANCH  12  16
ENDBRANCH   1  13
BRANCH   3  20
ATOM     20  C   UNL     1       4.088   2.338  20.930  0.00  0.00    +0.000 C 
ATOM     21  O   UNL     1       5.160   1.739  20.944  0.00  0.00    +0.000 OA
BRANCH  20  22
ATOM     22  O   UNL     1       3.212   2.116  21.926  0.00  0.00    +0.000 OA
ATOM     23  H   UNL     1       3.046   2.818  22.598  0.00  0.00    +0.000 HD
ENDBRANCH  20  22
ENDBRANCH   3  20
TORSDOF 5
ENDMDL
MODEL 7
REMARK VINA RESULT:      -6.8      2.290      5.454
REMARK  Name = 
REMARK  8 active torsions:
REMARK  status: ('A' for Active; 'I' for Inactive)
REMARK    1  A    between atoms: C_1  and  O_2
REMARK    2  A    between atoms: O_2  and  N_3
REMARK    3  A    between atoms: N_3  and  C_4
REMARK    4  A    between atoms: C_5  and  C_7
REMARK    5  A    between atoms: C_8  and  C_9
REMARK    6  A    between atoms: C_9  and  C_10
REMARK    7  A    between atoms: C_11  and  C_12
REMARK    8  A    between atoms: C_12  and  O_14
REMARK                            x       y       z     vdW  Elec       q    Type
REMARK                         _______ _______ _______ _____ _____    ______ ____
ROOT
ATOM      1  C   UNL     1       5.538   4.539  18.069  0.00  0.00    +0.000 C 
ATOM      2  C   UNL     1       5.446   3.042  18.383  0.00  0.00    +0.000 C 
ATOM      3  C   UNL     1       5.201   4.972  16.616  0.00  0.00    +0.000 C 
ATOM      4  N   UNL     1       5.820   6.294  16.406  0.00  0.00    +0.000 N 
ATOM      5  C   UNL     1       5.234   7.406  16.940  0.00  0.00    +0.000 C 
ATOM      6  O   UNL     1       4.075   7.737  17.009  0.00  0.00    +0.000 OA
ATOM      7  C   UNL     1       6.537   7.841  17.617  0.00  0.00    +0.000 C 
ATOM      8  C   UNL     1       7.139   6.552  17.047  0.00  0.00    +0.000 C 
ATOM      9  S   UNL     1       7.326   5.096  18.094  0.00  0.00    +0.000 S 
ATOM     10  O   UNL     1       7.751   5.479  19.424  0.00  0.00    +0.000 OA
ATOM     11  O   UNL     1       8.083   4.088  17.362  0.00  0.00    +0.000 OA
ENDROOT
BRANCH   1  13
ATOM     12  C   UNL     1       3.598   5.386  19.681  0.00  0.00    +0.000 C 
ATOM     13  C   UNL     1       4.869   5.269  19.253  0.00  0.00    +0.000 C 
BRANCH  12  16
ATOM     14  N   UNL     1       2.034   3.514  19.610  0.00  0.00    +0.000 N 
ATOM     15  C   UNL     1       0.639   3.117  19.636  0.00  0.00    +0.000 C 
ATOM     16  C   UNL     1       2.354   4.777  19.128  0.00  0.00    +0.000 C 
ATOM     17  O   UNL     1       1.724   5.364  18.251  0.00  0.00    +0.000 OA
BRANCH  14  19
ATOM     18  C   UNL     1       1.673   2.663  21.740  0.00  0.00    +0.000 C 
ATOM     19  O   UNL     1       2.668   3.118  20.820  0.00  0.00    +0.000 OA
ENDBRANCH  14  19
ENDBRANCH  12  16
ENDBRANCH   1  13
BRANCH   3  20
ATOM     20  C   UNL     1       5.618   4.118  15.396  0.00  0.00    +0.000 C 
ATOM     21  O   UNL     1       5.589   4.577  14.258  0.00  0.00    +0.000 OA
BRANCH  20  22
ATOM     22  O   UNL     1       6.131   2.889  15.584  0.00  0.00    +0.000 OA
ATOM     23  H   UNL     1       6.236   2.537  16.499  0.00  0.00    +0.000 HD
ENDBRANCH  20  22
ENDBRANCH   3  20
TORSDOF 5
ENDMDL
MODEL 8
REMARK VINA RESULT:      -6.7      1.676      2.322
REMARK  Name = 
REMARK  8 active torsions:
REMARK  status: ('A' for Active; 'I' for Inactive)
REMARK    1  A    between atoms: C_1  and  O_2
REMARK    2  A    between atoms: O_2  and  N_3
REMARK    3  A    between atoms: N_3  and  C_4
REMARK    4  A    between atoms: C_5  and  C_7
REMARK    5  A    between atoms: C_8  and  C_9
REMARK    6  A    between atoms: C_9  and  C_10
REMARK    7  A    between atoms: C_11  and  C_12
REMARK    8  A    between atoms: C_12  and  O_14
REMARK                            x       y       z     vdW  Elec       q    Type
REMARK                         _______ _______ _______ _____ _____    ______ ____
ROOT
ATOM      1  C   UNL     1       3.367   3.226  18.352  0.00  0.00    +0.000 C 
ATOM      2  C   UNL     1       3.604   1.773  17.926  0.00  0.00    +0.000 C 
ATOM      3  C   UNL     1       3.733   3.595  19.816  0.00  0.00    +0.000 C 
ATOM      4  N   UNL     1       2.986   4.822  20.150  0.00  0.00    +0.000 N 
ATOM      5  C   UNL     1       3.419   6.026  19.673  0.00  0.00    +0.000 C 
ATOM      6  O   UNL     1       4.530   6.489  19.576  0.00  0.00    +0.000 OA
ATOM      7  C   UNL     1       2.042   6.358  19.089  0.00  0.00    +0.000 C 
ATOM      8  C   UNL     1       1.614   4.973  19.591  0.00  0.00    +0.000 C 
ATOM      9  S   UNL     1       1.531   3.580  18.449  0.00  0.00    +0.000 S 
ATOM     10  O   UNL     1       0.997   4.002  17.172  0.00  0.00    +0.000 OA
ATOM     11  O   UNL     1       0.928   2.446  19.139  0.00  0.00    +0.000 OA
ENDROOT
BRANCH   1  13
ATOM     12  C   UNL     1       5.056   4.729  16.950  0.00  0.00    +0.000 C 
ATOM     13  C   UNL     1       3.890   4.105  17.195  0.00  0.00    +0.000 C 
BRANCH  12  16
ATOM     14  N   UNL     1       7.146   5.835  17.557  0.00  0.00    +0.000 N 
ATOM     15  C   UNL     1       8.006   6.253  18.648  0.00  0.00    +0.000 C 
ATOM     16  C   UNL     1       6.311   4.742  17.756  0.00  0.00    +0.000 C 
ATOM     17  O   UNL     1       6.581   3.787  18.481  0.00  0.00    +0.000 OA
BRANCH  14  19
ATOM     18  C   UNL     1       7.260   8.147  17.370  0.00  0.00    +0.000 C 
ATOM     19  O   UNL     1       6.559   6.976  16.944  0.00  0.00    +0.000 OA
ENDBRANCH  14  19
ENDBRANCH  12  16
ENDBRANCH   1  13
BRANCH   3  20
ATOM     20  C   UNL     1       3.476   2.619  20.988  0.00  0.00    +0.000 C 
ATOM     21  O   UNL     1       4.327   1.807  21.339  0.00  0.00    +0.000 OA
BRANCH  20  22
ATOM     22  O   UNL     1       2.350   2.728  21.715  0.00  0.00    +0.000 OA
ATOM     23  H   UNL     1       1.523   3.057  21.291  0.00  0.00    +0.000 HD
ENDBRANCH  20  22
ENDBRANCH   3  20
TORSDOF 5
ENDMDL
MODEL 9
REMARK VINA RESULT:      -6.7      1.753      5.409
REMARK  Name = 
REMARK  8 active torsions:
REMARK  status: ('A' for Active; 'I' for Inactive)
REMARK    1  A    between atoms: C_1  and  O_2
REMARK    2  A    between atoms: O_2  and  N_3
REMARK    3  A    between atoms: N_3  and  C_4
REMARK    4  A    between atoms: C_5  and  C_7
REMARK    5  A    between atoms: C_8  and  C_9
REMARK    6  A    between atoms: C_9  and  C_10
REMARK    7  A    between atoms: C_11  and  C_12
REMARK    8  A    between atoms: C_12  and  O_14
REMARK                            x       y       z     vdW  Elec       q    Type
REMARK                         _______ _______ _______ _____ _____    ______ ____
ROOT
ATOM      1  C   UNL     1       4.356   4.415  17.589  0.00  0.00    +0.000 C 
ATOM      2  C   UNL     1       2.901   4.185  17.168  0.00  0.00    +0.000 C 
ATOM      3  C   UNL     1       4.751   5.866  17.978  0.00  0.00    +0.000 C 
ATOM      4  N   UNL     1       6.217   5.962  17.850  0.00  0.00    +0.000 N 
ATOM      5  C   UNL     1       7.016   5.418  18.815  0.00  0.00    +0.000 C 
ATOM      6  O   UNL     1       6.920   5.422  20.019  0.00  0.00    +0.000 OA
ATOM      7  C   UNL     1       7.824   4.624  17.785  0.00  0.00    +0.000 C 
ATOM      8  C   UNL     1       6.867   5.211  16.740  0.00  0.00    +0.000 C 
ATOM      9  S   UNL     1       5.493   4.227  16.113  0.00  0.00    +0.000 S 
ATOM     10  O   UNL     1       5.900   2.851  15.920  0.00  0.00    +0.000 OA
ATOM     11  O   UNL     1       4.865   4.949  15.013  0.00  0.00    +0.000 OA
ENDROOT
BRANCH   1  13
ATOM     12  C   UNL     1       4.011   2.455  19.354  0.00  0.00    +0.000 C 
ATOM     13  C   UNL     1       4.721   3.250  18.534  0.00  0.00    +0.000 C 
BRANCH  12  16
ATOM     14  N   UNL     1       2.058   3.365  20.500  0.00  0.00    +0.000 N 
ATOM     15  C   UNL     1       0.688   3.820  20.355  0.00  0.00    +0.000 C 
ATOM     16  C   UNL     1       2.540   2.422  19.601  0.00  0.00    +0.000 C 
ATOM     17  O   UNL     1       1.851   1.551  19.075  0.00  0.00    +0.000 OA
BRANCH  14  19
ATOM     18  C   UNL     1       2.175   5.684  20.549  0.00  0.00    +0.000 C 
ATOM     19  O   UNL     1       2.905   4.475  20.770  0.00  0.00    +0.000 OA
ENDBRANCH  14  19
ENDBRANCH  12  16
ENDBRANCH   1  13
BRANCH   3  20
ATOM     20  C   UNL     1       4.186   7.092  17.224  0.00  0.00    +0.000 C 
ATOM     21  O   UNL     1       3.335   7.816  17.732  0.00  0.00    +0.000 OA
BRANCH  20  22
ATOM     22  O   UNL     1       4.709   7.447  16.037  0.00  0.00    +0.000 OA
ATOM     23  H   UNL     1       4.121   7.538  15.251  0.00  0.00    +0.000 HD
ENDBRANCH  20  22
ENDBRANCH   3  20
TORSDOF 5
ENDMDL
