MODEL 1
REMARK VINA RESULT:      -8.7      0.000      0.000
REMARK  Name = 
REMARK  8 active torsions:
REMARK  status: ('A' for Active; 'I' for Inactive)
REMARK    1  A    between atoms: C_2  and  C_3
REMARK    2  A    between atoms: N_5  and  C_6
REMARK    3  A    between atoms: C_6  and  C_7
REMARK    4  A    between atoms: C_7  and  C_8
REMARK    5  A    between atoms: C_8  and  C_9
REMARK    6  A    between atoms: N_13  and  C_14
REMARK    7  A    between atoms: C_14  and  C_15
REMARK    8  A    between atoms: C_18  and  C_19
REMARK                            x       y       z     vdW  Elec       q    Type
REMARK                         _______ _______ _______ _____ _____    ______ ____
ROOT
ATOM      1  C   UNL     1       7.632   6.009  17.738  0.00  0.00    +0.000 C 
ATOM      2  N   UNL     1       7.249   6.438  16.413  0.00  0.00    +0.000 N 
ATOM      3  C   UNL     1       5.913   6.208  16.162  0.00  0.00    +0.000 C 
ATOM      4  O   UNL     1       5.329   6.627  15.173  0.00  0.00    +0.000 OA
ATOM      5  N   UNL     1       5.398   5.494  17.195  0.00  0.00    +0.000 N 
ATOM      6  C   UNL     1       6.350   5.276  18.149  0.00  0.00    +0.000 C 
ATOM      7  O   UNL     1       6.197   4.666  19.196  0.00  0.00    +0.000 OA
ATOM      8  H   UNL     1       7.809   6.987  15.774  0.00  0.00    +0.000 HD
ENDROOT
BRANCH   1   9
ATOM      9  C   UNL     1       7.906   7.225  18.624  0.00  0.00    +0.000 C 
BRANCH   9  10
ATOM     10  C   UNL     1       8.057   8.533  17.846  0.00  0.00    +0.000 C 
BRANCH  10  11
ATOM     11  C   UNL     1       8.715   9.602  18.714  0.00  0.00    +0.000 C 
BRANCH  11  14
ATOM     12  N   UNL     1      10.660  12.370  17.373  0.00  0.00    +0.000 NA
ATOM     13  C   UNL     1      10.227  11.555  18.287  0.00  0.00    +0.000 C 
ATOM     14  N   UNL     1       9.301  10.631  17.894  0.00  0.00    +0.000 N 
ATOM     15  H   UNL     1      11.343  13.014  17.797  0.00  0.00    +0.000 HD
ATOM     16  H   UNL     1       9.129  10.619  16.892  0.00  0.00    +0.000 HD
BRANCH  13  17
ATOM     17  C   UNL     1      10.713  11.597  19.731  0.00  0.00    +0.000 C 
ATOM     18 CL   UNL     1      12.333  12.309  19.855  0.00  0.00    +0.000 Cl
ENDBRANCH  13  17
ENDBRANCH  11  14
ENDBRANCH  10  11
ENDBRANCH   9  10
ENDBRANCH   1   9
BRANCH   5  19
ATOM     19  C   UNL     1       4.020   5.095  17.315  0.00  0.00    +0.000 C 
BRANCH  19  20
ATOM     20  C   UNL     1       3.191   6.047  18.141  0.00  0.00    +0.000 A 
ATOM     21  C   UNL     1       2.619   5.648  19.351  0.00  0.00    +0.000 A 
ATOM     22  C   UNL     1       1.891   6.561  20.129  0.00  0.00    +0.000 A 
ATOM     23  C   UNL     1       1.727   7.908  19.745  0.00  0.00    +0.000 A 
ATOM     24  C   UNL     1       2.320   8.282  18.527  0.00  0.00    +0.000 A 
ATOM     25  C   UNL     1       3.003   7.364  17.719  0.00  0.00    +0.000 A 
BRANCH  23  26
ATOM     26  C   UNL     1       0.995   8.878  20.618  0.00  0.00    +0.000 A 
ATOM     27  C   UNL     1       1.065   8.718  22.024  0.00  0.00    +0.000 A 
ATOM     28  C   UNL     1       0.394   9.566  22.912  0.00  0.00    +0.000 A 
ATOM     29  C   UNL     1      -0.347  10.633  22.426  0.00  0.00    +0.000 A 
ATOM     30  C   UNL     1      -0.427  10.836  21.053  0.00  0.00    +0.000 A 
ATOM     31  C   UNL     1       0.214   9.962  20.156  0.00  0.00    +0.000 A 
ATOM     32 CL   UNL     1      -0.099  10.287  18.480  0.00  0.00    +0.000 Cl
ENDBRANCH  23  26
ENDBRANCH  19  20
ENDBRANCH   5  19
TORSDOF 8
ENDMDL
MODEL 2
REMARK VINA RESULT:      -8.3      1.139      1.485
REMARK  Name = 
REMARK  8 active torsions:
REMARK  status: ('A' for Active; 'I' for Inactive)
REMARK    1  A    between atoms: C_2  and  C_3
REMARK    2  A    between atoms: N_5  and  C_6
REMARK    3  A    between atoms: C_6  and  C_7
REMARK    4  A    between atoms: C_7  and  C_8
REMARK    5  A    between atoms: C_8  and  C_9
REMARK    6  A    between atoms: N_13  and  C_14
REMARK    7  A    between atoms: C_14  and  C_15
REMARK    8  A    between atoms: C_18  and  C_19
REMARK                            x       y       z     vdW  Elec       q    Type
REMARK                         _______ _______ _______ _____ _____    ______ ____
ROOT
ATOM      1  C   UNL     1       7.549   5.255  17.774  0.00  0.00    +0.000 C 
ATOM      2  N   UNL     1       7.184   5.460  16.391  0.00  0.00    +0.000 N 
ATOM      3  C   UNL     1       5.825   5.333  16.191  0.00  0.00    +0.000 C 
ATOM      4  O   UNL     1       5.268   5.614  15.141  0.00  0.00    +0.000 OA
ATOM      5  N   UNL     1       5.261   4.892  17.344  0.00  0.00    +0.000 N 
ATOM      6  C   UNL     1       6.206   4.760  18.321  0.00  0.00    +0.000 C 
ATOM      7  O   UNL     1       6.013   4.383  19.467  0.00  0.00    +0.000 OA
ATOM      8  H   UNL     1       7.785   5.811  15.656  0.00  0.00    +0.000 HD
ENDROOT
BRANCH   1   9
ATOM      9  C   UNL     1       7.971   6.583  18.406  0.00  0.00    +0.000 C 
BRANCH   9  10
ATOM     10  C   UNL     1       7.317   7.807  17.765  0.00  0.00    +0.000 C 
BRANCH  10  11
ATOM     11  C   UNL     1       8.291   8.981  17.731  0.00  0.00    +0.000 C 
BRANCH  11  14
ATOM     12  N   UNL     1       9.637  10.507  20.748  0.00  0.00    +0.000 NA
ATOM     13  C   UNL     1       9.273  10.458  19.502  0.00  0.00    +0.000 C 
ATOM     14  N   UNL     1       8.793   9.261  19.052  0.00  0.00    +0.000 N 
ATOM     15  H   UNL     1       9.982  11.455  20.958  0.00  0.00    +0.000 HD
ATOM     16  H   UNL     1       8.678   8.561  19.781  0.00  0.00    +0.000 HD
BRANCH  13  17
ATOM     17  C   UNL     1       9.359  11.659  18.568  0.00  0.00    +0.000 C 
ATOM     18 CL   UNL     1      10.235  13.008  19.314  0.00  0.00    +0.000 Cl
ENDBRANCH  13  17
ENDBRANCH  11  14
ENDBRANCH  10  11
ENDBRANCH   9  10
ENDBRANCH   1   9
BRANCH   5  19
ATOM     19  C   UNL     1       3.851   4.675  17.542  0.00  0.00    +0.000 C 
BRANCH  19  20
ATOM     20  C   UNL     1       3.189   5.758  18.357  0.00  0.00    +0.000 A 
ATOM     21  C   UNL     1       3.026   7.050  17.851  0.00  0.00    +0.000 A 
ATOM     22  C   UNL     1       2.366   8.031  18.605  0.00  0.00    +0.000 A 
ATOM     23  C   UNL     1       1.822   7.759  19.877  0.00  0.00    +0.000 A 
ATOM     24  C   UNL     1       1.994   6.449  20.357  0.00  0.00    +0.000 A 
ATOM     25  C   UNL     1       2.698   5.478  19.633  0.00  0.00    +0.000 A 
BRANCH  23  26
ATOM     26  C   UNL     1       1.072   8.805  20.638  0.00  0.00    +0.000 A 
ATOM     27  C   UNL     1       0.744   8.558  21.995  0.00  0.00    +0.000 A 
ATOM     28  C   UNL     1       0.027   9.473  22.774  0.00  0.00    +0.000 A 
ATOM     29  C   UNL     1      -0.360  10.690  22.234  0.00  0.00    +0.000 A 
ATOM     30  C   UNL     1      -0.043  10.980  20.911  0.00  0.00    +0.000 A 
ATOM     31  C   UNL     1       0.643  10.047  20.114  0.00  0.00    +0.000 A 
ATOM     32 CL   UNL     1       0.841  10.517  18.455  0.00  0.00    +0.000 Cl
ENDBRANCH  23  26
ENDBRANCH  19  20
ENDBRANCH   5  19
TORSDOF 8
ENDMDL
MODEL 3
REMARK VINA RESULT:      -8.3      3.848      5.794
REMARK  Name = 
REMARK  8 active torsions:
REMARK  status: ('A' for Active; 'I' for Inactive)
REMARK    1  A    between atoms: C_2  and  C_3
REMARK    2  A    between atoms: N_5  and  C_6
REMARK    3  A    between atoms: C_6  and  C_7
REMARK    4  A    between atoms: C_7  and  C_8
REMARK    5  A    between atoms: C_8  and  C_9
REMARK    6  A    between atoms: N_13  and  C_14
REMARK    7  A    between atoms: C_14  and  C_15
REMARK    8  A    between atoms: C_18  and  C_19
REMARK                            x       y       z     vdW  Elec       q    Type
REMARK                         _______ _______ _______ _____ _____    ______ ____
ROOT
ATOM      1  C   UNL     1       6.742   5.475  17.741  0.00  0.00    +0.000 C 
ATOM      2  N   UNL     1       6.375   4.626  18.850  0.00  0.00    +0.000 N 
ATOM      3  C   UNL     1       5.006   4.525  18.992  0.00  0.00    +0.000 C 
ATOM      4  O   UNL     1       4.462   3.744  19.758  0.00  0.00    +0.000 OA
ATOM      5  N   UNL     1       4.420   5.393  18.129  0.00  0.00    +0.000 N 
ATOM      6  C   UNL     1       5.365   6.043  17.386  0.00  0.00    +0.000 C 
ATOM      7  O   UNL     1       5.154   6.885  16.527  0.00  0.00    +0.000 OA
ATOM      8  H   UNL     1       6.995   4.033  19.386  0.00  0.00    +0.000 HD
ENDROOT
BRANCH   1   9
ATOM      9  C   UNL     1       7.324   4.630  16.606  0.00  0.00    +0.000 C 
BRANCH   9  10
ATOM     10  C   UNL     1       6.265   4.017  15.689  0.00  0.00    +0.000 C 
BRANCH  10  11
ATOM     11  C   UNL     1       6.659   4.185  14.225  0.00  0.00    +0.000 C 
BRANCH  11  14
ATOM     12  N   UNL     1       4.343   3.266  11.573  0.00  0.00    +0.000 NA
ATOM     13  C   UNL     1       5.495   3.355  12.166  0.00  0.00    +0.000 C 
ATOM     14  N   UNL     1       5.515   4.004  13.368  0.00  0.00    +0.000 N 
ATOM     15  H   UNL     1       4.464   2.764  10.681  0.00  0.00    +0.000 HD
ATOM     16  H   UNL     1       4.595   4.259  13.716  0.00  0.00    +0.000 HD
BRANCH  13  17
ATOM     17  C   UNL     1       6.774   2.768  11.580  0.00  0.00    +0.000 C 
ATOM     18 CL   UNL     1       6.523   1.118  10.982  0.00  0.00    +0.000 Cl
ENDBRANCH  13  17
ENDBRANCH  11  14
ENDBRANCH  10  11
ENDBRANCH   9  10
ENDBRANCH   1   9
BRANCH   5  19
ATOM     19  C   UNL     1       2.999   5.548  17.953  0.00  0.00    +0.000 C 
BRANCH  19  20
ATOM     20  C   UNL     1       2.418   6.682  18.761  0.00  0.00    +0.000 A 
ATOM     21  C   UNL     1       2.131   7.917  18.175  0.00  0.00    +0.000 A 
ATOM     22  C   UNL     1       1.547   8.944  18.930  0.00  0.00    +0.000 A 
ATOM     23  C   UNL     1       1.203   8.774  20.288  0.00  0.00    +0.000 A 
ATOM     24  C   UNL     1       1.496   7.519  20.848  0.00  0.00    +0.000 A 
ATOM     25  C   UNL     1       2.127   6.505  20.114  0.00  0.00    +0.000 A 
BRANCH  23  26
ATOM     26  C   UNL     1       0.529   9.864  21.058  0.00  0.00    +0.000 A 
ATOM     27  C   UNL     1      -0.274   9.516  22.173  0.00  0.00    +0.000 A 
ATOM     28  C   UNL     1      -0.957  10.470  22.936  0.00  0.00    +0.000 A 
ATOM     29  C   UNL     1      -0.833  11.818  22.633  0.00  0.00    +0.000 A 
ATOM     30  C   UNL     1      -0.041  12.203  21.557  0.00  0.00    +0.000 A 
ATOM     31  C   UNL     1       0.616  11.245  20.764  0.00  0.00    +0.000 A 
ATOM     32 CL   UNL     1       1.453  11.892  19.389  0.00  0.00    +0.000 Cl
ENDBRANCH  23  26
ENDBRANCH  19  20
ENDBRANCH   5  19
TORSDOF 8
ENDMDL
MODEL 4
REMARK VINA RESULT:      -8.3      3.984      5.642
REMARK  Name = 
REMARK  8 active torsions:
REMARK  status: ('A' for Active; 'I' for Inactive)
REMARK    1  A    between atoms: C_2  and  C_3
REMARK    2  A    between atoms: N_5  and  C_6
REMARK    3  A    between atoms: C_6  and  C_7
REMARK    4  A    between atoms: C_7  and  C_8
REMARK    5  A    between atoms: C_8  and  C_9
REMARK    6  A    between atoms: N_13  and  C_14
REMARK    7  A    between atoms: C_14  and  C_15
REMARK    8  A    between atoms: C_18  and  C_19
REMARK                            x       y       z     vdW  Elec       q    Type
REMARK                         _______ _______ _______ _____ _____    ______ ____
ROOT
ATOM      1  C   UNL     1       6.773   5.235  18.091  0.00  0.00    +0.000 C 
ATOM      2  N   UNL     1       6.213   4.160  18.876  0.00  0.00    +0.000 N 
ATOM      3  C   UNL     1       4.836   4.127  18.800  0.00  0.00    +0.000 C 
ATOM      4  O   UNL     1       4.155   3.218  19.251  0.00  0.00    +0.000 OA
ATOM      5  N   UNL     1       4.417   5.229  18.126  0.00  0.00    +0.000 N 
ATOM      6  C   UNL     1       5.485   5.976  17.717  0.00  0.00    +0.000 C 
ATOM      7  O   UNL     1       5.435   7.023  17.090  0.00  0.00    +0.000 OA
ATOM      8  H   UNL     1       6.724   3.405  19.314  0.00  0.00    +0.000 HD
ENDROOT
BRANCH   1   9
ATOM      9  C   UNL     1       7.486   4.669  16.862  0.00  0.00    +0.000 C 
BRANCH   9  10
ATOM     10  C   UNL     1       6.855   5.091  15.534  0.00  0.00    +0.000 C 
BRANCH  10  11
ATOM     11  C   UNL     1       5.961   3.982  14.987  0.00  0.00    +0.000 C 
BRANCH  11  14
ATOM     12  N   UNL     1       6.835   2.661  11.711  0.00  0.00    +0.000 NA
ATOM     13  C   UNL     1       6.086   3.252  12.593  0.00  0.00    +0.000 C 
ATOM     14  N   UNL     1       6.586   3.336  13.861  0.00  0.00    +0.000 N 
ATOM     15  H   UNL     1       6.345   2.659  10.804  0.00  0.00    +0.000 HD
ATOM     16  H   UNL     1       7.545   3.012  13.950  0.00  0.00    +0.000 HD
BRANCH  13  17
ATOM     17  C   UNL     1       4.719   3.838  12.258  0.00  0.00    +0.000 C 
ATOM     18 CL   UNL     1       3.919   2.933  10.960  0.00  0.00    +0.000 Cl
ENDBRANCH  13  17
ENDBRANCH  11  14
ENDBRANCH  10  11
ENDBRANCH   9  10
ENDBRANCH   1   9
BRANCH   5  19
ATOM     19  C   UNL     1       3.045   5.528  17.809  0.00  0.00    +0.000 C 
BRANCH  19  20
ATOM     20  C   UNL     1       2.462   6.632  18.656  0.00  0.00    +0.000 A 
ATOM     21  C   UNL     1       2.124   7.869  18.103  0.00  0.00    +0.000 A 
ATOM     22  C   UNL     1       1.540   8.867  18.897  0.00  0.00    +0.000 A 
ATOM     23  C   UNL     1       1.248   8.664  20.262  0.00  0.00    +0.000 A 
ATOM     24  C   UNL     1       1.592   7.408  20.788  0.00  0.00    +0.000 A 
ATOM     25  C   UNL     1       2.224   6.424  20.015  0.00  0.00    +0.000 A 
BRANCH  23  26
ATOM     26  C   UNL     1       0.573   9.722  21.075  0.00  0.00    +0.000 A 
ATOM     27  C   UNL     1      -0.170   9.335  22.217  0.00  0.00    +0.000 A 
ATOM     28  C   UNL     1      -0.850  10.257  23.021  0.00  0.00    +0.000 A 
ATOM     29  C   UNL     1      -0.782  11.612  22.731  0.00  0.00    +0.000 A 
ATOM     30  C   UNL     1      -0.049  12.036  21.628  0.00  0.00    +0.000 A 
ATOM     31  C   UNL     1       0.603  11.109  20.796  0.00  0.00    +0.000 A 
ATOM     32 CL   UNL     1       1.360  11.799  19.396  0.00  0.00    +0.000 Cl
ENDBRANCH  23  26
ENDBRANCH  19  20
ENDBRANCH   5  19
TORSDOF 8
ENDMDL
MODEL 5
REMARK VINA RESULT:      -8.2      1.006      1.373
REMARK  Name = 
REMARK  8 active torsions:
REMARK  status: ('A' for Active; 'I' for Inactive)
REMARK    1  A    between atoms: C_2  and  C_3
REMARK    2  A    between atoms: N_5  and  C_6
REMARK    3  A    between atoms: C_6  and  C_7
REMARK    4  A    between atoms: C_7  and  C_8
REMARK    5  A    between atoms: C_8  and  C_9
REMARK    6  A    between atoms: N_13  and  C_14
REMARK    7  A    between atoms: C_14  and  C_15
REMARK    8  A    between atoms: C_18  and  C_19
REMARK                            x       y       z     vdW  Elec       q    Type
REMARK                         _______ _______ _______ _____ _____    ______ ____
ROOT
ATOM      1  C   UNL     1       7.516   5.840  17.796  0.00  0.00    +0.000 C 
ATOM      2  N   UNL     1       7.130   6.296  16.481  0.00  0.00    +0.000 N 
ATOM      3  C   UNL     1       5.772   6.176  16.270  0.00  0.00    +0.000 C 
ATOM      4  O   UNL     1       5.196   6.638  15.297  0.00  0.00    +0.000 OA
ATOM      5  N   UNL     1       5.232   5.510  17.322  0.00  0.00    +0.000 N 
ATOM      6  C   UNL     1       6.192   5.217  18.249  0.00  0.00    +0.000 C 
ATOM      7  O   UNL     1       6.021   4.624  19.303  0.00  0.00    +0.000 OA
ATOM      8  H   UNL     1       7.714   6.794  15.821  0.00  0.00    +0.000 HD
ENDROOT
BRANCH   1   9
ATOM      9  C   UNL     1       7.916   7.032  18.666  0.00  0.00    +0.000 C 
BRANCH   9  10
ATOM     10  C   UNL     1       8.145   8.322  17.877  0.00  0.00    +0.000 C 
BRANCH  10  11
ATOM     11  C   UNL     1       8.667   9.427  18.793  0.00  0.00    +0.000 C 
BRANCH  11  14
ATOM     12  N   UNL     1      10.334  12.404  17.529  0.00  0.00    +0.000 NA
ATOM     13  C   UNL     1      10.041  11.486  18.399  0.00  0.00    +0.000 C 
ATOM     14  N   UNL     1       9.114  10.557  18.019  0.00  0.00    +0.000 N 
ATOM     15  H   UNL     1      11.035  13.040  17.937  0.00  0.00    +0.000 HD
ATOM     16  H   UNL     1       8.830  10.631  17.046  0.00  0.00    +0.000 HD
BRANCH  13  17
ATOM     17  C   UNL     1      10.686  11.417  19.779  0.00  0.00    +0.000 C 
ATOM     18 CL   UNL     1      12.330  12.081  19.765  0.00  0.00    +0.000 Cl
ENDBRANCH  13  17
ENDBRANCH  11  14
ENDBRANCH  10  11
ENDBRANCH   9  10
ENDBRANCH   1   9
BRANCH   5  19
ATOM     19  C   UNL     1       3.830   5.226  17.485  0.00  0.00    +0.000 C 
BRANCH  19  20
ATOM     20  C   UNL     1       3.054   6.371  18.087  0.00  0.00    +0.000 A 
ATOM     21  C   UNL     1       2.750   6.404  19.451  0.00  0.00    +0.000 A 
ATOM     22  C   UNL     1       2.070   7.499  20.001  0.00  0.00    +0.000 A 
ATOM     23  C   UNL     1       1.688   8.613  19.224  0.00  0.00    +0.000 A 
ATOM     24  C   UNL     1       2.013   8.555  17.858  0.00  0.00    +0.000 A 
ATOM     25  C   UNL     1       2.647   7.441  17.290  0.00  0.00    +0.000 A 
BRANCH  23  26
ATOM     26  C   UNL     1       1.013   9.795  19.843  0.00  0.00    +0.000 A 
ATOM     27  C   UNL     1       1.334  11.090  19.367  0.00  0.00    +0.000 A 
ATOM     28  C   UNL     1       0.766  12.251  19.904  0.00  0.00    +0.000 A 
ATOM     29  C   UNL     1      -0.176  12.157  20.918  0.00  0.00    +0.000 A 
ATOM     30  C   UNL     1      -0.532  10.903  21.402  0.00  0.00    +0.000 A 
ATOM     31  C   UNL     1       0.066   9.737  20.892  0.00  0.00    +0.000 A 
ATOM     32 CL   UNL     1      -0.398   8.272  21.698  0.00  0.00    +0.000 Cl
ENDBRANCH  23  26
ENDBRANCH  19  20
ENDBRANCH   5  19
TORSDOF 8
ENDMDL
MODEL 6
REMARK VINA RESULT:      -8.1      1.197      1.212
REMARK  Name = 
REMARK  8 active torsions:
REMARK  status: ('A' for Active; 'I' for Inactive)
REMARK    1  A    between atoms: C_2  and  C_3
REMARK    2  A    between atoms: N_5  and  C_6
REMARK    3  A    between atoms: C_6  and  C_7
REMARK    4  A    between atoms: C_7  and  C_8
REMARK    5  A    between atoms: C_8  and  C_9
REMARK    6  A    between atoms: N_13  and  C_14
REMARK    7  A    between atoms: C_14  and  C_15
REMARK    8  A    between atoms: C_18  and  C_19
REMARK                            x       y       z     vdW  Elec       q    Type
REMARK                         _______ _______ _______ _____ _____    ______ ____
ROOT
ATOM      1  C   UNL     1       7.483   5.910  17.549  0.00  0.00    +0.000 C 
ATOM      2  N   UNL     1       7.057   5.286  16.318  0.00  0.00    +0.000 N 
ATOM      3  C   UNL     1       5.810   4.708  16.437  0.00  0.00    +0.000 C 
ATOM      4  O   UNL     1       5.180   4.260  15.491  0.00  0.00    +0.000 OA
ATOM      5  N   UNL     1       5.430   4.769  17.739  0.00  0.00    +0.000 N 
ATOM      6  C   UNL     1       6.378   5.410  18.485  0.00  0.00    +0.000 C 
ATOM      7  O   UNL     1       6.329   5.621  19.687  0.00  0.00    +0.000 OA
ATOM      8  H   UNL     1       7.504   5.369  15.415  0.00  0.00    +0.000 HD
ENDROOT
BRANCH   1   9
ATOM      9  C   UNL     1       7.462   7.432  17.398  0.00  0.00    +0.000 C 
BRANCH   9  10
ATOM     10  C   UNL     1       8.425   8.158  18.339  0.00  0.00    +0.000 C 
BRANCH  10  11
ATOM     11  C   UNL     1       8.237   9.669  18.239  0.00  0.00    +0.000 C 
BRANCH  11  14
ATOM     12  N   UNL     1      11.247  11.485  19.178  0.00  0.00    +0.000 NA
ATOM     13  C   UNL     1      10.063  10.979  19.348  0.00  0.00    +0.000 C 
ATOM     14  N   UNL     1       9.511  10.341  18.274  0.00  0.00    +0.000 N 
ATOM     15  H   UNL     1      11.546  11.938  20.054  0.00  0.00    +0.000 HD
ATOM     16  H   UNL     1      10.140  10.245  17.482  0.00  0.00    +0.000 HD
BRANCH  13  17
ATOM     17  C   UNL     1       9.307  11.069  20.669  0.00  0.00    +0.000 C 
ATOM     18 CL   UNL     1       9.013  12.753  21.141  0.00  0.00    +0.000 Cl
ENDBRANCH  13  17
ENDBRANCH  11  14
ENDBRANCH  10  11
ENDBRANCH   9  10
ENDBRANCH   1   9
BRANCH   5  19
ATOM     19  C   UNL     1       4.168   4.305  18.252  0.00  0.00    +0.000 C 
BRANCH  19  20
ATOM     20  C   UNL     1       3.313   5.408  18.825  0.00  0.00    +0.000 A 
ATOM     21  C   UNL     1       2.637   5.246  20.036  0.00  0.00    +0.000 A 
ATOM     22  C   UNL     1       1.885   6.299  20.577  0.00  0.00    +0.000 A 
ATOM     23  C   UNL     1       1.798   7.559  19.948  0.00  0.00    +0.000 A 
ATOM     24  C   UNL     1       2.495   7.695  18.736  0.00  0.00    +0.000 A 
ATOM     25  C   UNL     1       3.205   6.631  18.162  0.00  0.00    +0.000 A 
BRANCH  23  26
ATOM     26  C   UNL     1       1.037   8.685  20.572  0.00  0.00    +0.000 A 
ATOM     27  C   UNL     1       0.958   8.755  21.985  0.00  0.00    +0.000 A 
ATOM     28  C   UNL     1       0.249   9.762  22.650  0.00  0.00    +0.000 A 
ATOM     29  C   UNL     1      -0.381  10.762  21.923  0.00  0.00    +0.000 A 
ATOM     30  C   UNL     1      -0.313  10.740  20.535  0.00  0.00    +0.000 A 
ATOM     31  C   UNL     1       0.366   9.708  19.862  0.00  0.00    +0.000 A 
ATOM     32 CL   UNL     1       0.241   9.765  18.133  0.00  0.00    +0.000 Cl
ENDBRANCH  23  26
ENDBRANCH  19  20
ENDBRANCH   5  19
TORSDOF 8
ENDMDL
MODEL 7
REMARK VINA RESULT:      -8.0      1.575      1.978
REMARK  Name = 
REMARK  8 active torsions:
REMARK  status: ('A' for Active; 'I' for Inactive)
REMARK    1  A    between atoms: C_2  and  C_3
REMARK    2  A    between atoms: N_5  and  C_6
REMARK    3  A    between atoms: C_6  and  C_7
REMARK    4  A    between atoms: C_7  and  C_8
REMARK    5  A    between atoms: C_8  and  C_9
REMARK    6  A    between atoms: N_13  and  C_14
REMARK    7  A    between atoms: C_14  and  C_15
REMARK    8  A    between atoms: C_18  and  C_19
REMARK                            x       y       z     vdW  Elec       q    Type
REMARK                         _______ _______ _______ _____ _____    ______ ____
ROOT
ATOM      1  C   UNL     1       7.840   6.327  18.005  0.00  0.00    +0.000 C 
ATOM      2  N   UNL     1       7.414   6.498  16.635  0.00  0.00    +0.000 N 
ATOM      3  C   UNL     1       6.084   6.173  16.464  0.00  0.00    +0.000 C 
ATOM      4  O   UNL     1       5.464   6.385  15.433  0.00  0.00    +0.000 OA
ATOM      5  N   UNL     1       5.622   5.634  17.621  0.00  0.00    +0.000 N 
ATOM      6  C   UNL     1       6.601   5.629  18.573  0.00  0.00    +0.000 C 
ATOM      7  O   UNL     1       6.495   5.209  19.715  0.00  0.00    +0.000 OA
ATOM      8  H   UNL     1       7.937   6.946  15.894  0.00  0.00    +0.000 HD
ENDROOT
BRANCH   1   9
ATOM      9  C   UNL     1       8.077   7.692  18.653  0.00  0.00    +0.000 C 
BRANCH   9  10
ATOM     10  C   UNL     1       7.999   8.862  17.672  0.00  0.00    +0.000 C 
BRANCH  10  11
ATOM     11  C   UNL     1       8.897  10.009  18.131  0.00  0.00    +0.000 C 
BRANCH  11  14
ATOM     12  N   UNL     1       9.347  10.913  21.627  0.00  0.00    +0.000 NA
ATOM     13  C   UNL     1       9.367  11.094  20.341  0.00  0.00    +0.000 C 
ATOM     14  N   UNL     1       8.996  10.030  19.568  0.00  0.00    +0.000 N 
ATOM     15  H   UNL     1       9.650  11.781  22.091  0.00  0.00    +0.000 HD
ATOM     16  H   UNL     1       8.644   9.237  20.098  0.00  0.00    +0.000 HD
BRANCH  13  17
ATOM     17  C   UNL     1       9.770  12.416  19.698  0.00  0.00    +0.000 C 
ATOM     18 CL   UNL     1       8.556  13.677  19.980  0.00  0.00    +0.000 Cl
ENDBRANCH  13  17
ENDBRANCH  11  14
ENDBRANCH  10  11
ENDBRANCH   9  10
ENDBRANCH   1   9
BRANCH   5  19
ATOM     19  C   UNL     1       4.265   5.207  17.846  0.00  0.00    +0.000 C 
BRANCH  19  20
ATOM     20  C   UNL     1       3.360   6.318  18.318  0.00  0.00    +0.000 A 
ATOM     21  C   UNL     1       2.718   6.254  19.557  0.00  0.00    +0.000 A 
ATOM     22  C   UNL     1       1.918   7.317  19.999  0.00  0.00    +0.000 A 
ATOM     23  C   UNL     1       1.745   8.492  19.239  0.00  0.00    +0.000 A 
ATOM     24  C   UNL     1       2.408   8.531  18.000  0.00  0.00    +0.000 A 
ATOM     25  C   UNL     1       3.167   7.452  17.528  0.00  0.00    +0.000 A 
BRANCH  23  26
ATOM     26  C   UNL     1       0.932   9.636  19.755  0.00  0.00    +0.000 A 
ATOM     27  C   UNL     1       0.246  10.459  18.828  0.00  0.00    +0.000 A 
ATOM     28  C   UNL     1      -0.519  11.562  19.223  0.00  0.00    +0.000 A 
ATOM     29  C   UNL     1      -0.656  11.864  20.570  0.00  0.00    +0.000 A 
ATOM     30  C   UNL     1      -0.012  11.071  21.514  0.00  0.00    +0.000 A 
ATOM     31  C   UNL     1       0.789   9.985  21.118  0.00  0.00    +0.000 A 
ATOM     32 CL   UNL     1       1.620   9.187  22.415  0.00  0.00    +0.000 Cl
ENDBRANCH  23  26
ENDBRANCH  19  20
ENDBRANCH   5  19
TORSDOF 8
ENDMDL
MODEL 8
REMARK VINA RESULT:      -8.0      5.975     10.217
REMARK  Name = 
REMARK  8 active torsions:
REMARK  status: ('A' for Active; 'I' for Inactive)
REMARK    1  A    between atoms: C_2  and  C_3
REMARK    2  A    between atoms: N_5  and  C_6
REMARK    3  A    between atoms: C_6  and  C_7
REMARK    4  A    between atoms: C_7  and  C_8
REMARK    5  A    between atoms: C_8  and  C_9
REMARK    6  A    between atoms: N_13  and  C_14
REMARK    7  A    between atoms: C_14  and  C_15
REMARK    8  A    between atoms: C_18  and  C_19
REMARK                            x       y       z     vdW  Elec       q    Type
REMARK                         _______ _______ _______ _____ _____    ______ ____
ROOT
ATOM      1  C   UNL     1      -2.103  11.692  17.822  0.00  0.00    +0.000 C 
ATOM      2  N   UNL     1      -1.200  12.804  17.641  0.00  0.00    +0.000 N 
ATOM      3  C   UNL     1      -0.024  12.634  18.343  0.00  0.00    +0.000 C 
ATOM      4  O   UNL     1       0.947  13.365  18.221  0.00  0.00    +0.000 OA
ATOM      5  N   UNL     1      -0.146  11.530  19.123  0.00  0.00    +0.000 N 
ATOM      6  C   UNL     1      -1.361  10.937  18.929  0.00  0.00    +0.000 C 
ATOM      7  O   UNL     1      -1.769   9.929  19.485  0.00  0.00    +0.000 OA
ATOM      8  H   UNL     1      -1.300  13.559  16.975  0.00  0.00    +0.000 HD
ENDROOT
BRANCH   1   9
ATOM      9  C   UNL     1      -2.192  10.876  16.531  0.00  0.00    +0.000 C 
BRANCH   9  10
ATOM     10  C   UNL     1      -3.475  11.119  15.736  0.00  0.00    +0.000 C 
BRANCH  10  11
ATOM     11  C   UNL     1      -4.683  11.174  16.667  0.00  0.00    +0.000 C 
BRANCH  11  14
ATOM     12  N   UNL     1      -6.512  14.212  17.485  0.00  0.00    +0.000 NA
ATOM     13  C   UNL     1      -6.233  12.944  17.532  0.00  0.00    +0.000 C 
ATOM     14  N   UNL     1      -5.201  12.517  16.746  0.00  0.00    +0.000 N 
ATOM     15  H   UNL     1      -7.306  14.402  18.114  0.00  0.00    +0.000 HD
ATOM     16  H   UNL     1      -4.694  13.267  16.283  0.00  0.00    +0.000 HD
BRANCH  13  17
ATOM     17  C   UNL     1      -6.994  11.961  18.414  0.00  0.00    +0.000 C 
ATOM     18 CL   UNL     1      -6.342  11.923  20.063  0.00  0.00    +0.000 Cl
ENDBRANCH  13  17
ENDBRANCH  11  14
ENDBRANCH  10  11
ENDBRANCH   9  10
ENDBRANCH   1   9
BRANCH   5  19
ATOM     19  C   UNL     1       0.891  11.003  19.972  0.00  0.00    +0.000 C 
BRANCH  19  20
ATOM     20  C   UNL     1       1.435   9.678  19.499  0.00  0.00    +0.000 A 
ATOM     21  C   UNL     1       1.550   8.589  20.367  0.00  0.00    +0.000 A 
ATOM     22  C   UNL     1       2.014   7.352  19.898  0.00  0.00    +0.000 A 
ATOM     23  C   UNL     1       2.355   7.143  18.546  0.00  0.00    +0.000 A 
ATOM     24  C   UNL     1       2.222   8.253  17.694  0.00  0.00    +0.000 A 
ATOM     25  C   UNL     1       1.810   9.507  18.165  0.00  0.00    +0.000 A 
BRANCH  23  26
ATOM     26  C   UNL     1       2.794   5.799  18.057  0.00  0.00    +0.000 A 
ATOM     27  C   UNL     1       1.894   4.709  18.159  0.00  0.00    +0.000 A 
ATOM     28  C   UNL     1       2.230   3.415  17.746  0.00  0.00    +0.000 A 
ATOM     29  C   UNL     1       3.472   3.168  17.179  0.00  0.00    +0.000 A 
ATOM     30  C   UNL     1       4.378   4.215  17.045  0.00  0.00    +0.000 A 
ATOM     31  C   UNL     1       4.059   5.508  17.494  0.00  0.00    +0.000 A 
ATOM     32 CL   UNL     1       5.350   6.659  17.368  0.00  0.00    +0.000 Cl
ENDBRANCH  23  26
ENDBRANCH  19  20
ENDBRANCH   5  19
TORSDOF 8
ENDMDL
MODEL 9
REMARK VINA RESULT:      -7.9      4.794      5.949
REMARK  Name = 
REMARK  8 active torsions:
REMARK  status: ('A' for Active; 'I' for Inactive)
REMARK    1  A    between atoms: C_2  and  C_3
REMARK    2  A    between atoms: N_5  and  C_6
REMARK    3  A    between atoms: C_6  and  C_7
REMARK    4  A    between atoms: C_7  and  C_8
REMARK    5  A    between atoms: C_8  and  C_9
REMARK    6  A    between atoms: N_13  and  C_14
REMARK    7  A    between atoms: C_14  and  C_15
REMARK    8  A    between atoms: C_18  and  C_19
REMARK                            x       y       z     vdW  Elec       q    Type
REMARK                         _______ _______ _______ _____ _____    ______ ____
ROOT
ATOM      1  C   UNL     1       4.778   4.337  17.518  0.00  0.00    +0.000 C 
ATOM      2  N   UNL     1       3.474   3.895  17.084  0.00  0.00    +0.000 N 
ATOM      3  C   UNL     1       2.474   4.322  17.934  0.00  0.00    +0.000 C 
ATOM      4  O   UNL     1       1.283   4.203  17.690  0.00  0.00    +0.000 OA
ATOM      5  N   UNL     1       3.051   4.901  19.018  0.00  0.00    +0.000 N 
ATOM      6  C   UNL     1       4.411   4.906  18.892  0.00  0.00    +0.000 C 
ATOM      7  O   UNL     1       5.209   5.356  19.700  0.00  0.00    +0.000 OA
ATOM      8  H   UNL     1       3.249   3.463  16.197  0.00  0.00    +0.000 HD
ENDROOT
BRANCH   1   9
ATOM      9  C   UNL     1       5.306   5.417  16.572  0.00  0.00    +0.000 C 
BRANCH   9  10
ATOM     10  C   UNL     1       5.192   5.050  15.092  0.00  0.00    +0.000 C 
BRANCH  10  11
ATOM     11  C   UNL     1       6.133   3.899  14.750  0.00  0.00    +0.000 C 
BRANCH  11  14
ATOM     12  N   UNL     1       7.427   4.261  11.368  0.00  0.00    +0.000 NA
ATOM     13  C   UNL     1       6.619   3.836  12.292  0.00  0.00    +0.000 C 
ATOM     14  N   UNL     1       6.906   4.209  13.574  0.00  0.00    +0.000 N 
ATOM     15  H   UNL     1       7.105   3.908  10.454  0.00  0.00    +0.000 HD
ATOM     16  H   UNL     1       7.674   4.870  13.650  0.00  0.00    +0.000 HD
BRANCH  13  17
ATOM     17  C   UNL     1       5.399   2.972  11.991  0.00  0.00    +0.000 C 
ATOM     18 CL   UNL     1       5.862   1.400  11.313  0.00  0.00    +0.000 Cl
ENDBRANCH  13  17
ENDBRANCH  11  14
ENDBRANCH  10  11
ENDBRANCH   9  10
ENDBRANCH   1   9
BRANCH   5  19
ATOM     19  C   UNL     1       2.333   5.506  20.109  0.00  0.00    +0.000 C 
BRANCH  19  20
ATOM     20  C   UNL     1       1.964   6.947  19.856  0.00  0.00    +0.000 A 
ATOM     21  C   UNL     1       2.186   7.545  18.613  0.00  0.00    +0.000 A 
ATOM     22  C   UNL     1       1.794   8.871  18.382  0.00  0.00    +0.000 A 
ATOM     23  C   UNL     1       1.144   9.643  19.368  0.00  0.00    +0.000 A 
ATOM     24  C   UNL     1       0.927   9.013  20.605  0.00  0.00    +0.000 A 
ATOM     25  C   UNL     1       1.363   7.706  20.861  0.00  0.00    +0.000 A 
BRANCH  23  26
ATOM     26  C   UNL     1       0.684  11.037  19.080  0.00  0.00    +0.000 A 
ATOM     27  C   UNL     1       1.550  12.117  19.382  0.00  0.00    +0.000 A 
ATOM     28  C   UNL     1       1.190  13.453  19.166  0.00  0.00    +0.000 A 
ATOM     29  C   UNL     1      -0.040  13.757  18.603  0.00  0.00    +0.000 A 
ATOM     30  C   UNL     1      -0.913  12.725  18.276  0.00  0.00    +0.000 A 
ATOM     31  C   UNL     1      -0.571  11.384  18.528  0.00  0.00    +0.000 A 
ATOM     32 CL   UNL     1      -1.827  10.238  18.180  0.00  0.00    +0.000 Cl
ENDBRANCH  23  26
ENDBRANCH  19  20
ENDBRANCH   5  19
TORSDOF 8
ENDMDL
