MODEL 1
REMARK VINA RESULT:      -7.3      0.000      0.000
REMARK  Name = 
REMARK  9 active torsions:
REMARK  status: ('A' for Active; 'I' for Inactive)
REMARK    1  A    between atoms: C_2  and  C_3
REMARK    2  A    between atoms: C_3  and  C_4
REMARK    3  A    between atoms: C_9  and  C_10
REMARK    4  A    between atoms: C_10  and  C_11
REMARK    5  A    between atoms: N_26  and  CA_27
REMARK    6  A    between atoms: CA_27  and  C_28
REMARK    7  A    between atoms: CA_27  and  CB_30
REMARK    8  A    between atoms: C_28  and  O_29
REMARK    9  A    between atoms: CB_30  and  CG_31
REMARK                            x       y       z     vdW  Elec       q    Type
REMARK                         _______ _______ _______ _____ _____    ______ ____
ROOT
ATOM      1  C   UNK A   0      -2.459  12.761  19.048  0.00  0.00    +0.000 C 
ATOM      2  C   UNK A   0      -2.501  11.610  17.993  0.00  0.00    +0.000 C 
ATOM      3  C   UNK A   0      -1.511  10.453  18.101  0.00  0.00    +0.000 C 
ATOM      4  C   UNK A   0      -0.454  10.418  18.926  0.00  0.00    +0.000 C 
ATOM      5  C   UNK A   0       0.645   9.393  19.037  0.00  0.00    +0.000 C 
ATOM      6  C   UNK A   0       1.383   9.279  20.411  0.00  0.00    +0.000 C 
ATOM      7  C   UNK A   0       1.035  10.427  21.361  0.00  0.00    +0.000 C 
ATOM      8  O   UNK A   0       0.333  10.321  22.359  0.00  0.00    +0.000 OA
ATOM      9  O   UNK A   0       1.538  11.606  20.890  0.00  0.00    +0.000 OA
ATOM     10  C   UNK A   0       1.020  12.813  21.492  0.00  0.00    +0.000 C 
ATOM     11  C   UNK A   0       0.806  13.892  20.410  0.00  0.00    +0.000 C 
ATOM     12  N   UNK A   0      -0.622  14.046  20.094  0.00  0.00    +0.000 N 
ATOM     13  C   UNK A   0      -1.102  13.482  18.930  0.00  0.00    +0.000 C 
ATOM     14  O   UNK A   0      -0.487  13.598  17.874  0.00  0.00    +0.000 OA
ATOM     15  H   UNK A   0      -0.904  15.020  20.129  0.00  0.00    +0.000 HD
ENDROOT
BRANCH   1  16
ATOM     16  C   UNK A   0      -2.793  12.268  20.476  0.00  0.00    +0.000 C 
BRANCH  16  18
ATOM     17  O   UNK A   0      -3.936  14.321  21.053  0.00  0.00    +0.000 OA
ATOM     18  C   UNK A   0      -3.849  13.111  21.184  0.00  0.00    +0.000 C 
ATOM     19  N   PHE A   1      -4.681  12.389  22.017  0.00  0.00    +0.000 N 
ATOM     20  H   PHE A   1      -4.481  11.402  22.130  0.00  0.00    +0.000 HD
BRANCH  19  21
ATOM     21  CA  PHE A   1      -5.788  12.931  22.828  0.00  0.00    +0.000 C 
BRANCH  21  22
ATOM     22  C   PHE A   1      -5.704  12.506  24.310  0.00  0.00    +0.000 C 
BRANCH  22  23
ATOM     23  O   PHE A   1      -4.578  11.683  24.599  0.00  0.00    +0.000 OA
ATOM     24  H   PHE A   1      -4.916  10.843  24.983  0.00  0.00    +0.000 HD
ENDBRANCH  22  23
ENDBRANCH  21  22
BRANCH  21  25
ATOM     25  CB  PHE A   1      -7.209  12.669  22.279  0.00  0.00    +0.000 C 
BRANCH  25  26
ATOM     26  CG  PHE A   1      -7.242  12.362  20.802  0.00  0.00    +0.000 A 
ATOM     27  CD1 PHE A   1      -7.058  11.042  20.375  0.00  0.00    +0.000 A 
ATOM     28  CE1 PHE A   1      -7.011  10.736  19.019  0.00  0.00    +0.000 A 
ATOM     29  CZ  PHE A   1      -7.165  11.748  18.074  0.00  0.00    +0.000 A 
ATOM     30  CE2 PHE A   1      -7.385  13.061  18.488  0.00  0.00    +0.000 A 
ATOM     31  CD2 PHE A   1      -7.426  13.372  19.848  0.00  0.00    +0.000 A 
ENDBRANCH  25  26
ENDBRANCH  21  25
ENDBRANCH  19  21
ENDBRANCH  16  18
ENDBRANCH   1  16
BRANCH   6  32
ATOM     32  C   UNK A   0       1.153   7.945  21.156  0.00  0.00    +0.000 C 
BRANCH  32  33
ATOM     33  C   UNK A   0       1.759   6.716  20.510  0.00  0.00    +0.000 A 
ATOM     34  C   UNK A   0       2.726   6.834  19.496  0.00  0.00    +0.000 A 
ATOM     35  C   UNK A   0       3.288   5.692  18.917  0.00  0.00    +0.000 A 
ATOM     36  C   UNK A   0       2.886   4.434  19.347  0.00  0.00    +0.000 A 
ATOM     37  F   UNK A   0       3.418   3.340  18.787  0.00  0.00    +0.000 F 
ATOM     38  C   UNK A   0       1.942   4.295  20.355  0.00  0.00    +0.000 A 
ATOM     39  C   UNK A   0       1.384   5.435  20.939  0.00  0.00    +0.000 A 
ENDBRANCH  32  33
ENDBRANCH   6  32
TORSDOF 9
ENDMDL
MODEL 2
REMARK VINA RESULT:      -7.2      2.825      6.639
REMARK  Name = 
REMARK  9 active torsions:
REMARK  status: ('A' for Active; 'I' for Inactive)
REMARK    1  A    between atoms: C_2  and  C_3
REMARK    2  A    between atoms: C_3  and  C_4
REMARK    3  A    between atoms: C_9  and  C_10
REMARK    4  A    between atoms: C_10  and  C_11
REMARK    5  A    between atoms: N_26  and  CA_27
REMARK    6  A    between atoms: CA_27  and  C_28
REMARK    7  A    between atoms: CA_27  and  CB_30
REMARK    8  A    between atoms: C_28  and  O_29
REMARK    9  A    between atoms: CB_30  and  CG_31
REMARK                            x       y       z     vdW  Elec       q    Type
REMARK                         _______ _______ _______ _____ _____    ______ ____
ROOT
ATOM      1  C   UNK A   0      -1.455  13.607  21.715  0.00  0.00    +0.000 C 
ATOM      2  C   UNK A   0      -1.340  12.816  23.056  0.00  0.00    +0.000 C 
ATOM      3  C   UNK A   0      -0.866  11.364  23.035  0.00  0.00    +0.000 C 
ATOM      4  C   UNK A   0      -0.713  10.620  21.930  0.00  0.00    +0.000 C 
ATOM      5  C   UNK A   0      -0.367   9.160  21.796  0.00  0.00    +0.000 C 
ATOM      6  C   UNK A   0       0.311   8.703  20.462  0.00  0.00    +0.000 C 
ATOM      7  C   UNK A   0       0.277   9.790  19.385  0.00  0.00    +0.000 C 
ATOM      8  O   UNK A   0       1.249  10.432  19.010  0.00  0.00    +0.000 OA
ATOM      9  O   UNK A   0      -1.004  10.008  18.967  0.00  0.00    +0.000 OA
ATOM     10  C   UNK A   0      -1.236  11.215  18.207  0.00  0.00    +0.000 C 
ATOM     11  C   UNK A   0      -2.572  11.860  18.634  0.00  0.00    +0.000 C 
ATOM     12  N   UNK A   0      -2.339  13.044  19.474  0.00  0.00    +0.000 N 
ATOM     13  C   UNK A   0      -2.524  12.929  20.836  0.00  0.00    +0.000 C 
ATOM     14  O   UNK A   0      -3.507  12.353  21.292  0.00  0.00    +0.000 OA
ATOM     15  H   UNK A   0      -2.865  13.843  19.137  0.00  0.00    +0.000 HD
ENDROOT
BRANCH   1  16
ATOM     16  C   UNK A   0      -0.086  13.793  21.017  0.00  0.00    +0.000 C 
BRANCH  16  18
ATOM     17  O   UNK A   0       0.558  16.034  21.661  0.00  0.00    +0.000 OA
ATOM     18  C   UNK A   0       0.281  15.252  20.766  0.00  0.00    +0.000 C 
ATOM     19  N   PHE A   1       0.242  15.623  19.437  0.00  0.00    +0.000 N 
ATOM     20  H   PHE A   1      -0.082  14.931  18.771  0.00  0.00    +0.000 HD
BRANCH  19  21
ATOM     21  CA  PHE A   1       0.545  16.962  18.894  0.00  0.00    +0.000 C 
BRANCH  21  22
ATOM     22  C   PHE A   1      -0.714  17.700  18.392  0.00  0.00    +0.000 C 
BRANCH  22  23
ATOM     23  O   PHE A   1      -0.558  18.263  17.093  0.00  0.00    +0.000 OA
ATOM     24  H   PHE A   1      -1.457  18.401  16.720  0.00  0.00    +0.000 HD
ENDBRANCH  22  23
ENDBRANCH  21  22
BRANCH  21  25
ATOM     25  CB  PHE A   1       1.656  17.011  17.821  0.00  0.00    +0.000 C 
BRANCH  25  26
ATOM     26  CG  PHE A   1       2.971  16.430  18.281  0.00  0.00    +0.000 A 
ATOM     27  CD1 PHE A   1       3.642  15.523  17.452  0.00  0.00    +0.000 A 
ATOM     28  CE1 PHE A   1       4.819  14.914  17.876  0.00  0.00    +0.000 A 
ATOM     29  CZ  PHE A   1       5.346  15.221  19.129  0.00  0.00    +0.000 A 
ATOM     30  CE2 PHE A   1       4.705  16.151  19.947  0.00  0.00    +0.000 A 
ATOM     31  CD2 PHE A   1       3.520  16.757  19.527  0.00  0.00    +0.000 A 
ENDBRANCH  25  26
ENDBRANCH  21  25
ENDBRANCH  19  21
ENDBRANCH  16  18
ENDBRANCH   1  16
BRANCH   6  32
ATOM     32  C   UNK A   0       1.768   8.214  20.615  0.00  0.00    +0.000 C 
BRANCH  32  33
ATOM     33  C   UNK A   0       2.115   6.934  19.884  0.00  0.00    +0.000 A 
ATOM     34  C   UNK A   0       1.831   5.678  20.449  0.00  0.00    +0.000 A 
ATOM     35  C   UNK A   0       2.144   4.504  19.758  0.00  0.00    +0.000 A 
ATOM     36  C   UNK A   0       2.738   4.581  18.504  0.00  0.00    +0.000 A 
ATOM     37  F   UNK A   0       3.045   3.455  17.846  0.00  0.00    +0.000 F 
ATOM     38  C   UNK A   0       3.015   5.810  17.923  0.00  0.00    +0.000 A 
ATOM     39  C   UNK A   0       2.697   6.984  18.609  0.00  0.00    +0.000 A 
ENDBRANCH  32  33
ENDBRANCH   6  32
TORSDOF 9
ENDMDL
MODEL 3
REMARK VINA RESULT:      -7.2      4.134      7.102
REMARK  Name = 
REMARK  9 active torsions:
REMARK  status: ('A' for Active; 'I' for Inactive)
REMARK    1  A    between atoms: C_2  and  C_3
REMARK    2  A    between atoms: C_3  and  C_4
REMARK    3  A    between atoms: C_9  and  C_10
REMARK    4  A    between atoms: C_10  and  C_11
REMARK    5  A    between atoms: N_26  and  CA_27
REMARK    6  A    between atoms: CA_27  and  C_28
REMARK    7  A    between atoms: CA_27  and  CB_30
REMARK    8  A    between atoms: C_28  and  O_29
REMARK    9  A    between atoms: CB_30  and  CG_31
REMARK                            x       y       z     vdW  Elec       q    Type
REMARK                         _______ _______ _______ _____ _____    ______ ____
ROOT
ATOM      1  C   UNK A   0      -0.417  11.542  20.405  0.00  0.00    +0.000 C 
ATOM      2  C   UNK A   0      -0.731  10.971  21.824  0.00  0.00    +0.000 C 
ATOM      3  C   UNK A   0      -1.171  11.919  22.937  0.00  0.00    +0.000 C 
ATOM      4  C   UNK A   0      -1.132  13.259  22.868  0.00  0.00    +0.000 C 
ATOM      5  C   UNK A   0      -1.426  14.284  23.932  0.00  0.00    +0.000 C 
ATOM      6  C   UNK A   0      -1.873  15.705  23.454  0.00  0.00    +0.000 C 
ATOM      7  C   UNK A   0      -1.687  15.902  21.947  0.00  0.00    +0.000 C 
ATOM      8  O   UNK A   0      -2.597  15.950  21.130  0.00  0.00    +0.000 OA
ATOM      9  O   UNK A   0      -0.359  15.924  21.629  0.00  0.00    +0.000 OA
ATOM     10  C   UNK A   0      -0.030  15.772  20.231  0.00  0.00    +0.000 C 
ATOM     11  C   UNK A   0       1.209  14.865  20.075  0.00  0.00    +0.000 C 
ATOM     12  N   UNK A   0       0.824  13.526  19.604  0.00  0.00    +0.000 N 
ATOM     13  C   UNK A   0       0.791  12.493  20.517  0.00  0.00    +0.000 C 
ATOM     14  O   UNK A   0       1.698  12.340  21.330  0.00  0.00    +0.000 OA
ATOM     15  H   UNK A   0       1.384  13.242  18.806  0.00  0.00    +0.000 HD
ENDROOT
BRANCH   1  16
ATOM     16  C   UNK A   0      -1.659  12.172  19.732  0.00  0.00    +0.000 C 
BRANCH  16  18
ATOM     17  O   UNK A   0      -1.934  10.149  18.434  0.00  0.00    +0.000 OA
ATOM     18  C   UNK A   0      -2.387  11.227  18.781  0.00  0.00    +0.000 C 
ATOM     19  N   PHE A   1      -3.593  11.712  18.317  0.00  0.00    +0.000 N 
ATOM     20  H   PHE A   1      -3.851  12.654  18.590  0.00  0.00    +0.000 HD
BRANCH  19  21
ATOM     21  CA  PHE A   1      -4.513  11.025  17.390  0.00  0.00    +0.000 C 
BRANCH  21  22
ATOM     22  C   PHE A   1      -4.065  11.135  15.916  0.00  0.00    +0.000 C 
BRANCH  22  23
ATOM     23  O   PHE A   1      -3.389   9.975  15.443  0.00  0.00    +0.000 OA
ATOM     24  H   PHE A   1      -3.807   9.715  14.592  0.00  0.00    +0.000 HD
ENDBRANCH  22  23
ENDBRANCH  21  22
BRANCH  21  25
ATOM     25  CB  PHE A   1      -6.005  11.408  17.523  0.00  0.00    +0.000 C 
BRANCH  25  26
ATOM     26  CG  PHE A   1      -6.636  10.951  18.815  0.00  0.00    +0.000 A 
ATOM     27  CD1 PHE A   1      -6.856   9.584  19.020  0.00  0.00    +0.000 A 
ATOM     28  CE1 PHE A   1      -7.501   9.135  20.169  0.00  0.00    +0.000 A 
ATOM     29  CZ  PHE A   1      -7.916  10.051  21.133  0.00  0.00    +0.000 A 
ATOM     30  CE2 PHE A   1      -7.669  11.411  20.956  0.00  0.00    +0.000 A 
ATOM     31  CD2 PHE A   1      -7.029  11.865  19.801  0.00  0.00    +0.000 A 
ENDBRANCH  25  26
ENDBRANCH  21  25
ENDBRANCH  19  21
ENDBRANCH  16  18
ENDBRANCH   1  16
BRANCH   6  32
ATOM     32  C   UNK A   0      -3.328  16.078  23.816  0.00  0.00    +0.000 C 
BRANCH  32  33
ATOM     33  C   UNK A   0      -4.302  14.922  23.908  0.00  0.00    +0.000 A 
ATOM     34  C   UNK A   0      -5.607  15.033  23.396  0.00  0.00    +0.000 A 
ATOM     35  C   UNK A   0      -6.492  13.954  23.474  0.00  0.00    +0.000 A 
ATOM     36  C   UNK A   0      -6.079  12.765  24.063  0.00  0.00    +0.000 A 
ATOM     37  F   UNK A   0      -6.930  11.734  24.145  0.00  0.00    +0.000 F 
ATOM     38  C   UNK A   0      -4.792  12.630  24.563  0.00  0.00    +0.000 A 
ATOM     39  C   UNK A   0      -3.903  13.705  24.480  0.00  0.00    +0.000 A 
ENDBRANCH  32  33
ENDBRANCH   6  32
TORSDOF 9
ENDMDL
MODEL 4
REMARK VINA RESULT:      -7.2      4.178      7.148
REMARK  Name = 
REMARK  9 active torsions:
REMARK  status: ('A' for Active; 'I' for Inactive)
REMARK    1  A    between atoms: C_2  and  C_3
REMARK    2  A    between atoms: C_3  and  C_4
REMARK    3  A    between atoms: C_9  and  C_10
REMARK    4  A    between atoms: C_10  and  C_11
REMARK    5  A    between atoms: N_26  and  CA_27
REMARK    6  A    between atoms: CA_27  and  C_28
REMARK    7  A    between atoms: CA_27  and  CB_30
REMARK    8  A    between atoms: C_28  and  O_29
REMARK    9  A    between atoms: CB_30  and  CG_31
REMARK                            x       y       z     vdW  Elec       q    Type
REMARK                         _______ _______ _______ _____ _____    ______ ____
ROOT
ATOM      1  C   UNK A   0       0.338  11.772  19.945  0.00  0.00    +0.000 C 
ATOM      2  C   UNK A   0      -0.266  11.259  21.291  0.00  0.00    +0.000 C 
ATOM      3  C   UNK A   0      -0.885  12.255  22.268  0.00  0.00    +0.000 C 
ATOM      4  C   UNK A   0      -0.791  13.590  22.170  0.00  0.00    +0.000 C 
ATOM      5  C   UNK A   0      -1.255  14.659  23.124  0.00  0.00    +0.000 C 
ATOM      6  C   UNK A   0      -1.555  16.073  22.527  0.00  0.00    +0.000 C 
ATOM      7  C   UNK A   0      -1.071  16.214  21.082  0.00  0.00    +0.000 C 
ATOM      8  O   UNK A   0      -1.801  16.257  20.101  0.00  0.00    +0.000 OA
ATOM      9  O   UNK A   0       0.294  16.191  21.031  0.00  0.00    +0.000 OA
ATOM     10  C   UNK A   0       0.886  15.983  19.730  0.00  0.00    +0.000 C 
ATOM     11  C   UNK A   0       2.101  15.040  19.847  0.00  0.00    +0.000 C 
ATOM     12  N   UNK A   0       1.774  13.696  19.347  0.00  0.00    +0.000 N 
ATOM     13  C   UNK A   0       1.530  12.695  20.265  0.00  0.00    +0.000 C 
ATOM     14  O   UNK A   0       2.255  12.548  21.245  0.00  0.00    +0.000 OA
ATOM     15  H   UNK A   0       2.470  13.370  18.684  0.00  0.00    +0.000 HD
ENDROOT
BRANCH   1  16
ATOM     16  C   UNK A   0      -0.728  12.410  19.023  0.00  0.00    +0.000 C 
BRANCH  16  18
ATOM     17  O   UNK A   0      -1.396  10.191  18.331  0.00  0.00    +0.000 OA
ATOM     18  C   UNK A   0      -1.610  11.392  18.309  0.00  0.00    +0.000 C 
ATOM     19  N   PHE A   1      -2.658  11.949  17.603  0.00  0.00    +0.000 N 
ATOM     20  H   PHE A   1      -2.709  12.960  17.570  0.00  0.00    +0.000 HD
BRANCH  19  21
ATOM     21  CA  PHE A   1      -3.671  11.216  16.818  0.00  0.00    +0.000 C 
BRANCH  21  22
ATOM     22  C   PHE A   1      -3.134  10.740  15.451  0.00  0.00    +0.000 C 
BRANCH  22  23
ATOM     23  O   PHE A   1      -4.117  10.087  14.654  0.00  0.00    +0.000 OA
ATOM     24  H   PHE A   1      -3.995  10.389  13.727  0.00  0.00    +0.000 HD
ENDBRANCH  22  23
ENDBRANCH  21  22
BRANCH  21  25
ATOM     25  CB  PHE A   1      -5.025  11.938  16.637  0.00  0.00    +0.000 C 
BRANCH  25  26
ATOM     26  CG  PHE A   1      -5.929  11.845  17.842  0.00  0.00    +0.000 A 
ATOM     27  CD1 PHE A   1      -6.023  10.631  18.532  0.00  0.00    +0.000 A 
ATOM     28  CE1 PHE A   1      -6.900  10.491  19.603  0.00  0.00    +0.000 A 
ATOM     29  CZ  PHE A   1      -7.681  11.573  20.006  0.00  0.00    +0.000 A 
ATOM     30  CE2 PHE A   1      -7.568  12.797  19.349  0.00  0.00    +0.000 A 
ATOM     31  CD2 PHE A   1      -6.694  12.938  18.269  0.00  0.00    +0.000 A 
ENDBRANCH  25  26
ENDBRANCH  21  25
ENDBRANCH  19  21
ENDBRANCH  16  18
ENDBRANCH   1  16
BRANCH   6  32
ATOM     32  C   UNK A   0      -3.040  16.495  22.586  0.00  0.00    +0.000 C 
BRANCH  32  33
ATOM     33  C   UNK A   0      -4.043  15.365  22.688  0.00  0.00    +0.000 A 
ATOM     34  C   UNK A   0      -4.174  14.419  21.657  0.00  0.00    +0.000 A 
ATOM     35  C   UNK A   0      -5.095  13.372  21.770  0.00  0.00    +0.000 A 
ATOM     36  C   UNK A   0      -5.884  13.269  22.908  0.00  0.00    +0.000 A 
ATOM     37  F   UNK A   0      -6.771  12.271  23.012  0.00  0.00    +0.000 F 
ATOM     38  C   UNK A   0      -5.761  14.185  23.943  0.00  0.00    +0.000 A 
ATOM     39  C   UNK A   0      -4.838  15.228  23.836  0.00  0.00    +0.000 A 
ENDBRANCH  32  33
ENDBRANCH   6  32
TORSDOF 9
ENDMDL
MODEL 5
REMARK VINA RESULT:      -7.1      0.941      1.504
REMARK  Name = 
REMARK  9 active torsions:
REMARK  status: ('A' for Active; 'I' for Inactive)
REMARK    1  A    between atoms: C_2  and  C_3
REMARK    2  A    between atoms: C_3  and  C_4
REMARK    3  A    between atoms: C_9  and  C_10
REMARK    4  A    between atoms: C_10  and  C_11
REMARK    5  A    between atoms: N_26  and  CA_27
REMARK    6  A    between atoms: CA_27  and  C_28
REMARK    7  A    between atoms: CA_27  and  CB_30
REMARK    8  A    between atoms: C_28  and  O_29
REMARK    9  A    between atoms: CB_30  and  CG_31
REMARK                            x       y       z     vdW  Elec       q    Type
REMARK                         _______ _______ _______ _____ _____    ______ ____
ROOT
ATOM      1  C   UNK A   0      -2.558  12.981  19.827  0.00  0.00    +0.000 C 
ATOM      2  C   UNK A   0      -2.930  11.867  18.798  0.00  0.00    +0.000 C 
ATOM      3  C   UNK A   0      -2.020  10.652  18.641  0.00  0.00    +0.000 C 
ATOM      4  C   UNK A   0      -0.797  10.531  19.179  0.00  0.00    +0.000 C 
ATOM      5  C   UNK A   0       0.228   9.441  19.000  0.00  0.00    +0.000 C 
ATOM      6  C   UNK A   0       1.271   9.243  20.148  0.00  0.00    +0.000 C 
ATOM      7  C   UNK A   0       1.240  10.380  21.173  0.00  0.00    +0.000 C 
ATOM      8  O   UNK A   0       0.800  10.285  22.310  0.00  0.00    +0.000 OA
ATOM      9  O   UNK A   0       1.687  11.541  20.610  0.00  0.00    +0.000 OA
ATOM     10  C   UNK A   0       1.410  12.758  21.338  0.00  0.00    +0.000 C 
ATOM     11  C   UNK A   0       1.006  13.880  20.358  0.00  0.00    +0.000 C 
ATOM     12  N   UNK A   0      -0.442  14.125  20.407  0.00  0.00    +0.000 N 
ATOM     13  C   UNK A   0      -1.228  13.626  19.389  0.00  0.00    +0.000 C 
ATOM     14  O   UNK A   0      -0.885  13.738  18.216  0.00  0.00    +0.000 OA
ATOM     15  H   UNK A   0      -0.645  15.113  20.525  0.00  0.00    +0.000 HD
ENDROOT
BRANCH   1  16
ATOM     16  C   UNK A   0      -2.562  12.466  21.285  0.00  0.00    +0.000 C 
BRANCH  16  18
ATOM     17  O   UNK A   0      -4.214  12.175  23.029  0.00  0.00    +0.000 OA
ATOM     18  C   UNK A   0      -3.839  12.799  22.050  0.00  0.00    +0.000 C 
ATOM     19  N   PHE A   1      -4.557  13.852  21.518  0.00  0.00    +0.000 N 
ATOM     20  H   PHE A   1      -4.215  14.257  20.654  0.00  0.00    +0.000 HD
BRANCH  19  21
ATOM     21  CA  PHE A   1      -5.825  14.397  22.039  0.00  0.00    +0.000 C 
BRANCH  21  22
ATOM     22  C   PHE A   1      -5.759  14.722  23.547  0.00  0.00    +0.000 C 
BRANCH  22  23
ATOM     23  O   PHE A   1      -6.385  13.739  24.366  0.00  0.00    +0.000 OA
ATOM     24  H   PHE A   1      -7.152  14.167  24.808  0.00  0.00    +0.000 HD
ENDBRANCH  22  23
ENDBRANCH  21  22
BRANCH  21  25
ATOM     25  CB  PHE A   1      -7.088  13.562  21.729  0.00  0.00    +0.000 C 
BRANCH  25  26
ATOM     26  CG  PHE A   1      -6.969  12.722  20.481  0.00  0.00    +0.000 A 
ATOM     27  CD1 PHE A   1      -7.015  13.349  19.231  0.00  0.00    +0.000 A 
ATOM     28  CE1 PHE A   1      -6.981  12.598  18.060  0.00  0.00    +0.000 A 
ATOM     29  CZ  PHE A   1      -6.883  11.209  18.130  0.00  0.00    +0.000 A 
ATOM     30  CE2 PHE A   1      -6.800  10.577  19.370  0.00  0.00    +0.000 A 
ATOM     31  CD2 PHE A   1      -6.841  11.328  20.546  0.00  0.00    +0.000 A 
ENDBRANCH  25  26
ENDBRANCH  21  25
ENDBRANCH  19  21
ENDBRANCH  16  18
ENDBRANCH   1  16
BRANCH   6  32
ATOM     32  C   UNK A   0       1.147   7.903  20.907  0.00  0.00    +0.000 C 
BRANCH  32  33
ATOM     33  C   UNK A   0       1.837   6.716  20.267  0.00  0.00    +0.000 A 
ATOM     34  C   UNK A   0       1.661   5.417  20.774  0.00  0.00    +0.000 A 
ATOM     35  C   UNK A   0       2.293   4.328  20.166  0.00  0.00    +0.000 A 
ATOM     36  C   UNK A   0       3.100   4.533  19.054  0.00  0.00    +0.000 A 
ATOM     37  F   UNK A   0       3.712   3.491  18.477  0.00  0.00    +0.000 F 
ATOM     38  C   UNK A   0       3.277   5.806  18.530  0.00  0.00    +0.000 A 
ATOM     39  C   UNK A   0       2.642   6.894  19.132  0.00  0.00    +0.000 A 
ENDBRANCH  32  33
ENDBRANCH   6  32
TORSDOF 9
ENDMDL
MODEL 6
REMARK VINA RESULT:      -7.1      2.863      6.449
REMARK  Name = 
REMARK  9 active torsions:
REMARK  status: ('A' for Active; 'I' for Inactive)
REMARK    1  A    between atoms: C_2  and  C_3
REMARK    2  A    between atoms: C_3  and  C_4
REMARK    3  A    between atoms: C_9  and  C_10
REMARK    4  A    between atoms: C_10  and  C_11
REMARK    5  A    between atoms: N_26  and  CA_27
REMARK    6  A    between atoms: CA_27  and  C_28
REMARK    7  A    between atoms: CA_27  and  CB_30
REMARK    8  A    between atoms: C_28  and  O_29
REMARK    9  A    between atoms: CB_30  and  CG_31
REMARK                            x       y       z     vdW  Elec       q    Type
REMARK                         _______ _______ _______ _____ _____    ______ ____
ROOT
ATOM      1  C   UNK A   0      -1.341  13.689  21.703  0.00  0.00    +0.000 C 
ATOM      2  C   UNK A   0      -1.306  12.936  23.071  0.00  0.00    +0.000 C 
ATOM      3  C   UNK A   0      -0.907  11.463  23.111  0.00  0.00    +0.000 C 
ATOM      4  C   UNK A   0      -0.761  10.676  22.034  0.00  0.00    +0.000 C 
ATOM      5  C   UNK A   0      -0.488   9.196  21.957  0.00  0.00    +0.000 C 
ATOM      6  C   UNK A   0       0.203   8.662  20.659  0.00  0.00    +0.000 C 
ATOM      7  C   UNK A   0       0.257   9.713  19.548  0.00  0.00    +0.000 C 
ATOM      8  O   UNK A   0       1.271  10.293  19.182  0.00  0.00    +0.000 OA
ATOM      9  O   UNK A   0      -0.999   9.983  19.085  0.00  0.00    +0.000 OA
ATOM     10  C   UNK A   0      -1.147  11.174  18.280  0.00  0.00    +0.000 C 
ATOM     11  C   UNK A   0      -2.459  11.900  18.646  0.00  0.00    +0.000 C 
ATOM     12  N   UNK A   0      -2.189  13.097  19.455  0.00  0.00    +0.000 N 
ATOM     13  C   UNK A   0      -2.419  13.037  20.814  0.00  0.00    +0.000 C 
ATOM     14  O   UNK A   0      -3.443  12.526  21.258  0.00  0.00    +0.000 OA
ATOM     15  H   UNK A   0      -2.664  13.911  19.078  0.00  0.00    +0.000 HD
ENDROOT
BRANCH   1  16
ATOM     16  C   UNK A   0       0.054  13.781  21.042  0.00  0.00    +0.000 C 
BRANCH  16  18
ATOM     17  O   UNK A   0       1.691  14.813  22.495  0.00  0.00    +0.000 OA
ATOM     18  C   UNK A   0       0.907  14.932  21.567  0.00  0.00    +0.000 C 
ATOM     19  N   PHE A   1       0.691  16.134  20.923  0.00  0.00    +0.000 N 
ATOM     20  H   PHE A   1      -0.040  16.160  20.222  0.00  0.00    +0.000 HD
BRANCH  19  21
ATOM     21  CA  PHE A   1       1.365  17.414  21.214  0.00  0.00    +0.000 C 
BRANCH  21  22
ATOM     22  C   PHE A   1       0.383  18.515  21.668  0.00  0.00    +0.000 C 
BRANCH  22  23
ATOM     23  O   PHE A   1      -0.948  18.311  21.207  0.00  0.00    +0.000 OA
ATOM     24  H   PHE A   1      -1.509  19.019  21.595  0.00  0.00    +0.000 HD
ENDBRANCH  22  23
ENDBRANCH  21  22
BRANCH  21  25
ATOM     25  CB  PHE A   1       2.288  17.951  20.096  0.00  0.00    +0.000 C 
BRANCH  25  26
ATOM     26  CG  PHE A   1       3.039  16.871  19.357  0.00  0.00    +0.000 A 
ATOM     27  CD1 PHE A   1       4.081  16.199  20.007  0.00  0.00    +0.000 A 
ATOM     28  CE1 PHE A   1       4.840  15.248  19.332  0.00  0.00    +0.000 A 
ATOM     29  CZ  PHE A   1       4.552  14.948  18.002  0.00  0.00    +0.000 A 
ATOM     30  CE2 PHE A   1       3.494  15.586  17.356  0.00  0.00    +0.000 A 
ATOM     31  CD2 PHE A   1       2.735  16.545  18.029  0.00  0.00    +0.000 A 
ENDBRANCH  25  26
ENDBRANCH  21  25
ENDBRANCH  19  21
ENDBRANCH  16  18
ENDBRANCH   1  16
BRANCH   6  32
ATOM     32  C   UNK A   0       1.628   8.105  20.871  0.00  0.00    +0.000 C 
BRANCH  32  33
ATOM     33  C   UNK A   0       1.972   6.857  20.086  0.00  0.00    +0.000 A 
ATOM     34  C   UNK A   0       1.672   5.579  20.590  0.00  0.00    +0.000 A 
ATOM     35  C   UNK A   0       1.983   4.435  19.849  0.00  0.00    +0.000 A 
ATOM     36  C   UNK A   0       2.591   4.563  18.607  0.00  0.00    +0.000 A 
ATOM     37  F   UNK A   0       2.896   3.467  17.901  0.00  0.00    +0.000 F 
ATOM     38  C   UNK A   0       2.884   5.815  18.085  0.00  0.00    +0.000 A 
ATOM     39  C   UNK A   0       2.569   6.960  18.821  0.00  0.00    +0.000 A 
ENDBRANCH  32  33
ENDBRANCH   6  32
TORSDOF 9
ENDMDL
MODEL 7
REMARK VINA RESULT:      -7.1      5.563      7.651
REMARK  Name = 
REMARK  9 active torsions:
REMARK  status: ('A' for Active; 'I' for Inactive)
REMARK    1  A    between atoms: C_2  and  C_3
REMARK    2  A    between atoms: C_3  and  C_4
REMARK    3  A    between atoms: C_9  and  C_10
REMARK    4  A    between atoms: C_10  and  C_11
REMARK    5  A    between atoms: N_26  and  CA_27
REMARK    6  A    between atoms: CA_27  and  C_28
REMARK    7  A    between atoms: CA_27  and  CB_30
REMARK    8  A    between atoms: C_28  and  O_29
REMARK    9  A    between atoms: CB_30  and  CG_31
REMARK                            x       y       z     vdW  Elec       q    Type
REMARK                         _______ _______ _______ _____ _____    ______ ____
ROOT
ATOM      1  C   UNK A   0       1.971  14.645  19.406  0.00  0.00    +0.000 C 
ATOM      2  C   UNK A   0       2.707  14.410  18.049  0.00  0.00    +0.000 C 
ATOM      3  C   UNK A   0       4.226  14.549  17.982  0.00  0.00    +0.000 C 
ATOM      4  C   UNK A   0       4.997  15.053  18.957  0.00  0.00    +0.000 C 
ATOM      5  C   UNK A   0       6.475  15.344  18.959  0.00  0.00    +0.000 C 
ATOM      6  C   UNK A   0       7.201  15.358  20.345  0.00  0.00    +0.000 C 
ATOM      7  C   UNK A   0       6.222  15.327  21.521  0.00  0.00    +0.000 C 
ATOM      8  O   UNK A   0       6.037  14.362  22.252  0.00  0.00    +0.000 OA
ATOM      9  O   UNK A   0       5.514  16.492  21.584  0.00  0.00    +0.000 OA
ATOM     10  C   UNK A   0       4.337  16.486  22.421  0.00  0.00    +0.000 C 
ATOM     11  C   UNK A   0       3.196  17.266  21.735  0.00  0.00    +0.000 C 
ATOM     12  N   UNK A   0       2.186  16.349  21.187  0.00  0.00    +0.000 N 
ATOM     13  C   UNK A   0       2.181  16.112  19.828  0.00  0.00    +0.000 C 
ATOM     14  O   UNK A   0       2.298  17.036  19.027  0.00  0.00    +0.000 OA
ATOM     15  H   UNK A   0       1.251  16.614  21.478  0.00  0.00    +0.000 HD
ENDROOT
BRANCH   1  16
ATOM     16  C   UNK A   0       2.373  13.612  20.485  0.00  0.00    +0.000 C 
BRANCH  16  18
ATOM     17  O   UNK A   0       0.647  12.461  21.730  0.00  0.00    +0.000 OA
ATOM     18  C   UNK A   0       1.325  12.528  20.717  0.00  0.00    +0.000 C 
ATOM     19  N   PHE A   1       1.231  11.606  19.695  0.00  0.00    +0.000 N 
ATOM     20  H   PHE A   1       1.892  11.690  18.932  0.00  0.00    +0.000 HD
BRANCH  19  21
ATOM     21  CA  PHE A   1       0.313  10.451  19.641  0.00  0.00    +0.000 C 
BRANCH  21  22
ATOM     22  C   PHE A   1       0.835   9.238  20.440  0.00  0.00    +0.000 C 
BRANCH  22  23
ATOM     23  O   PHE A   1       0.584   9.332  21.839  0.00  0.00    +0.000 OA
ATOM     24  H   PHE A   1      -0.340   9.647  21.953  0.00  0.00    +0.000 HD
ENDBRANCH  22  23
ENDBRANCH  21  22
BRANCH  21  25
ATOM     25  CB  PHE A   1      -0.122  10.010  18.225  0.00  0.00    +0.000 C 
BRANCH  25  26
ATOM     26  CG  PHE A   1      -1.533  10.412  17.870  0.00  0.00    +0.000 A 
ATOM     27  CD1 PHE A   1      -2.094   9.947  16.675  0.00  0.00    +0.000 A 
ATOM     28  CE1 PHE A   1      -3.365  10.357  16.284  0.00  0.00    +0.000 A 
ATOM     29  CZ  PHE A   1      -4.094  11.224  17.094  0.00  0.00    +0.000 A 
ATOM     30  CE2 PHE A   1      -3.559  11.664  18.304  0.00  0.00    +0.000 A 
ATOM     31  CD2 PHE A   1      -2.282  11.260  18.696  0.00  0.00    +0.000 A 
ENDBRANCH  25  26
ENDBRANCH  21  25
ENDBRANCH  19  21
ENDBRANCH  16  18
ENDBRANCH   1  16
BRANCH   6  32
ATOM     32  C   UNK A   0       8.233  14.226  20.542  0.00  0.00    +0.000 C 
BRANCH  32  33
ATOM     33  C   UNK A   0       9.137  13.944  19.359  0.00  0.00    +0.000 A 
ATOM     34  C   UNK A   0       9.078  12.714  18.681  0.00  0.00    +0.000 A 
ATOM     35  C   UNK A   0       9.908  12.471  17.582  0.00  0.00    +0.000 A 
ATOM     36  C   UNK A   0      10.795  13.453  17.159  0.00  0.00    +0.000 A 
ATOM     37  F   UNK A   0      11.596  13.217  16.112  0.00  0.00    +0.000 F 
ATOM     38  C   UNK A   0      10.861  14.678  17.807  0.00  0.00    +0.000 A 
ATOM     39  C   UNK A   0      10.028  14.925  18.901  0.00  0.00    +0.000 A 
ENDBRANCH  32  33
ENDBRANCH   6  32
TORSDOF 9
ENDMDL
MODEL 8
REMARK VINA RESULT:      -7.1      5.781      8.780
REMARK  Name = 
REMARK  9 active torsions:
REMARK  status: ('A' for Active; 'I' for Inactive)
REMARK    1  A    between atoms: C_2  and  C_3
REMARK    2  A    between atoms: C_3  and  C_4
REMARK    3  A    between atoms: C_9  and  C_10
REMARK    4  A    between atoms: C_10  and  C_11
REMARK    5  A    between atoms: N_26  and  CA_27
REMARK    6  A    between atoms: CA_27  and  C_28
REMARK    7  A    between atoms: CA_27  and  CB_30
REMARK    8  A    between atoms: C_28  and  O_29
REMARK    9  A    between atoms: CB_30  and  CG_31
REMARK                            x       y       z     vdW  Elec       q    Type
REMARK                         _______ _______ _______ _____ _____    ______ ____
ROOT
ATOM      1  C   UNK A   0       2.478  15.217  18.876  0.00  0.00    +0.000 C 
ATOM      2  C   UNK A   0       3.413  15.267  17.627  0.00  0.00    +0.000 C 
ATOM      3  C   UNK A   0       4.928  15.299  17.819  0.00  0.00    +0.000 C 
ATOM      4  C   UNK A   0       5.551  15.484  18.993  0.00  0.00    +0.000 C 
ATOM      5  C   UNK A   0       7.019  15.648  19.285  0.00  0.00    +0.000 C 
ATOM      6  C   UNK A   0       7.513  15.262  20.718  0.00  0.00    +0.000 C 
ATOM      7  C   UNK A   0       6.357  15.019  21.691  0.00  0.00    +0.000 C 
ATOM      8  O   UNK A   0       6.019  13.921  22.116  0.00  0.00    +0.000 OA
ATOM      9  O   UNK A   0       5.694  16.185  21.947  0.00  0.00    +0.000 OA
ATOM     10  C   UNK A   0       4.399  16.065  22.574  0.00  0.00    +0.000 C 
ATOM     11  C   UNK A   0       3.414  17.078  21.951  0.00  0.00    +0.000 C 
ATOM     12  N   UNK A   0       2.471  16.406  21.046  0.00  0.00    +0.000 N 
ATOM     13  C   UNK A   0       2.675  16.514  19.686  0.00  0.00    +0.000 C 
ATOM     14  O   UNK A   0       2.956  17.594  19.175  0.00  0.00    +0.000 OA
ATOM     15  H   UNK A   0       1.512  16.665  21.256  0.00  0.00    +0.000 HD
ENDROOT
BRANCH   1  16
ATOM     16  C   UNK A   0       2.661  13.921  19.701  0.00  0.00    +0.000 C 
BRANCH  16  18
ATOM     17  O   UNK A   0       2.609  12.247  17.956  0.00  0.00    +0.000 OA
ATOM     18  C   UNK A   0       2.142  12.670  19.001  0.00  0.00    +0.000 C 
ATOM     19  N   PHE A   1       1.071  12.072  19.634  0.00  0.00    +0.000 N 
ATOM     20  H   PHE A   1       0.694  12.540  20.450  0.00  0.00    +0.000 HD
BRANCH  19  21
ATOM     21  CA  PHE A   1       0.362  10.855  19.192  0.00  0.00    +0.000 C 
BRANCH  21  22
ATOM     22  C   PHE A   1      -1.137  11.105  18.921  0.00  0.00    +0.000 C 
BRANCH  22  23
ATOM     23  O   PHE A   1      -1.398  11.626  17.622  0.00  0.00    +0.000 OA
ATOM     24  H   PHE A   1      -1.038  10.986  16.968  0.00  0.00    +0.000 HD
ENDBRANCH  22  23
ENDBRANCH  21  22
BRANCH  21  25
ATOM     25  CB  PHE A   1       0.541   9.613  20.094  0.00  0.00    +0.000 C 
BRANCH  25  26
ATOM     26  CG  PHE A   1       1.489   8.583  19.529  0.00  0.00    +0.000 A 
ATOM     27  CD1 PHE A   1       2.064   8.804  18.272  0.00  0.00    +0.000 A 
ATOM     28  CE1 PHE A   1       2.885   7.842  17.690  0.00  0.00    +0.000 A 
ATOM     29  CZ  PHE A   1       3.152   6.656  18.370  0.00  0.00    +0.000 A 
ATOM     30  CE2 PHE A   1       2.614   6.442  19.638  0.00  0.00    +0.000 A 
ATOM     31  CD2 PHE A   1       1.784   7.402  20.221  0.00  0.00    +0.000 A 
ENDBRANCH  25  26
ENDBRANCH  21  25
ENDBRANCH  19  21
ENDBRANCH  16  18
ENDBRANCH   1  16
BRANCH   6  32
ATOM     32  C   UNK A   0       8.455  14.039  20.767  0.00  0.00    +0.000 C 
BRANCH  32  33
ATOM     33  C   UNK A   0       9.352  13.849  19.562  0.00  0.00    +0.000 A 
ATOM     34  C   UNK A   0       9.071  12.864  18.599  0.00  0.00    +0.000 A 
ATOM     35  C   UNK A   0       9.900  12.708  17.483  0.00  0.00    +0.000 A 
ATOM     36  C   UNK A   0      11.007  13.531  17.327  0.00  0.00    +0.000 A 
ATOM     37  F   UNK A   0      11.805  13.376  16.263  0.00  0.00    +0.000 F 
ATOM     38  C   UNK A   0      11.295  14.518  18.259  0.00  0.00    +0.000 A 
ATOM     39  C   UNK A   0      10.466  14.681  19.371  0.00  0.00    +0.000 A 
ENDBRANCH  32  33
ENDBRANCH   6  32
TORSDOF 9
ENDMDL
MODEL 9
REMARK VINA RESULT:      -7.1      5.649      7.617
REMARK  Name = 
REMARK  9 active torsions:
REMARK  status: ('A' for Active; 'I' for Inactive)
REMARK    1  A    between atoms: C_2  and  C_3
REMARK    2  A    between atoms: C_3  and  C_4
REMARK    3  A    between atoms: C_9  and  C_10
REMARK    4  A    between atoms: C_10  and  C_11
REMARK    5  A    between atoms: N_26  and  CA_27
REMARK    6  A    between atoms: CA_27  and  C_28
REMARK    7  A    between atoms: CA_27  and  CB_30
REMARK    8  A    between atoms: C_28  and  O_29
REMARK    9  A    between atoms: CB_30  and  CG_31
REMARK                            x       y       z     vdW  Elec       q    Type
REMARK                         _______ _______ _______ _____ _____    ______ ____
ROOT
ATOM      1  C   UNK A   0       2.072  14.638  19.281  0.00  0.00    +0.000 C 
ATOM      2  C   UNK A   0       2.830  14.426  17.933  0.00  0.00    +0.000 C 
ATOM      3  C   UNK A   0       4.352  14.540  17.898  0.00  0.00    +0.000 C 
ATOM      4  C   UNK A   0       5.113  15.003  18.901  0.00  0.00    +0.000 C 
ATOM      5  C   UNK A   0       6.595  15.268  18.939  0.00  0.00    +0.000 C 
ATOM      6  C   UNK A   0       7.294  15.231  20.338  0.00  0.00    +0.000 C 
ATOM      7  C   UNK A   0       6.292  15.186  21.494  0.00  0.00    +0.000 C 
ATOM      8  O   UNK A   0       6.077  14.206  22.195  0.00  0.00    +0.000 OA
ATOM      9  O   UNK A   0       5.603  16.362  21.575  0.00  0.00    +0.000 OA
ATOM     10  C   UNK A   0       4.410  16.355  22.390  0.00  0.00    +0.000 C 
ATOM     11  C   UNK A   0       3.297  17.173  21.704  0.00  0.00    +0.000 C 
ATOM     12  N   UNK A   0       2.282  16.289  21.112  0.00  0.00    +0.000 N 
ATOM     13  C   UNK A   0       2.299  16.089  19.747  0.00  0.00    +0.000 C 
ATOM     14  O   UNK A   0       2.448  17.032  18.974  0.00  0.00    +0.000 OA
ATOM     15  H   UNK A   0       1.346  16.563  21.392  0.00  0.00    +0.000 HD
ENDROOT
BRANCH   1  16
ATOM     16  C   UNK A   0       2.435  13.569  20.339  0.00  0.00    +0.000 C 
BRANCH  16  18
ATOM     17  O   UNK A   0       0.684  12.571  21.678  0.00  0.00    +0.000 OA
ATOM     18  C   UNK A   0       1.307  12.584  20.628  0.00  0.00    +0.000 C 
ATOM     19  N   PHE A   1       1.071  11.682  19.611  0.00  0.00    +0.000 N 
ATOM     20  H   PHE A   1       1.693  11.711  18.811  0.00  0.00    +0.000 HD
BRANCH  19  21
ATOM     21  CA  PHE A   1       0.049  10.617  19.606  0.00  0.00    +0.000 C 
BRANCH  21  22
ATOM     22  C   PHE A   1       0.397   9.454  20.561  0.00  0.00    +0.000 C 
BRANCH  22  23
ATOM     23  O   PHE A   1      -0.150   9.611  21.866  0.00  0.00    +0.000 OA
ATOM     24  H   PHE A   1      -1.125   9.684  21.772  0.00  0.00    +0.000 HD
ENDBRANCH  22  23
ENDBRANCH  21  22
BRANCH  21  25
ATOM     25  CB  PHE A   1      -0.336  10.066  18.214  0.00  0.00    +0.000 C 
BRANCH  25  26
ATOM     26  CG  PHE A   1      -1.709  10.489  17.753  0.00  0.00    +0.000 A 
ATOM     27  CD1 PHE A   1      -2.487  11.303  18.584  0.00  0.00    +0.000 A 
ATOM     28  CE1 PHE A   1      -3.784  11.651  18.222  0.00  0.00    +0.000 A 
ATOM     29  CZ  PHE A   1      -4.310  11.203  17.012  0.00  0.00    +0.000 A 
ATOM     30  CE2 PHE A   1      -3.531  10.422  16.159  0.00  0.00    +0.000 A 
ATOM     31  CD2 PHE A   1      -2.231  10.065  16.524  0.00  0.00    +0.000 A 
ENDBRANCH  25  26
ENDBRANCH  21  25
ENDBRANCH  19  21
ENDBRANCH  16  18
ENDBRANCH   1  16
BRANCH   6  32
ATOM     32  C   UNK A   0       8.303  14.076  20.523  0.00  0.00    +0.000 C 
BRANCH  32  33
ATOM     33  C   UNK A   0       9.274  13.859  19.382  0.00  0.00    +0.000 A 
ATOM     34  C   UNK A   0      10.283  14.798  19.102  0.00  0.00    +0.000 A 
ATOM     35  C   UNK A   0      11.183  14.579  18.054  0.00  0.00    +0.000 A 
ATOM     36  C   UNK A   0      11.077  13.427  17.286  0.00  0.00    +0.000 A 
ATOM     37  F   UNK A   0      11.934  13.222  16.277  0.00  0.00    +0.000 F 
ATOM     38  C   UNK A   0      10.097  12.482  17.553  0.00  0.00    +0.000 A 
ATOM     39  C   UNK A   0       9.201  12.695  18.603  0.00  0.00    +0.000 A 
ENDBRANCH  32  33
ENDBRANCH   6  32
TORSDOF 9
ENDMDL
