MODEL 1
REMARK VINA RESULT:      -8.5      0.000      0.000
REMARK  Name = 
REMARK  4 active torsions:
REMARK  status: ('A' for Active; 'I' for Inactive)
REMARK    1  A    between atoms: C_4  and  O_5
REMARK    2  A    between atoms: C_7  and  C_8
REMARK    3  A    between atoms: N_14  and  C_15
REMARK    4  A    between atoms: C_15  and  C_16
REMARK                            x       y       z     vdW  Elec       q    Type
REMARK                         _______ _______ _______ _____ _____    ______ ____
ROOT
ATOM      1  O   UNL     1       7.835   7.499  16.723  0.00  0.00    +0.000 OA
ATOM      2  C   UNL     1       7.337   6.686  17.500  0.00  0.00    +0.000 A 
ATOM      3  C   UNL     1       8.045   6.420  18.754  0.00  0.00    +0.000 A 
ATOM      4  C   UNL     1       7.478   5.606  19.636  0.00  0.00    +0.000 A 
ATOM      5  N   UNL     1       6.278   4.999  19.438  0.00  0.00    +0.000 NA
ATOM      6  C   UNL     1       5.648   5.176  18.316  0.00  0.00    +0.000 A 
ATOM      7  N   UNL     1       6.150   5.999  17.298  0.00  0.00    +0.000 N 
ENDROOT
BRANCH   6   8
ATOM      8  C   UNL     1       4.305   4.505  18.206  0.00  0.00    +0.000 A 
ATOM      9  C   UNL     1       3.168   5.252  18.560  0.00  0.00    +0.000 A 
ATOM     10  C   UNL     1       1.885   4.701  18.440  0.00  0.00    +0.000 A 
ATOM     11  C   UNL     1       1.727   3.410  17.946  0.00  0.00    +0.000 A 
ATOM     12  C   UNL     1       2.849   2.648  17.633  0.00  0.00    +0.000 A 
ATOM     13  C   UNL     1       4.133   3.176  17.809  0.00  0.00    +0.000 A 
ENDBRANCH   6   8
BRANCH   4  14
ATOM     14  O   UNL     1       8.093   5.335  20.842  0.00  0.00    +0.000 OA
ATOM     15  H   UNL     1       8.774   4.657  20.703  0.00  0.00    +0.000 HD
ENDBRANCH   4  14
BRANCH   7  16
ATOM     16  C   UNL     1       5.498   6.271  16.007  0.00  0.00    +0.000 C 
BRANCH  16  17
ATOM     17  C   UNL     1       5.868   5.309  14.902  0.00  0.00    +0.000 A 
ATOM     18  C   UNL     1       7.136   5.347  14.309  0.00  0.00    +0.000 A 
ATOM     19  C   UNL     1       7.421   4.544  13.208  0.00  0.00    +0.000 A 
ATOM     20  C   UNL     1       6.456   3.672  12.710  0.00  0.00    +0.000 A 
ATOM     21  C   UNL     1       5.216   3.572  13.338  0.00  0.00    +0.000 A 
ATOM     22  C   UNL     1       4.928   4.373  14.443  0.00  0.00    +0.000 A 
ENDBRANCH  16  17
ENDBRANCH   7  16
TORSDOF 4
ENDMDL
MODEL 2
REMARK VINA RESULT:      -8.4      0.144      1.058
REMARK  Name = 
REMARK  4 active torsions:
REMARK  status: ('A' for Active; 'I' for Inactive)
REMARK    1  A    between atoms: C_4  and  O_5
REMARK    2  A    between atoms: C_7  and  C_8
REMARK    3  A    between atoms: N_14  and  C_15
REMARK    4  A    between atoms: C_15  and  C_16
REMARK                            x       y       z     vdW  Elec       q    Type
REMARK                         _______ _______ _______ _____ _____    ______ ____
ROOT
ATOM      1  O   UNL     1       7.775   7.541  16.739  0.00  0.00    +0.000 OA
ATOM      2  C   UNL     1       7.287   6.719  17.511  0.00  0.00    +0.000 A 
ATOM      3  C   UNL     1       7.995   6.458  18.766  0.00  0.00    +0.000 A 
ATOM      4  C   UNL     1       7.436   5.633  19.644  0.00  0.00    +0.000 A 
ATOM      5  N   UNL     1       6.246   5.010  19.441  0.00  0.00    +0.000 NA
ATOM      6  C   UNL     1       5.616   5.184  18.318  0.00  0.00    +0.000 A 
ATOM      7  N   UNL     1       6.110   6.017  17.304  0.00  0.00    +0.000 N 
ENDROOT
BRANCH   6   8
ATOM      8  C   UNL     1       4.282   4.494  18.202  0.00  0.00    +0.000 A 
ATOM      9  C   UNL     1       4.271   3.155  17.777  0.00  0.00    +0.000 A 
ATOM     10  C   UNL     1       3.067   2.443  17.689  0.00  0.00    +0.000 A 
ATOM     11  C   UNL     1       1.871   3.055  18.048  0.00  0.00    +0.000 A 
ATOM     12  C   UNL     1       1.867   4.394  18.430  0.00  0.00    +0.000 A 
ATOM     13  C   UNL     1       3.061   5.123  18.460  0.00  0.00    +0.000 A 
ENDBRANCH   6   8
BRANCH   4  14
ATOM     14  O   UNL     1       8.053   5.366  20.850  0.00  0.00    +0.000 OA
ATOM     15  H   UNL     1       7.416   5.514  21.568  0.00  0.00    +0.000 HD
ENDBRANCH   4  14
BRANCH   7  16
ATOM     16  C   UNL     1       5.457   6.285  16.012  0.00  0.00    +0.000 C 
BRANCH  16  17
ATOM     17  C   UNL     1       5.835   5.327  14.907  0.00  0.00    +0.000 A 
ATOM     18  C   UNL     1       7.107   5.369  14.321  0.00  0.00    +0.000 A 
ATOM     19  C   UNL     1       7.400   4.570  13.220  0.00  0.00    +0.000 A 
ATOM     20  C   UNL     1       6.440   3.697  12.715  0.00  0.00    +0.000 A 
ATOM     21  C   UNL     1       5.197   3.591  13.336  0.00  0.00    +0.000 A 
ATOM     22  C   UNL     1       4.901   4.389  14.441  0.00  0.00    +0.000 A 
ENDBRANCH  16  17
ENDBRANCH   7  16
TORSDOF 4
ENDMDL
MODEL 3
REMARK VINA RESULT:      -8.1      0.204      1.073
REMARK  Name = 
REMARK  4 active torsions:
REMARK  status: ('A' for Active; 'I' for Inactive)
REMARK    1  A    between atoms: C_4  and  O_5
REMARK    2  A    between atoms: C_7  and  C_8
REMARK    3  A    between atoms: N_14  and  C_15
REMARK    4  A    between atoms: C_15  and  C_16
REMARK                            x       y       z     vdW  Elec       q    Type
REMARK                         _______ _______ _______ _____ _____    ______ ____
ROOT
ATOM      1  O   UNL     1       7.787   7.691  16.949  0.00  0.00    +0.000 OA
ATOM      2  C   UNL     1       7.324   6.816  17.678  0.00  0.00    +0.000 A 
ATOM      3  C   UNL     1       8.060   6.490  18.902  0.00  0.00    +0.000 A 
ATOM      4  C   UNL     1       7.530   5.605  19.737  0.00  0.00    +0.000 A 
ATOM      5  N   UNL     1       6.344   4.979  19.518  0.00  0.00    +0.000 NA
ATOM      6  C   UNL     1       5.691   5.210  18.419  0.00  0.00    +0.000 A 
ATOM      7  N   UNL     1       6.153   6.111  17.449  0.00  0.00    +0.000 N 
ENDROOT
BRANCH   6   8
ATOM      8  C   UNL     1       4.364   4.510  18.286  0.00  0.00    +0.000 A 
ATOM      9  C   UNL     1       3.204   5.239  18.598  0.00  0.00    +0.000 A 
ATOM     10  C   UNL     1       1.936   4.660  18.455  0.00  0.00    +0.000 A 
ATOM     11  C   UNL     1       1.816   3.359  17.977  0.00  0.00    +0.000 A 
ATOM     12  C   UNL     1       2.962   2.615  17.707  0.00  0.00    +0.000 A 
ATOM     13  C   UNL     1       4.230   3.172  17.907  0.00  0.00    +0.000 A 
ENDBRANCH   6   8
BRANCH   4  14
ATOM     14  O   UNL     1       8.172   5.275  20.914  0.00  0.00    +0.000 OA
ATOM     15  H   UNL     1       8.844   5.948  21.105  0.00  0.00    +0.000 HD
ENDBRANCH   4  14
BRANCH   7  16
ATOM     16  C   UNL     1       5.472   6.447  16.189  0.00  0.00    +0.000 C 
BRANCH  16  17
ATOM     17  C   UNL     1       5.798   5.527  15.035  0.00  0.00    +0.000 A 
ATOM     18  C   UNL     1       4.872   4.574  14.591  0.00  0.00    +0.000 A 
ATOM     19  C   UNL     1       5.230   3.648  13.615  0.00  0.00    +0.000 A 
ATOM     20  C   UNL     1       6.502   3.686  13.049  0.00  0.00    +0.000 A 
ATOM     21  C   UNL     1       7.406   4.676  13.429  0.00  0.00    +0.000 A 
ATOM     22  C   UNL     1       7.050   5.606  14.406  0.00  0.00    +0.000 A 
ENDBRANCH  16  17
ENDBRANCH   7  16
TORSDOF 4
ENDMDL
MODEL 4
REMARK VINA RESULT:      -8.1      0.224      1.502
REMARK  Name = 
REMARK  4 active torsions:
REMARK  status: ('A' for Active; 'I' for Inactive)
REMARK    1  A    between atoms: C_4  and  O_5
REMARK    2  A    between atoms: C_7  and  C_8
REMARK    3  A    between atoms: N_14  and  C_15
REMARK    4  A    between atoms: C_15  and  C_16
REMARK                            x       y       z     vdW  Elec       q    Type
REMARK                         _______ _______ _______ _____ _____    ______ ____
ROOT
ATOM      1  O   UNL     1       7.798   7.653  16.924  0.00  0.00    +0.000 OA
ATOM      2  C   UNL     1       7.318   6.793  17.659  0.00  0.00    +0.000 A 
ATOM      3  C   UNL     1       8.043   6.464  18.888  0.00  0.00    +0.000 A 
ATOM      4  C   UNL     1       7.493   5.596  19.729  0.00  0.00    +0.000 A 
ATOM      5  N   UNL     1       6.297   4.990  19.511  0.00  0.00    +0.000 NA
ATOM      6  C   UNL     1       5.652   5.224  18.408  0.00  0.00    +0.000 A 
ATOM      7  N   UNL     1       6.135   6.107  17.432  0.00  0.00    +0.000 N 
ENDROOT
BRANCH   6   8
ATOM      8  C   UNL     1       4.313   4.547  18.276  0.00  0.00    +0.000 A 
ATOM      9  C   UNL     1       4.299   3.185  17.930  0.00  0.00    +0.000 A 
ATOM     10  C   UNL     1       3.090   2.485  17.833  0.00  0.00    +0.000 A 
ATOM     11  C   UNL     1       1.888   3.132  18.103  0.00  0.00    +0.000 A 
ATOM     12  C   UNL     1       1.889   4.492  18.406  0.00  0.00    +0.000 A 
ATOM     13  C   UNL     1       3.093   5.206  18.444  0.00  0.00    +0.000 A 
ENDBRANCH   6   8
BRANCH   4  14
ATOM     14  O   UNL     1       8.126   5.264  20.911  0.00  0.00    +0.000 OA
ATOM     15  H   UNL     1       8.342   6.079  21.392  0.00  0.00    +0.000 HD
ENDBRANCH   4  14
BRANCH   7  16
ATOM     16  C   UNL     1       5.464   6.445  16.166  0.00  0.00    +0.000 C 
BRANCH  16  17
ATOM     17  C   UNL     1       5.797   5.525  15.015  0.00  0.00    +0.000 A 
ATOM     18  C   UNL     1       4.874   4.574  14.562  0.00  0.00    +0.000 A 
ATOM     19  C   UNL     1       5.239   3.648  13.589  0.00  0.00    +0.000 A 
ATOM     20  C   UNL     1       6.515   3.684  13.034  0.00  0.00    +0.000 A 
ATOM     21  C   UNL     1       7.418   4.672  13.422  0.00  0.00    +0.000 A 
ATOM     22  C   UNL     1       7.055   5.602  14.396  0.00  0.00    +0.000 A 
ENDBRANCH  16  17
ENDBRANCH   7  16
TORSDOF 4
ENDMDL
MODEL 5
REMARK VINA RESULT:      -7.8      2.133      4.617
REMARK  Name = 
REMARK  4 active torsions:
REMARK  status: ('A' for Active; 'I' for Inactive)
REMARK    1  A    between atoms: C_4  and  O_5
REMARK    2  A    between atoms: C_7  and  C_8
REMARK    3  A    between atoms: N_14  and  C_15
REMARK    4  A    between atoms: C_15  and  C_16
REMARK                            x       y       z     vdW  Elec       q    Type
REMARK                         _______ _______ _______ _____ _____    ______ ____
ROOT
ATOM      1  O   UNL     1       7.602   6.370  16.607  0.00  0.00    +0.000 OA
ATOM      2  C   UNL     1       6.785   5.522  16.256  0.00  0.00    +0.000 A 
ATOM      3  C   UNL     1       6.973   4.895  14.946  0.00  0.00    +0.000 A 
ATOM      4  C   UNL     1       6.145   3.920  14.589  0.00  0.00    +0.000 A 
ATOM      5  N   UNL     1       5.127   3.474  15.371  0.00  0.00    +0.000 NA
ATOM      6  C   UNL     1       4.904   4.042  16.518  0.00  0.00    +0.000 A 
ATOM      7  N   UNL     1       5.697   5.093  17.000  0.00  0.00    +0.000 N 
ENDROOT
BRANCH   6   8
ATOM      8  C   UNL     1       3.787   3.448  17.336  0.00  0.00    +0.000 A 
ATOM      9  C   UNL     1       4.124   2.492  18.309  0.00  0.00    +0.000 A 
ATOM     10  C   UNL     1       3.138   1.932  19.132  0.00  0.00    +0.000 A 
ATOM     11  C   UNL     1       1.814   2.340  19.006  0.00  0.00    +0.000 A 
ATOM     12  C   UNL     1       1.464   3.255  18.017  0.00  0.00    +0.000 A 
ATOM     13  C   UNL     1       2.439   3.769  17.154  0.00  0.00    +0.000 A 
ENDBRANCH   6   8
BRANCH   4  14
ATOM     14  O   UNL     1       6.289   3.283  13.373  0.00  0.00    +0.000 OA
ATOM     15  H   UNL     1       5.562   2.650  13.262  0.00  0.00    +0.000 HD
ENDBRANCH   4  14
BRANCH   7  16
ATOM     16  C   UNL     1       5.528   5.780  18.290  0.00  0.00    +0.000 C 
BRANCH  16  17
ATOM     17  C   UNL     1       4.207   6.494  18.453  0.00  0.00    +0.000 A 
ATOM     18  C   UNL     1       3.791   7.460  17.529  0.00  0.00    +0.000 A 
ATOM     19  C   UNL     1       2.636   8.201  17.758  0.00  0.00    +0.000 A 
ATOM     20  C   UNL     1       1.866   7.961  18.894  0.00  0.00    +0.000 A 
ATOM     21  C   UNL     1       2.228   6.951  19.782  0.00  0.00    +0.000 A 
ATOM     22  C   UNL     1       3.385   6.205  19.554  0.00  0.00    +0.000 A 
ENDBRANCH  16  17
ENDBRANCH   7  16
TORSDOF 4
ENDMDL
MODEL 6
REMARK VINA RESULT:      -7.8      2.209      3.972
REMARK  Name = 
REMARK  4 active torsions:
REMARK  status: ('A' for Active; 'I' for Inactive)
REMARK    1  A    between atoms: C_4  and  O_5
REMARK    2  A    between atoms: C_7  and  C_8
REMARK    3  A    between atoms: N_14  and  C_15
REMARK    4  A    between atoms: C_15  and  C_16
REMARK                            x       y       z     vdW  Elec       q    Type
REMARK                         _______ _______ _______ _____ _____    ______ ____
ROOT
ATOM      1  O   UNL     1       6.830   4.259  15.832  0.00  0.00    +0.000 OA
ATOM      2  C   UNL     1       6.632   4.558  17.008  0.00  0.00    +0.000 A 
ATOM      3  C   UNL     1       7.802   4.782  17.859  0.00  0.00    +0.000 A 
ATOM      4  C   UNL     1       7.603   5.184  19.109  0.00  0.00    +0.000 A 
ATOM      5  N   UNL     1       6.372   5.394  19.646  0.00  0.00    +0.000 NA
ATOM      6  C   UNL     1       5.314   5.158  18.931  0.00  0.00    +0.000 A 
ATOM      7  N   UNL     1       5.391   4.713  17.603  0.00  0.00    +0.000 N 
ENDROOT
BRANCH   6   8
ATOM      8  C   UNL     1       3.996   5.466  19.592  0.00  0.00    +0.000 A 
ATOM      9  C   UNL     1       3.361   6.674  19.256  0.00  0.00    +0.000 A 
ATOM     10  C   UNL     1       2.113   7.002  19.802  0.00  0.00    +0.000 A 
ATOM     11  C   UNL     1       1.480   6.116  20.668  0.00  0.00    +0.000 A 
ATOM     12  C   UNL     1       2.120   4.937  21.039  0.00  0.00    +0.000 A 
ATOM     13  C   UNL     1       3.393   4.637  20.541  0.00  0.00    +0.000 A 
ENDBRANCH   6   8
BRANCH   4  14
ATOM     14  O   UNL     1       8.671   5.428  19.949  0.00  0.00    +0.000 OA
ATOM     15  H   UNL     1       9.300   4.692  19.880  0.00  0.00    +0.000 HD
ENDBRANCH   4  14
BRANCH   7  16
ATOM     16  C   UNL     1       4.248   4.439  16.717  0.00  0.00    +0.000 C 
BRANCH  16  17
ATOM     17  C   UNL     1       3.169   3.579  17.333  0.00  0.00    +0.000 A 
ATOM     18  C   UNL     1       1.850   4.038  17.430  0.00  0.00    +0.000 A 
ATOM     19  C   UNL     1       0.894   3.291  18.113  0.00  0.00    +0.000 A 
ATOM     20  C   UNL     1       1.238   2.064  18.675  0.00  0.00    +0.000 A 
ATOM     21  C   UNL     1       2.528   1.562  18.520  0.00  0.00    +0.000 A 
ATOM     22  C   UNL     1       3.487   2.307  17.835  0.00  0.00    +0.000 A 
ENDBRANCH  16  17
ENDBRANCH   7  16
TORSDOF 4
ENDMDL
MODEL 7
REMARK VINA RESULT:      -7.8      2.136      4.537
REMARK  Name = 
REMARK  4 active torsions:
REMARK  status: ('A' for Active; 'I' for Inactive)
REMARK    1  A    between atoms: C_4  and  O_5
REMARK    2  A    between atoms: C_7  and  C_8
REMARK    3  A    between atoms: N_14  and  C_15
REMARK    4  A    between atoms: C_15  and  C_16
REMARK                            x       y       z     vdW  Elec       q    Type
REMARK                         _______ _______ _______ _____ _____    ______ ____
ROOT
ATOM      1  O   UNL     1       7.585   6.421  16.509  0.00  0.00    +0.000 OA
ATOM      2  C   UNL     1       6.787   5.542  16.191  0.00  0.00    +0.000 A 
ATOM      3  C   UNL     1       6.962   4.903  14.885  0.00  0.00    +0.000 A 
ATOM      4  C   UNL     1       6.157   3.897  14.564  0.00  0.00    +0.000 A 
ATOM      5  N   UNL     1       5.174   3.429  15.378  0.00  0.00    +0.000 NA
ATOM      6  C   UNL     1       4.962   4.006  16.523  0.00  0.00    +0.000 A 
ATOM      7  N   UNL     1       5.733   5.089  16.969  0.00  0.00    +0.000 N 
ENDROOT
BRANCH   6   8
ATOM      8  C   UNL     1       3.887   3.390  17.377  0.00  0.00    +0.000 A 
ATOM      9  C   UNL     1       2.557   3.775  17.136  0.00  0.00    +0.000 A 
ATOM     10  C   UNL     1       1.504   3.207  17.866  0.00  0.00    +0.000 A 
ATOM     11  C   UNL     1       1.770   2.235  18.825  0.00  0.00    +0.000 A 
ATOM     12  C   UNL     1       3.087   1.878  19.101  0.00  0.00    +0.000 A 
ATOM     13  C   UNL     1       4.143   2.488  18.414  0.00  0.00    +0.000 A 
ENDBRANCH   6   8
BRANCH   4  14
ATOM     14  O   UNL     1       6.290   3.247  13.353  0.00  0.00    +0.000 OA
ATOM     15  H   UNL     1       6.390   2.295  13.516  0.00  0.00    +0.000 HD
ENDBRANCH   4  14
BRANCH   7  16
ATOM     16  C   UNL     1       5.576   5.789  18.254  0.00  0.00    +0.000 C 
BRANCH  16  17
ATOM     17  C   UNL     1       4.252   6.495  18.426  0.00  0.00    +0.000 A 
ATOM     18  C   UNL     1       3.827   7.462  17.506  0.00  0.00    +0.000 A 
ATOM     19  C   UNL     1       2.668   8.197  17.743  0.00  0.00    +0.000 A 
ATOM     20  C   UNL     1       1.905   7.949  18.882  0.00  0.00    +0.000 A 
ATOM     21  C   UNL     1       2.277   6.939  19.766  0.00  0.00    +0.000 A 
ATOM     22  C   UNL     1       3.437   6.200  19.530  0.00  0.00    +0.000 A 
ENDBRANCH  16  17
ENDBRANCH   7  16
TORSDOF 4
ENDMDL
MODEL 8
REMARK VINA RESULT:      -7.7      2.225      4.097
REMARK  Name = 
REMARK  4 active torsions:
REMARK  status: ('A' for Active; 'I' for Inactive)
REMARK    1  A    between atoms: C_4  and  O_5
REMARK    2  A    between atoms: C_7  and  C_8
REMARK    3  A    between atoms: N_14  and  C_15
REMARK    4  A    between atoms: C_15  and  C_16
REMARK                            x       y       z     vdW  Elec       q    Type
REMARK                         _______ _______ _______ _____ _____    ______ ____
ROOT
ATOM      1  O   UNL     1       6.801   4.098  15.858  0.00  0.00    +0.000 OA
ATOM      2  C   UNL     1       6.593   4.464  17.013  0.00  0.00    +0.000 A 
ATOM      3  C   UNL     1       7.754   4.706  17.871  0.00  0.00    +0.000 A 
ATOM      4  C   UNL     1       7.546   5.179  19.094  0.00  0.00    +0.000 A 
ATOM      5  N   UNL     1       6.312   5.445  19.599  0.00  0.00    +0.000 NA
ATOM      6  C   UNL     1       5.259   5.196  18.879  0.00  0.00    +0.000 A 
ATOM      7  N   UNL     1       5.346   4.680  17.579  0.00  0.00    +0.000 N 
ENDROOT
BRANCH   6   8
ATOM      8  C   UNL     1       3.939   5.569  19.501  0.00  0.00    +0.000 A 
ATOM      9  C   UNL     1       3.378   4.679  20.432  0.00  0.00    +0.000 A 
ATOM     10  C   UNL     1       2.174   4.986  21.079  0.00  0.00    +0.000 A 
ATOM     11  C   UNL     1       1.533   6.194  20.818  0.00  0.00    +0.000 A 
ATOM     12  C   UNL     1       2.059   7.063  19.865  0.00  0.00    +0.000 A 
ATOM     13  C   UNL     1       3.230   6.729  19.175  0.00  0.00    +0.000 A 
ENDBRANCH   6   8
BRANCH   4  14
ATOM     14  O   UNL     1       8.606   5.442  19.938  0.00  0.00    +0.000 OA
ATOM     15  H   UNL     1       8.461   4.980  20.779  0.00  0.00    +0.000 HD
ENDBRANCH   4  14
BRANCH   7  16
ATOM     16  C   UNL     1       4.211   4.385  16.690  0.00  0.00    +0.000 C 
BRANCH  16  17
ATOM     17  C   UNL     1       3.113   3.565  17.325  0.00  0.00    +0.000 A 
ATOM     18  C   UNL     1       1.805   4.059  17.417  0.00  0.00    +0.000 A 
ATOM     19  C   UNL     1       0.834   3.350  18.117  0.00  0.00    +0.000 A 
ATOM     20  C   UNL     1       1.148   2.125  18.702  0.00  0.00    +0.000 A 
ATOM     21  C   UNL     1       2.424   1.588  18.553  0.00  0.00    +0.000 A 
ATOM     22  C   UNL     1       3.400   2.295  17.851  0.00  0.00    +0.000 A 
ENDBRANCH  16  17
ENDBRANCH   7  16
TORSDOF 4
ENDMDL
MODEL 9
REMARK VINA RESULT:      -7.7      2.117      4.658
REMARK  Name = 
REMARK  4 active torsions:
REMARK  status: ('A' for Active; 'I' for Inactive)
REMARK    1  A    between atoms: C_4  and  O_5
REMARK    2  A    between atoms: C_7  and  C_8
REMARK    3  A    between atoms: N_14  and  C_15
REMARK    4  A    between atoms: C_15  and  C_16
REMARK                            x       y       z     vdW  Elec       q    Type
REMARK                         _______ _______ _______ _____ _____    ______ ____
ROOT
ATOM      1  O   UNL     1       7.669   6.205  16.635  0.00  0.00    +0.000 OA
ATOM      2  C   UNL     1       6.811   5.417  16.243  0.00  0.00    +0.000 A 
ATOM      3  C   UNL     1       6.963   4.857  14.899  0.00  0.00    +0.000 A 
ATOM      4  C   UNL     1       6.088   3.943  14.495  0.00  0.00    +0.000 A 
ATOM      5  N   UNL     1       5.053   3.502  15.258  0.00  0.00    +0.000 NA
ATOM      6  C   UNL     1       4.863   4.014  16.436  0.00  0.00    +0.000 A 
ATOM      7  N   UNL     1       5.707   4.998  16.970  0.00  0.00    +0.000 N 
ENDROOT
BRANCH   6   8
ATOM      8  C   UNL     1       3.724   3.429  17.228  0.00  0.00    +0.000 A 
ATOM      9  C   UNL     1       3.997   2.323  18.051  0.00  0.00    +0.000 A 
ATOM     10  C   UNL     1       2.992   1.757  18.846  0.00  0.00    +0.000 A 
ATOM     11  C   UNL     1       1.713   2.305  18.843  0.00  0.00    +0.000 A 
ATOM     12  C   UNL     1       1.422   3.374  17.999  0.00  0.00    +0.000 A 
ATOM     13  C   UNL     1       2.411   3.901  17.160  0.00  0.00    +0.000 A 
ENDBRANCH   6   8
BRANCH   4  14
ATOM     14  O   UNL     1       6.196   3.369  13.244  0.00  0.00    +0.000 OA
ATOM     15  H   UNL     1       6.253   4.073  12.579  0.00  0.00    +0.000 HD
ENDBRANCH   4  14
BRANCH   7  16
ATOM     16  C   UNL     1       5.578   5.619  18.298  0.00  0.00    +0.000 C 
BRANCH  16  17
ATOM     17  C   UNL     1       4.317   6.428  18.492  0.00  0.00    +0.000 A 
ATOM     18  C   UNL     1       3.479   6.203  19.592  0.00  0.00    +0.000 A 
ATOM     19  C   UNL     1       2.258   6.863  19.691  0.00  0.00    +0.000 A 
ATOM     20  C   UNL     1       1.877   7.780  18.714  0.00  0.00    +0.000 A 
ATOM     21  C   UNL     1       2.736   8.068  17.655  0.00  0.00    +0.000 A 
ATOM     22  C   UNL     1       3.961   7.409  17.553  0.00  0.00    +0.000 A 
ENDBRANCH  16  17
ENDBRANCH   7  16
TORSDOF 4
ENDMDL
