MODEL 1
REMARK VINA RESULT:      -7.7      0.000      0.000
REMARK  Name = 
REMARK  10 active torsions:
REMARK  status: ('A' for Active; 'I' for Inactive)
REMARK    1  A    between atoms: C_1  and  C_2
REMARK    2  A    between atoms: C_2  and  C_3
REMARK    3  A    between atoms: C_2  and  C_4
REMARK    4  A    between atoms: C_2  and  C_5
REMARK    5  A    between atoms: C_5  and  O_6
REMARK    6  A    between atoms: C_5  and  C_7
REMARK    7  A    between atoms: C_7  and  O_8
REMARK    8  A    between atoms: C_7  and  N_21
REMARK    9  A    between atoms: O_8  and  C_9
REMARK   10  A    between atoms: C_12  and  C_13
REMARK                            x       y       z     vdW  Elec       q    Type
REMARK                         _______ _______ _______ _____ _____    ______ ____
ROOT
ATOM      1  C   UNL     1       4.129   5.048  18.284  0.00  0.00    +0.000 C 
ENDROOT
BRANCH   1   2
ATOM      2  N   UNL     1       5.538   5.016  17.873  0.00  0.00    +0.000 N 
ATOM      3  C   UNL     1       6.082   5.448  16.706  0.00  0.00    +0.000 A 
ATOM      4  N   UNL     1       7.375   5.216  16.702  0.00  0.00    +0.000 NA
ATOM      5  C   UNL     1       7.578   4.623  17.918  0.00  0.00    +0.000 A 
ATOM      6  N   UNL     1       6.483   4.472  18.673  0.00  0.00    +0.000 NA
ENDBRANCH   1   2
BRANCH   1   7
ATOM      7  C   UNL     1       3.648   3.601  18.685  0.00  0.00    +0.000 C 
BRANCH   7   9
ATOM      8  C   UNL     1       1.785   1.840  18.499  0.00  0.00    +0.000 C 
ATOM      9  C   UNL     1       2.099   3.338  18.764  0.00  0.00    +0.000 C 
ATOM     10  C   UNL     1       1.342   4.120  17.670  0.00  0.00    +0.000 C 
ATOM     11  C   UNL     1       1.541   3.635  20.168  0.00  0.00    +0.000 C 
ENDBRANCH   7   9
BRANCH   7  12
ATOM     12  O   UNL     1       4.199   2.624  17.780  0.00  0.00    +0.000 OA
ATOM     13  H   UNL     1       4.472   1.835  18.282  0.00  0.00    +0.000 HD
ENDBRANCH   7  12
ENDBRANCH   1   7
BRANCH   1  14
ATOM     14  O   UNL     1       4.026   6.010  19.357  0.00  0.00    +0.000 OA
BRANCH  14  15
ATOM     15  C   UNL     1       3.124   7.020  19.134  0.00  0.00    +0.000 A 
ATOM     16  C   UNL     1       3.001   7.652  17.902  0.00  0.00    +0.000 A 
ATOM     17  C   UNL     1       2.087   8.689  17.712  0.00  0.00    +0.000 A 
ATOM     18  C   UNL     1       1.224   9.102  18.737  0.00  0.00    +0.000 A 
ATOM     19  C   UNL     1       1.299   8.390  19.950  0.00  0.00    +0.000 A 
ATOM     20  C   UNL     1       2.234   7.358  20.149  0.00  0.00    +0.000 A 
BRANCH  18  21
ATOM     21  C   UNL     1       0.293  10.241  18.534  0.00  0.00    +0.000 A 
ATOM     22  C   UNL     1       0.607  11.539  18.986  0.00  0.00    +0.000 A 
ATOM     23  C   UNL     1      -0.292  12.603  18.840  0.00  0.00    +0.000 A 
ATOM     24  C   UNL     1      -1.523  12.397  18.229  0.00  0.00    +0.000 A 
ATOM     25  C   UNL     1      -1.856  11.128  17.765  0.00  0.00    +0.000 A 
ATOM     26  C   UNL     1      -0.958  10.064  17.921  0.00  0.00    +0.000 A 
ENDBRANCH  18  21
ENDBRANCH  14  15
ENDBRANCH   1  14
TORSDOF 7
ENDMDL
MODEL 2
REMARK VINA RESULT:      -7.6      0.590      1.219
REMARK  Name = 
REMARK  10 active torsions:
REMARK  status: ('A' for Active; 'I' for Inactive)
REMARK    1  A    between atoms: C_1  and  C_2
REMARK    2  A    between atoms: C_2  and  C_3
REMARK    3  A    between atoms: C_2  and  C_4
REMARK    4  A    between atoms: C_2  and  C_5
REMARK    5  A    between atoms: C_5  and  O_6
REMARK    6  A    between atoms: C_5  and  C_7
REMARK    7  A    between atoms: C_7  and  O_8
REMARK    8  A    between atoms: C_7  and  N_21
REMARK    9  A    between atoms: O_8  and  C_9
REMARK   10  A    between atoms: C_12  and  C_13
REMARK                            x       y       z     vdW  Elec       q    Type
REMARK                         _______ _______ _______ _____ _____    ______ ____
ROOT
ATOM      1  C   UNL     1       4.033   4.998  18.540  0.00  0.00    +0.000 C 
ENDROOT
BRANCH   1   2
ATOM      2  N   UNL     1       5.455   4.852  18.206  0.00  0.00    +0.000 N 
ATOM      3  C   UNL     1       6.531   5.053  19.011  0.00  0.00    +0.000 A 
ATOM      4  N   UNL     1       7.639   4.853  18.335  0.00  0.00    +0.000 NA
ATOM      5  C   UNL     1       7.177   4.526  17.090  0.00  0.00    +0.000 A 
ATOM      6  N   UNL     1       5.846   4.516  16.956  0.00  0.00    +0.000 NA
ENDBRANCH   1   2
BRANCH   1   7
ATOM      7  C   UNL     1       3.438   3.610  18.992  0.00  0.00    +0.000 C 
BRANCH   7   9
ATOM      8  C   UNL     1       1.552   1.908  18.600  0.00  0.00    +0.000 C 
ATOM      9  C   UNL     1       1.884   3.401  18.867  0.00  0.00    +0.000 C 
ATOM     10  C   UNL     1       1.311   4.174  17.661  0.00  0.00    +0.000 C 
ATOM     11  C   UNL     1       1.153   3.759  20.173  0.00  0.00    +0.000 C 
ENDBRANCH   7   9
BRANCH   7  12
ATOM     12  O   UNL     1       4.070   2.536  18.268  0.00  0.00    +0.000 OA
ATOM     13  H   UNL     1       3.592   2.383  17.433  0.00  0.00    +0.000 HD
ENDBRANCH   7  12
ENDBRANCH   1   7
BRANCH   1  14
ATOM     14  O   UNL     1       3.943   6.024  19.554  0.00  0.00    +0.000 OA
BRANCH  14  15
ATOM     15  C   UNL     1       3.033   7.014  19.283  0.00  0.00    +0.000 A 
ATOM     16  C   UNL     1       2.899   7.580  18.020  0.00  0.00    +0.000 A 
ATOM     17  C   UNL     1       1.976   8.599  17.782  0.00  0.00    +0.000 A 
ATOM     18  C   UNL     1       1.116   9.060  18.788  0.00  0.00    +0.000 A 
ATOM     19  C   UNL     1       1.202   8.414  20.037  0.00  0.00    +0.000 A 
ATOM     20  C   UNL     1       2.146   7.400  20.284  0.00  0.00    +0.000 A 
BRANCH  18  21
ATOM     21  C   UNL     1       0.177  10.181  18.531  0.00  0.00    +0.000 A 
ATOM     22  C   UNL     1      -1.069   9.972  17.905  0.00  0.00    +0.000 A 
ATOM     23  C   UNL     1      -1.932  11.036  17.616  0.00  0.00    +0.000 A 
ATOM     24  C   UNL     1      -1.575  12.335  17.956  0.00  0.00    +0.000 A 
ATOM     25  C   UNL     1      -0.355  12.571  18.583  0.00  0.00    +0.000 A 
ATOM     26  C   UNL     1       0.510  11.505  18.861  0.00  0.00    +0.000 A 
ENDBRANCH  18  21
ENDBRANCH  14  15
ENDBRANCH   1  14
TORSDOF 7
ENDMDL
MODEL 3
REMARK VINA RESULT:      -7.6      0.605      1.522
REMARK  Name = 
REMARK  10 active torsions:
REMARK  status: ('A' for Active; 'I' for Inactive)
REMARK    1  A    between atoms: C_1  and  C_2
REMARK    2  A    between atoms: C_2  and  C_3
REMARK    3  A    between atoms: C_2  and  C_4
REMARK    4  A    between atoms: C_2  and  C_5
REMARK    5  A    between atoms: C_5  and  O_6
REMARK    6  A    between atoms: C_5  and  C_7
REMARK    7  A    between atoms: C_7  and  O_8
REMARK    8  A    between atoms: C_7  and  N_21
REMARK    9  A    between atoms: O_8  and  C_9
REMARK   10  A    between atoms: C_12  and  C_13
REMARK                            x       y       z     vdW  Elec       q    Type
REMARK                         _______ _______ _______ _____ _____    ______ ____
ROOT
ATOM      1  C   UNL     1       4.086   4.816  18.092  0.00  0.00    +0.000 C 
ENDROOT
BRANCH   1   2
ATOM      2  N   UNL     1       5.401   4.628  17.466  0.00  0.00    +0.000 N 
ATOM      3  C   UNL     1       6.628   4.776  18.031  0.00  0.00    +0.000 A 
ATOM      4  N   UNL     1       7.563   4.551  17.135  0.00  0.00    +0.000 NA
ATOM      5  C   UNL     1       6.839   4.265  16.010  0.00  0.00    +0.000 A 
ATOM      6  N   UNL     1       5.509   4.303  16.158  0.00  0.00    +0.000 NA
ENDBRANCH   1   2
BRANCH   1   7
ATOM      7  C   UNL     1       3.584   3.459  18.716  0.00  0.00    +0.000 C 
BRANCH   7   9
ATOM      8  C   UNL     1       1.274   4.081  17.775  0.00  0.00    +0.000 C 
ATOM      9  C   UNL     1       2.032   3.236  18.835  0.00  0.00    +0.000 C 
ATOM     10  C   UNL     1       1.501   3.714  20.203  0.00  0.00    +0.000 C 
ATOM     11  C   UNL     1       1.642   1.774  18.552  0.00  0.00    +0.000 C 
ENDBRANCH   7   9
BRANCH   7  12
ATOM     12  O   UNL     1       4.118   2.343  17.976  0.00  0.00    +0.000 OA
ATOM     13  H   UNL     1       4.476   2.658  17.126  0.00  0.00    +0.000 HD
ENDBRANCH   7  12
ENDBRANCH   1   7
BRANCH   1  14
ATOM     14  O   UNL     1       4.230   5.880  19.059  0.00  0.00    +0.000 OA
BRANCH  14  15
ATOM     15  C   UNL     1       3.325   6.902  18.923  0.00  0.00    +0.000 A 
ATOM     16  C   UNL     1       3.189   7.625  17.744  0.00  0.00    +0.000 A 
ATOM     17  C   UNL     1       2.271   8.672  17.643  0.00  0.00    +0.000 A 
ATOM     18  C   UNL     1       1.418   9.004  18.705  0.00  0.00    +0.000 A 
ATOM     19  C   UNL     1       1.506   8.202  19.860  0.00  0.00    +0.000 A 
ATOM     20  C   UNL     1       2.446   7.160  19.969  0.00  0.00    +0.000 A 
BRANCH  18  21
ATOM     21  C   UNL     1       0.484  10.154  18.599  0.00  0.00    +0.000 A 
ATOM     22  C   UNL     1      -0.799  10.013  18.032  0.00  0.00    +0.000 A 
ATOM     23  C   UNL     1      -1.660  11.108  17.886  0.00  0.00    +0.000 A 
ATOM     24  C   UNL     1      -1.262  12.369  18.311  0.00  0.00    +0.000 A 
ATOM     25  C   UNL     1      -0.003  12.537  18.882  0.00  0.00    +0.000 A 
ATOM     26  C   UNL     1       0.859  11.441  19.018  0.00  0.00    +0.000 A 
ENDBRANCH  18  21
ENDBRANCH  14  15
ENDBRANCH   1  14
TORSDOF 7
ENDMDL
MODEL 4
REMARK VINA RESULT:      -7.6      0.583      1.227
REMARK  Name = 
REMARK  10 active torsions:
REMARK  status: ('A' for Active; 'I' for Inactive)
REMARK    1  A    between atoms: C_1  and  C_2
REMARK    2  A    between atoms: C_2  and  C_3
REMARK    3  A    between atoms: C_2  and  C_4
REMARK    4  A    between atoms: C_2  and  C_5
REMARK    5  A    between atoms: C_5  and  O_6
REMARK    6  A    between atoms: C_5  and  C_7
REMARK    7  A    between atoms: C_7  and  O_8
REMARK    8  A    between atoms: C_7  and  N_21
REMARK    9  A    between atoms: O_8  and  C_9
REMARK   10  A    between atoms: C_12  and  C_13
REMARK                            x       y       z     vdW  Elec       q    Type
REMARK                         _______ _______ _______ _____ _____    ______ ____
ROOT
ATOM      1  C   UNL     1       4.083   4.946  18.205  0.00  0.00    +0.000 C 
ENDROOT
BRANCH   1   2
ATOM      2  N   UNL     1       5.435   4.772  17.658  0.00  0.00    +0.000 N 
ATOM      3  C   UNL     1       6.624   4.971  18.284  0.00  0.00    +0.000 A 
ATOM      4  N   UNL     1       7.612   4.742  17.449  0.00  0.00    +0.000 NA
ATOM      5  C   UNL     1       6.959   4.400  16.296  0.00  0.00    +0.000 A 
ATOM      6  N   UNL     1       5.623   4.408  16.370  0.00  0.00    +0.000 NA
ENDBRANCH   1   2
BRANCH   1   7
ATOM      7  C   UNL     1       3.562   3.584  18.805  0.00  0.00    +0.000 C 
BRANCH   7   9
ATOM      8  C   UNL     1       1.665   1.854  18.694  0.00  0.00    +0.000 C 
ATOM      9  C   UNL     1       2.007   3.358  18.871  0.00  0.00    +0.000 C 
ATOM     10  C   UNL     1       1.285   4.086  17.718  0.00  0.00    +0.000 C 
ATOM     11  C   UNL     1       1.431   3.753  20.244  0.00  0.00    +0.000 C 
ENDBRANCH   7   9
BRANCH   7  12
ATOM     12  O   UNL     1       4.122   2.473  18.078  0.00  0.00    +0.000 OA
ATOM     13  H   UNL     1       3.402   1.942  17.691  0.00  0.00    +0.000 HD
ENDBRANCH   7  12
ENDBRANCH   1   7
BRANCH   1  14
ATOM     14  O   UNL     1       4.156   6.015  19.174  0.00  0.00    +0.000 OA
BRANCH  14  15
ATOM     15  C   UNL     1       3.209   6.995  19.015  0.00  0.00    +0.000 A 
ATOM     16  C   UNL     1       2.352   7.378  20.041  0.00  0.00    +0.000 A 
ATOM     17  C   UNL     1       1.387   8.366  19.842  0.00  0.00    +0.000 A 
ATOM     18  C   UNL     1       1.275   9.046  18.621  0.00  0.00    +0.000 A 
ATOM     19  C   UNL     1       2.210   8.709  17.623  0.00  0.00    +0.000 A 
ATOM     20  C   UNL     1       3.170   7.699  17.816  0.00  0.00    +0.000 A 
BRANCH  18  21
ATOM     21  C   UNL     1       0.208  10.058  18.410  0.00  0.00    +0.000 A 
ATOM     22  C   UNL     1       0.294  11.348  18.969  0.00  0.00    +0.000 A 
ATOM     23  C   UNL     1      -0.735  12.285  18.813  0.00  0.00    +0.000 A 
ATOM     24  C   UNL     1      -1.871  11.957  18.084  0.00  0.00    +0.000 A 
ATOM     25  C   UNL     1      -1.981  10.692  17.513  0.00  0.00    +0.000 A 
ATOM     26  C   UNL     1      -0.954   9.755  17.680  0.00  0.00    +0.000 A 
ENDBRANCH  18  21
ENDBRANCH  14  15
ENDBRANCH   1  14
TORSDOF 7
ENDMDL
MODEL 5
REMARK VINA RESULT:      -7.6      0.845      1.643
REMARK  Name = 
REMARK  10 active torsions:
REMARK  status: ('A' for Active; 'I' for Inactive)
REMARK    1  A    between atoms: C_1  and  C_2
REMARK    2  A    between atoms: C_2  and  C_3
REMARK    3  A    between atoms: C_2  and  C_4
REMARK    4  A    between atoms: C_2  and  C_5
REMARK    5  A    between atoms: C_5  and  O_6
REMARK    6  A    between atoms: C_5  and  C_7
REMARK    7  A    between atoms: C_7  and  O_8
REMARK    8  A    between atoms: C_7  and  N_21
REMARK    9  A    between atoms: O_8  and  C_9
REMARK   10  A    between atoms: C_12  and  C_13
REMARK                            x       y       z     vdW  Elec       q    Type
REMARK                         _______ _______ _______ _____ _____    ______ ____
ROOT
ATOM      1  C   UNL     1       4.075   4.912  17.830  0.00  0.00    +0.000 C 
ENDROOT
BRANCH   1   2
ATOM      2  N   UNL     1       5.337   4.679  17.115  0.00  0.00    +0.000 N 
ATOM      3  C   UNL     1       6.604   4.864  17.569  0.00  0.00    +0.000 A 
ATOM      4  N   UNL     1       7.465   4.576  16.618  0.00  0.00    +0.000 NA
ATOM      5  C   UNL     1       6.655   4.215  15.577  0.00  0.00    +0.000 A 
ATOM      6  N   UNL     1       5.341   4.266  15.828  0.00  0.00    +0.000 NA
ENDBRANCH   1   2
BRANCH   1   7
ATOM      7  C   UNL     1       3.591   3.581  18.522  0.00  0.00    +0.000 C 
BRANCH   7   9
ATOM      8  C   UNL     1       1.533   3.748  20.052  0.00  0.00    +0.000 C 
ATOM      9  C   UNL     1       2.042   3.339  18.643  0.00  0.00    +0.000 C 
ATOM     10  C   UNL     1       1.695   1.842  18.496  0.00  0.00    +0.000 C 
ATOM     11  C   UNL     1       1.249   4.208  17.650  0.00  0.00    +0.000 C 
ENDBRANCH   7   9
BRANCH   7  12
ATOM     12  O   UNL     1       4.148   2.437  17.845  0.00  0.00    +0.000 OA
ATOM     13  H   UNL     1       3.467   2.033  17.276  0.00  0.00    +0.000 HD
ENDBRANCH   7  12
ENDBRANCH   1   7
BRANCH   1  14
ATOM     14  O   UNL     1       4.313   5.993  18.760  0.00  0.00    +0.000 OA
BRANCH  14  15
ATOM     15  C   UNL     1       3.319   6.938  18.802  0.00  0.00    +0.000 A 
ATOM     16  C   UNL     1       2.529   7.140  19.927  0.00  0.00    +0.000 A 
ATOM     17  C   UNL     1       1.513   8.097  19.933  0.00  0.00    +0.000 A 
ATOM     18  C   UNL     1       1.281   8.926  18.826  0.00  0.00    +0.000 A 
ATOM     19  C   UNL     1       2.150   8.770  17.728  0.00  0.00    +0.000 A 
ATOM     20  C   UNL     1       3.160   7.791  17.714  0.00  0.00    +0.000 A 
BRANCH  18  21
ATOM     21  C   UNL     1       0.163   9.903  18.829  0.00  0.00    +0.000 A 
ATOM     22  C   UNL     1      -0.055  10.771  19.918  0.00  0.00    +0.000 A 
ATOM     23  C   UNL     1      -1.140  11.657  19.943  0.00  0.00    +0.000 A 
ATOM     24  C   UNL     1      -2.028  11.702  18.875  0.00  0.00    +0.000 A 
ATOM     25  C   UNL     1      -1.833  10.862  17.782  0.00  0.00    +0.000 A 
ATOM     26  C   UNL     1      -0.752   9.971  17.765  0.00  0.00    +0.000 A 
ENDBRANCH  18  21
ENDBRANCH  14  15
ENDBRANCH   1  14
TORSDOF 7
ENDMDL
MODEL 6
REMARK VINA RESULT:      -7.5      0.531      1.405
REMARK  Name = 
REMARK  10 active torsions:
REMARK  status: ('A' for Active; 'I' for Inactive)
REMARK    1  A    between atoms: C_1  and  C_2
REMARK    2  A    between atoms: C_2  and  C_3
REMARK    3  A    between atoms: C_2  and  C_4
REMARK    4  A    between atoms: C_2  and  C_5
REMARK    5  A    between atoms: C_5  and  O_6
REMARK    6  A    between atoms: C_5  and  C_7
REMARK    7  A    between atoms: C_7  and  O_8
REMARK    8  A    between atoms: C_7  and  N_21
REMARK    9  A    between atoms: O_8  and  C_9
REMARK   10  A    between atoms: C_12  and  C_13
REMARK                            x       y       z     vdW  Elec       q    Type
REMARK                         _______ _______ _______ _____ _____    ______ ____
ROOT
ATOM      1  C   UNL     1       3.987   5.286  18.485  0.00  0.00    +0.000 C 
ENDROOT
BRANCH   1   2
ATOM      2  N   UNL     1       5.413   5.280  18.132  0.00  0.00    +0.000 N 
ATOM      3  C   UNL     1       6.004   5.790  17.020  0.00  0.00    +0.000 A 
ATOM      4  N   UNL     1       7.297   5.556  17.054  0.00  0.00    +0.000 NA
ATOM      5  C   UNL     1       7.450   4.882  18.235  0.00  0.00    +0.000 A 
ATOM      6  N   UNL     1       6.325   4.682  18.932  0.00  0.00    +0.000 NA
ENDBRANCH   1   2
BRANCH   1   7
ATOM      7  C   UNL     1       3.516   3.830  18.862  0.00  0.00    +0.000 C 
BRANCH   7   9
ATOM      8  C   UNL     1       1.203   3.909  19.979  0.00  0.00    +0.000 C 
ATOM      9  C   UNL     1       1.989   3.489  18.707  0.00  0.00    +0.000 C 
ATOM     10  C   UNL     1       1.765   1.969  18.564  0.00  0.00    +0.000 C 
ATOM     11  C   UNL     1       1.344   4.271  17.548  0.00  0.00    +0.000 C 
ENDBRANCH   7   9
BRANCH   7  12
ATOM     12  O   UNL     1       4.249   2.854  18.093  0.00  0.00    +0.000 OA
ATOM     13  H   UNL     1       3.659   2.114  17.863  0.00  0.00    +0.000 HD
ENDBRANCH   7  12
ENDBRANCH   1   7
BRANCH   1  14
ATOM     14  O   UNL     1       3.824   6.242  19.556  0.00  0.00    +0.000 OA
BRANCH  14  15
ATOM     15  C   UNL     1       2.860   7.192  19.331  0.00  0.00    +0.000 A 
ATOM     16  C   UNL     1       2.054   7.692  20.347  0.00  0.00    +0.000 A 
ATOM     17  C   UNL     1       1.068   8.645  20.083  0.00  0.00    +0.000 A 
ATOM     18  C   UNL     1       0.884   9.171  18.796  0.00  0.00    +0.000 A 
ATOM     19  C   UNL     1       1.769   8.720  17.797  0.00  0.00    +0.000 A 
ATOM     20  C   UNL     1       2.749   7.745  18.059  0.00  0.00    +0.000 A 
BRANCH  18  21
ATOM     21  C   UNL     1      -0.203  10.144  18.522  0.00  0.00    +0.000 A 
ATOM     22  C   UNL     1      -0.389  11.289  19.324  0.00  0.00    +0.000 A 
ATOM     23  C   UNL     1      -1.445  12.180  19.097  0.00  0.00    +0.000 A 
ATOM     24  C   UNL     1      -2.336  11.953  18.056  0.00  0.00    +0.000 A 
ATOM     25  C   UNL     1      -2.173  10.836  17.242  0.00  0.00    +0.000 A 
ATOM     26  C   UNL     1      -1.121   9.942  17.479  0.00  0.00    +0.000 A 
ENDBRANCH  18  21
ENDBRANCH  14  15
ENDBRANCH   1  14
TORSDOF 7
ENDMDL
MODEL 7
REMARK VINA RESULT:      -7.5      0.728      1.812
REMARK  Name = 
REMARK  10 active torsions:
REMARK  status: ('A' for Active; 'I' for Inactive)
REMARK    1  A    between atoms: C_1  and  C_2
REMARK    2  A    between atoms: C_2  and  C_3
REMARK    3  A    between atoms: C_2  and  C_4
REMARK    4  A    between atoms: C_2  and  C_5
REMARK    5  A    between atoms: C_5  and  O_6
REMARK    6  A    between atoms: C_5  and  C_7
REMARK    7  A    between atoms: C_7  and  O_8
REMARK    8  A    between atoms: C_7  and  N_21
REMARK    9  A    between atoms: O_8  and  C_9
REMARK   10  A    between atoms: C_12  and  C_13
REMARK                            x       y       z     vdW  Elec       q    Type
REMARK                         _______ _______ _______ _____ _____    ______ ____
ROOT
ATOM      1  C   UNL     1       4.060   4.942  17.959  0.00  0.00    +0.000 C 
ENDROOT
BRANCH   1   2
ATOM      2  N   UNL     1       5.344   4.712  17.286  0.00  0.00    +0.000 N 
ATOM      3  C   UNL     1       6.596   4.898  17.782  0.00  0.00    +0.000 A 
ATOM      4  N   UNL     1       7.488   4.613  16.861  0.00  0.00    +0.000 NA
ATOM      5  C   UNL     1       6.714   4.251  15.793  0.00  0.00    +0.000 A 
ATOM      6  N   UNL     1       5.392   4.299  16.000  0.00  0.00    +0.000 NA
ENDBRANCH   1   2
BRANCH   1   7
ATOM      7  C   UNL     1       3.563   3.614  18.648  0.00  0.00    +0.000 C 
BRANCH   7   9
ATOM      8  C   UNL     1       1.263   4.196  17.659  0.00  0.00    +0.000 C 
ATOM      9  C   UNL     1       2.012   3.371  18.741  0.00  0.00    +0.000 C 
ATOM     10  C   UNL     1       1.449   3.854  20.094  0.00  0.00    +0.000 C 
ATOM     11  C   UNL     1       1.647   1.901  18.464  0.00  0.00    +0.000 C 
ENDBRANCH   7   9
BRANCH   7  12
ATOM     12  O   UNL     1       4.134   2.467  17.988  0.00  0.00    +0.000 OA
ATOM     13  H   UNL     1       3.863   2.463  17.052  0.00  0.00    +0.000 HD
ENDBRANCH   7  12
ENDBRANCH   1   7
BRANCH   1  14
ATOM     14  O   UNL     1       4.260   6.034  18.884  0.00  0.00    +0.000 OA
BRANCH  14  15
ATOM     15  C   UNL     1       3.267   6.981  18.873  0.00  0.00    +0.000 A 
ATOM     16  C   UNL     1       2.468   7.237  19.982  0.00  0.00    +0.000 A 
ATOM     17  C   UNL     1       1.454   8.194  19.933  0.00  0.00    +0.000 A 
ATOM     18  C   UNL     1       1.231   8.969  18.786  0.00  0.00    +0.000 A 
ATOM     19  C   UNL     1       2.109   8.760  17.703  0.00  0.00    +0.000 A 
ATOM     20  C   UNL     1       3.118   7.781  17.745  0.00  0.00    +0.000 A 
BRANCH  18  21
ATOM     21  C   UNL     1       0.114   9.946  18.733  0.00  0.00    +0.000 A 
ATOM     22  C   UNL     1      -0.855   9.904  17.711  0.00  0.00    +0.000 A 
ATOM     23  C   UNL     1      -1.879  10.856  17.632  0.00  0.00    +0.000 A 
ATOM     24  C   UNL     1      -1.965  11.868  18.581  0.00  0.00    +0.000 A 
ATOM     25  C   UNL     1      -1.026  11.929  19.607  0.00  0.00    +0.000 A 
ATOM     26  C   UNL     1       0.002  10.981  19.677  0.00  0.00    +0.000 A 
ENDBRANCH  18  21
ENDBRANCH  14  15
ENDBRANCH   1  14
TORSDOF 7
ENDMDL
MODEL 8
REMARK VINA RESULT:      -7.5      2.287      4.029
REMARK  Name = 
REMARK  10 active torsions:
REMARK  status: ('A' for Active; 'I' for Inactive)
REMARK    1  A    between atoms: C_1  and  C_2
REMARK    2  A    between atoms: C_2  and  C_3
REMARK    3  A    between atoms: C_2  and  C_4
REMARK    4  A    between atoms: C_2  and  C_5
REMARK    5  A    between atoms: C_5  and  O_6
REMARK    6  A    between atoms: C_5  and  C_7
REMARK    7  A    between atoms: C_7  and  O_8
REMARK    8  A    between atoms: C_7  and  N_21
REMARK    9  A    between atoms: O_8  and  C_9
REMARK   10  A    between atoms: C_12  and  C_13
REMARK                            x       y       z     vdW  Elec       q    Type
REMARK                         _______ _______ _______ _____ _____    ______ ____
ROOT
ATOM      1  C   UNL     1       3.724   5.169  18.465  0.00  0.00    +0.000 C 
ENDROOT
BRANCH   1   2
ATOM      2  N   UNL     1       2.737   4.092  18.613  0.00  0.00    +0.000 N 
ATOM      3  C   UNL     1       1.720   3.766  17.773  0.00  0.00    +0.000 A 
ATOM      4  N   UNL     1       1.034   2.762  18.271  0.00  0.00    +0.000 NA
ATOM      5  C   UNL     1       1.685   2.505  19.446  0.00  0.00    +0.000 A 
ATOM      6  N   UNL     1       2.734   3.296  19.705  0.00  0.00    +0.000 NA
ENDBRANCH   1   2
BRANCH   1   7
ATOM      7  C   UNL     1       5.001   4.634  17.710  0.00  0.00    +0.000 C 
BRANCH   7   9
ATOM      8  C   UNL     1       7.539   4.597  17.312  0.00  0.00    +0.000 C 
ATOM      9  C   UNL     1       6.361   5.387  17.943  0.00  0.00    +0.000 C 
ATOM     10  C   UNL     1       6.693   5.494  19.447  0.00  0.00    +0.000 C 
ATOM     11  C   UNL     1       6.375   6.766  17.258  0.00  0.00    +0.000 C 
ENDBRANCH   7   9
BRANCH   7  12
ATOM     12  O   UNL     1       5.223   3.246  18.030  0.00  0.00    +0.000 OA
ATOM     13  H   UNL     1       5.046   3.099  18.977  0.00  0.00    +0.000 HD
ENDBRANCH   7  12
ENDBRANCH   1   7
BRANCH   1  14
ATOM     14  O   UNL     1       3.061   6.256  17.782  0.00  0.00    +0.000 OA
BRANCH  14  15
ATOM     15  C   UNL     1       2.419   7.142  18.608  0.00  0.00    +0.000 A 
ATOM     16  C   UNL     1       2.246   6.905  19.967  0.00  0.00    +0.000 A 
ATOM     17  C   UNL     1       1.571   7.819  20.779  0.00  0.00    +0.000 A 
ATOM     18  C   UNL     1       1.085   9.031  20.270  0.00  0.00    +0.000 A 
ATOM     19  C   UNL     1       1.348   9.296  18.911  0.00  0.00    +0.000 A 
ATOM     20  C   UNL     1       2.010   8.367  18.089  0.00  0.00    +0.000 A 
BRANCH  18  21
ATOM     21  C   UNL     1       0.323   9.967  21.135  0.00  0.00    +0.000 A 
ATOM     22  C   UNL     1       0.198  11.334  20.812  0.00  0.00    +0.000 A 
ATOM     23  C   UNL     1      -0.477  12.227  21.654  0.00  0.00    +0.000 A 
ATOM     24  C   UNL     1      -1.051  11.773  22.835  0.00  0.00    +0.000 A 
ATOM     25  C   UNL     1      -0.951  10.427  23.175  0.00  0.00    +0.000 A 
ATOM     26  C   UNL     1      -0.267   9.539  22.335  0.00  0.00    +0.000 A 
ENDBRANCH  18  21
ENDBRANCH  14  15
ENDBRANCH   1  14
TORSDOF 7
ENDMDL
MODEL 9
REMARK VINA RESULT:      -7.4      2.231      4.073
REMARK  Name = 
REMARK  10 active torsions:
REMARK  status: ('A' for Active; 'I' for Inactive)
REMARK    1  A    between atoms: C_1  and  C_2
REMARK    2  A    between atoms: C_2  and  C_3
REMARK    3  A    between atoms: C_2  and  C_4
REMARK    4  A    between atoms: C_2  and  C_5
REMARK    5  A    between atoms: C_5  and  O_6
REMARK    6  A    between atoms: C_5  and  C_7
REMARK    7  A    between atoms: C_7  and  O_8
REMARK    8  A    between atoms: C_7  and  N_21
REMARK    9  A    between atoms: O_8  and  C_9
REMARK   10  A    between atoms: C_12  and  C_13
REMARK                            x       y       z     vdW  Elec       q    Type
REMARK                         _______ _______ _______ _____ _____    ______ ____
ROOT
ATOM      1  C   UNL     1       3.864   5.176  18.240  0.00  0.00    +0.000 C 
ENDROOT
BRANCH   1   2
ATOM      2  N   UNL     1       3.048   3.975  18.458  0.00  0.00    +0.000 N 
ATOM      3  C   UNL     1       2.946   3.223  19.586  0.00  0.00    +0.000 A 
ATOM      4  N   UNL     1       2.139   2.208  19.375  0.00  0.00    +0.000 NA
ATOM      5  C   UNL     1       1.766   2.386  18.071  0.00  0.00    +0.000 A 
ATOM      6  N   UNL     1       2.299   3.451  17.461  0.00  0.00    +0.000 NA
ENDBRANCH   1   2
BRANCH   1   7
ATOM      7  C   UNL     1       5.142   4.815  17.390  0.00  0.00    +0.000 C 
BRANCH   7   9
ATOM      8  C   UNL     1       6.597   5.491  19.398  0.00  0.00    +0.000 C 
ATOM      9  C   UNL     1       6.522   5.415  17.849  0.00  0.00    +0.000 C 
ATOM     10  C   UNL     1       6.694   6.866  17.353  0.00  0.00    +0.000 C 
ATOM     11  C   UNL     1       7.702   4.522  17.422  0.00  0.00    +0.000 C 
ENDBRANCH   7   9
BRANCH   7  12
ATOM     12  O   UNL     1       5.304   3.385  17.317  0.00  0.00    +0.000 OA
ATOM     13  H   UNL     1       5.513   3.036  18.202  0.00  0.00    +0.000 HD
ENDBRANCH   7  12
ENDBRANCH   1   7
BRANCH   1  14
ATOM     14  O   UNL     1       3.009   6.156  17.611  0.00  0.00    +0.000 OA
BRANCH  14  15
ATOM     15  C   UNL     1       2.406   7.029  18.481  0.00  0.00    +0.000 A 
ATOM     16  C   UNL     1       2.259   6.751  19.835  0.00  0.00    +0.000 A 
ATOM     17  C   UNL     1       1.624   7.653  20.691  0.00  0.00    +0.000 A 
ATOM     18  C   UNL     1       1.155   8.892  20.232  0.00  0.00    +0.000 A 
ATOM     19  C   UNL     1       1.394   9.196  18.877  0.00  0.00    +0.000 A 
ATOM     20  C   UNL     1       2.015   8.279  18.010  0.00  0.00    +0.000 A 
BRANCH  18  21
ATOM     21  C   UNL     1       0.436   9.817  21.145  0.00  0.00    +0.000 A 
ATOM     22  C   UNL     1      -0.112   9.372  22.365  0.00  0.00    +0.000 A 
ATOM     23  C   UNL     1      -0.834  10.232  23.201  0.00  0.00    +0.000 A 
ATOM     24  C   UNL     1      -1.018  11.562  22.843  0.00  0.00    +0.000 A 
ATOM     25  C   UNL     1      -0.481  12.032  21.647  0.00  0.00    +0.000 A 
ATOM     26  C   UNL     1       0.232  11.166  20.809  0.00  0.00    +0.000 A 
ENDBRANCH  18  21
ENDBRANCH  14  15
ENDBRANCH   1  14
TORSDOF 7
ENDMDL
