MODEL 1
REMARK VINA RESULT:      -7.5      0.000      0.000
REMARK  Name = 
REMARK  8 active torsions:
REMARK  status: ('A' for Active; 'I' for Inactive)
REMARK    1  A    between atoms: C_1  and  O_2
REMARK    2  A    between atoms: O_2  and  C_3
REMARK    3  A    between atoms: C_6  and  C_7
REMARK    4  A    between atoms: C_7  and  N_8
REMARK    5  A    between atoms: C_9  and  C_11
REMARK    6  A    between atoms: C_22  and  C_23
REMARK    7  A    between atoms: C_25  and  O_26
REMARK    8  A    between atoms: O_26  and  C_27
REMARK                            x       y       z     vdW  Elec       q    Type
REMARK                         _______ _______ _______ _____ _____    ______ ____
ROOT
ATOM      1  N   UNL     1       8.064   8.731  17.989  0.00  0.00    +0.000 N 
ATOM      2  C   UNL     1       7.925   7.425  18.376  0.00  0.00    +0.000 C 
ATOM      3  O   UNL     1       8.723   6.862  19.120  0.00  0.00    +0.000 OA
ATOM      4  H   UNL     1       7.434   9.146  17.322  0.00  0.00    +0.000 HD
ENDROOT
BRANCH   2   5
ATOM      5  C   UNL     1       6.802   6.646  17.772  0.00  0.00    +0.000 A 
ATOM      6  C   UNL     1       5.876   7.389  17.015  0.00  0.00    +0.000 A 
ATOM      7  C   UNL     1       4.548   6.984  16.898  0.00  0.00    +0.000 A 
ATOM      8  C   UNL     1       4.260   5.786  17.548  0.00  0.00    +0.000 A 
ATOM      9  C   UNL     1       5.216   4.868  17.957  0.00  0.00    +0.000 A 
ATOM     10  C   UNL     1       6.532   5.311  18.129  0.00  0.00    +0.000 A 
ATOM     11  N   UNL     1       4.596   3.683  18.294  0.00  0.00    +0.000 NA
ATOM     12  C   UNL     1       3.305   3.974  18.306  0.00  0.00    +0.000 A 
ATOM     13  N   UNL     1       3.175   5.354  18.289  0.00  0.00    +0.000 N 
ATOM     14  C   UNL     1       2.902   5.965  19.606  0.00  0.00    +0.000 C 
ATOM     15  C   UNL     1       2.063   5.100  20.573  0.00  0.00    +0.000 C 
ATOM     16  C   UNL     1       2.223   3.567  20.407  0.00  0.00    +0.000 C 
ATOM     17  C   UNL     1       1.151   2.803  21.174  0.00  0.00    +0.000 C 
ATOM     18  C   UNL     1       2.204   3.194  18.920  0.00  0.00    +0.000 C 
ENDBRANCH   2   5
BRANCH   1  19
ATOM     19  C   UNL     1       9.152   9.573  18.454  0.00  0.00    +0.000 C 
BRANCH  19  23
ATOM     20  C   UNL     1       8.336  13.786  17.986  0.00  0.00    +0.000 A 
ATOM     21  C   UNL     1       7.626  12.857  17.230  0.00  0.00    +0.000 A 
ATOM     22  C   UNL     1       7.864  11.500  17.400  0.00  0.00    +0.000 A 
ATOM     23  C   UNL     1       8.825  11.042  18.319  0.00  0.00    +0.000 A 
ATOM     24  C   UNL     1       9.486  11.984  19.133  0.00  0.00    +0.000 A 
ATOM     25  C   UNL     1       9.238  13.349  18.949  0.00  0.00    +0.000 A 
BRANCH  20  27
ATOM     26  C   UNL     1       7.188  15.706  18.692  0.00  0.00    +0.000 C 
ATOM     27  O   UNL     1       8.047  15.097  17.732  0.00  0.00    +0.000 OA
ENDBRANCH  20  27
BRANCH  24  28
ATOM     28  O   UNL     1      10.372  11.487  20.051  0.00  0.00    +0.000 OA
ATOM     29  C   UNL     1      11.721  11.939  19.960  0.00  0.00    +0.000 C 
ENDBRANCH  24  28
ENDBRANCH  19  23
ENDBRANCH   1  19
TORSDOF 5
ENDMDL
MODEL 2
REMARK VINA RESULT:      -7.4      6.651      9.710
REMARK  Name = 
REMARK  8 active torsions:
REMARK  status: ('A' for Active; 'I' for Inactive)
REMARK    1  A    between atoms: C_1  and  O_2
REMARK    2  A    between atoms: O_2  and  C_3
REMARK    3  A    between atoms: C_6  and  C_7
REMARK    4  A    between atoms: C_7  and  N_8
REMARK    5  A    between atoms: C_9  and  C_11
REMARK    6  A    between atoms: C_22  and  C_23
REMARK    7  A    between atoms: C_25  and  O_26
REMARK    8  A    between atoms: O_26  and  C_27
REMARK                            x       y       z     vdW  Elec       q    Type
REMARK                         _______ _______ _______ _____ _____    ______ ____
ROOT
ATOM      1  N   UNL     1       1.632   8.436  19.375  0.00  0.00    +0.000 N 
ATOM      2  C   UNL     1       0.812   9.532  19.405  0.00  0.00    +0.000 C 
ATOM      3  O   UNL     1       0.305  10.014  18.395  0.00  0.00    +0.000 OA
ATOM      4  H   UNL     1       2.089   8.107  20.208  0.00  0.00    +0.000 HD
ENDROOT
BRANCH   2   5
ATOM      5  C   UNL     1       0.623  10.213  20.722  0.00  0.00    +0.000 A 
ATOM      6  C   UNL     1       0.077   9.421  21.750  0.00  0.00    +0.000 A 
ATOM      7  C   UNL     1      -0.678   9.988  22.775  0.00  0.00    +0.000 A 
ATOM      8  C   UNL     1      -0.788  11.374  22.699  0.00  0.00    +0.000 A 
ATOM      9  C   UNL     1       0.042  12.185  21.940  0.00  0.00    +0.000 A 
ATOM     10  C   UNL     1       0.742  11.607  20.875  0.00  0.00    +0.000 A 
ATOM     11  N   UNL     1      -0.144  13.501  22.309  0.00  0.00    +0.000 NA
ATOM     12  C   UNL     1      -1.212  13.481  23.089  0.00  0.00    +0.000 A 
ATOM     13  N   UNL     1      -1.832  12.250  22.939  0.00  0.00    +0.000 N 
ATOM     14  C   UNL     1      -3.002  12.254  22.037  0.00  0.00    +0.000 C 
ATOM     15  C   UNL     1      -3.822  13.564  22.026  0.00  0.00    +0.000 C 
ATOM     16  C   UNL     1      -3.019  14.857  22.320  0.00  0.00    +0.000 C 
ATOM     17  C   UNL     1      -3.939  16.041  22.592  0.00  0.00    +0.000 C 
ATOM     18  C   UNL     1      -2.062  14.626  23.495  0.00  0.00    +0.000 C 
ENDBRANCH   2   5
BRANCH   1  19
ATOM     19  C   UNL     1       1.946   7.728  18.146  0.00  0.00    +0.000 C 
BRANCH  19  23
ATOM     20  C   UNL     1       5.446   5.223  18.465  0.00  0.00    +0.000 A 
ATOM     21  C   UNL     1       5.412   6.244  17.520  0.00  0.00    +0.000 A 
ATOM     22  C   UNL     1       4.300   7.072  17.435  0.00  0.00    +0.000 A 
ATOM     23  C   UNL     1       3.194   6.888  18.284  0.00  0.00    +0.000 A 
ATOM     24  C   UNL     1       3.267   5.901  19.287  0.00  0.00    +0.000 A 
ATOM     25  C   UNL     1       4.393   5.073  19.359  0.00  0.00    +0.000 A 
BRANCH  20  27
ATOM     26  C   UNL     1       7.353   4.561  17.270  0.00  0.00    +0.000 C 
ATOM     27  O   UNL     1       6.573   4.449  18.457  0.00  0.00    +0.000 OA
ENDBRANCH  20  27
BRANCH  24  28
ATOM     28  O   UNL     1       2.189   5.797  20.125  0.00  0.00    +0.000 OA
ATOM     29  C   UNL     1       2.047   4.577  20.849  0.00  0.00    +0.000 C 
ENDBRANCH  24  28
ENDBRANCH  19  23
ENDBRANCH   1  19
TORSDOF 5
ENDMDL
MODEL 3
REMARK VINA RESULT:      -7.4      5.637      8.540
REMARK  Name = 
REMARK  8 active torsions:
REMARK  status: ('A' for Active; 'I' for Inactive)
REMARK    1  A    between atoms: C_1  and  O_2
REMARK    2  A    between atoms: O_2  and  C_3
REMARK    3  A    between atoms: C_6  and  C_7
REMARK    4  A    between atoms: C_7  and  N_8
REMARK    5  A    between atoms: C_9  and  C_11
REMARK    6  A    between atoms: C_22  and  C_23
REMARK    7  A    between atoms: C_25  and  O_26
REMARK    8  A    between atoms: O_26  and  C_27
REMARK                            x       y       z     vdW  Elec       q    Type
REMARK                         _______ _______ _______ _____ _____    ______ ____
ROOT
ATOM      1  N   UNL     1       3.490   6.160  19.856  0.00  0.00    +0.000 N 
ATOM      2  C   UNL     1       2.197   6.416  20.226  0.00  0.00    +0.000 C 
ATOM      3  O   UNL     1       1.385   5.526  20.468  0.00  0.00    +0.000 OA
ATOM      4  H   UNL     1       4.114   6.906  19.596  0.00  0.00    +0.000 HD
ENDROOT
BRANCH   2   5
ATOM      5  C   UNL     1       1.754   7.842  20.232  0.00  0.00    +0.000 A 
ATOM      6  C   UNL     1       1.081   8.272  21.392  0.00  0.00    +0.000 A 
ATOM      7  C   UNL     1       0.136   9.295  21.341  0.00  0.00    +0.000 A 
ATOM      8  C   UNL     1      -0.029   9.854  20.076  0.00  0.00    +0.000 A 
ATOM      9  C   UNL     1       0.877   9.716  19.035  0.00  0.00    +0.000 A 
ATOM     10  C   UNL     1       1.776   8.644  19.075  0.00  0.00    +0.000 A 
ATOM     11  N   UNL     1       0.566  10.615  18.037  0.00  0.00    +0.000 NA
ATOM     12  C   UNL     1      -0.617  11.098  18.380  0.00  0.00    +0.000 A 
ATOM     13  N   UNL     1      -1.140  10.289  19.376  0.00  0.00    +0.000 N 
ATOM     14  C   UNL     1      -2.138   9.305  18.910  0.00  0.00    +0.000 C 
ATOM     15  C   UNL     1      -3.009   9.762  17.718  0.00  0.00    +0.000 C 
ATOM     16  C   UNL     1      -2.333  10.757  16.741  0.00  0.00    +0.000 C 
ATOM     17  C   UNL     1      -3.343  11.384  15.787  0.00  0.00    +0.000 C 
ATOM     18  C   UNL     1      -1.579  11.836  17.527  0.00  0.00    +0.000 C 
ENDBRANCH   2   5
BRANCH   1  19
ATOM     19  C   UNL     1       4.021   4.812  19.749  0.00  0.00    +0.000 C 
BRANCH  19  23
ATOM     20  C   UNL     1       6.256   4.395  16.080  0.00  0.00    +0.000 A 
ATOM     21  C   UNL     1       6.921   4.714  17.260  0.00  0.00    +0.000 A 
ATOM     22  C   UNL     1       6.210   4.819  18.448  0.00  0.00    +0.000 A 
ATOM     23  C   UNL     1       4.818   4.620  18.480  0.00  0.00    +0.000 A 
ATOM     24  C   UNL     1       4.164   4.225  17.296  0.00  0.00    +0.000 A 
ATOM     25  C   UNL     1       4.893   4.125  16.105  0.00  0.00    +0.000 A 
BRANCH  20  27
ATOM     26  C   UNL     1       6.329   4.013  13.766  0.00  0.00    +0.000 C 
ATOM     27  O   UNL     1       7.037   4.336  14.960  0.00  0.00    +0.000 OA
ENDBRANCH  20  27
BRANCH  24  28
ATOM     28  O   UNL     1       2.818   3.988  17.388  0.00  0.00    +0.000 OA
ATOM     29  C   UNL     1       2.407   2.629  17.514  0.00  0.00    +0.000 C 
ENDBRANCH  24  28
ENDBRANCH  19  23
ENDBRANCH   1  19
TORSDOF 5
ENDMDL
MODEL 4
REMARK VINA RESULT:      -7.4      5.875      9.729
REMARK  Name = 
REMARK  8 active torsions:
REMARK  status: ('A' for Active; 'I' for Inactive)
REMARK    1  A    between atoms: C_1  and  O_2
REMARK    2  A    between atoms: O_2  and  C_3
REMARK    3  A    between atoms: C_6  and  C_7
REMARK    4  A    between atoms: C_7  and  N_8
REMARK    5  A    between atoms: C_9  and  C_11
REMARK    6  A    between atoms: C_22  and  C_23
REMARK    7  A    between atoms: C_25  and  O_26
REMARK    8  A    between atoms: O_26  and  C_27
REMARK                            x       y       z     vdW  Elec       q    Type
REMARK                         _______ _______ _______ _____ _____    ______ ____
ROOT
ATOM      1  N   UNL     1       2.112   8.169  18.588  0.00  0.00    +0.000 N 
ATOM      2  C   UNL     1       1.641   9.434  18.355  0.00  0.00    +0.000 C 
ATOM      3  O   UNL     1       2.144  10.191  17.530  0.00  0.00    +0.000 OA
ATOM      4  H   UNL     1       1.724   7.596  19.320  0.00  0.00    +0.000 HD
ENDROOT
BRANCH   2   5
ATOM      5  C   UNL     1       0.530   9.924  19.227  0.00  0.00    +0.000 A 
ATOM      6  C   UNL     1      -0.679  10.223  18.570  0.00  0.00    +0.000 A 
ATOM      7  C   UNL     1      -1.552  11.187  19.071  0.00  0.00    +0.000 A 
ATOM      8  C   UNL     1      -1.137  11.764  20.268  0.00  0.00    +0.000 A 
ATOM      9  C   UNL     1      -0.174  11.220  21.107  0.00  0.00    +0.000 A 
ATOM     10  C   UNL     1       0.734  10.302  20.567  0.00  0.00    +0.000 A 
ATOM     11  N   UNL     1      -0.208  11.870  22.322  0.00  0.00    +0.000 NA
ATOM     12  C   UNL     1      -1.001  12.911  22.122  0.00  0.00    +0.000 A 
ATOM     13  N   UNL     1      -1.181  13.058  20.756  0.00  0.00    +0.000 N 
ATOM     14  C   UNL     1      -0.343  14.101  20.131  0.00  0.00    +0.000 C 
ATOM     15  C   UNL     1      -0.030  15.321  21.028  0.00  0.00    +0.000 C 
ATOM     16  C   UNL     1       0.032  15.032  22.550  0.00  0.00    +0.000 C 
ATOM     17  C   UNL     1       0.037  16.318  23.367  0.00  0.00    +0.000 C 
ATOM     18  C   UNL     1      -1.134  14.125  22.962  0.00  0.00    +0.000 C 
ENDBRANCH   2   5
BRANCH   1  19
ATOM     19  C   UNL     1       3.229   7.603  17.853  0.00  0.00    +0.000 C 
BRANCH  19  23
ATOM     20  C   UNL     1       2.983   3.299  17.645  0.00  0.00    +0.000 A 
ATOM     21  C   UNL     1       1.847   4.040  17.956  0.00  0.00    +0.000 A 
ATOM     22  C   UNL     1       1.915   5.427  17.994  0.00  0.00    +0.000 A 
ATOM     23  C   UNL     1       3.122   6.101  17.734  0.00  0.00    +0.000 A 
ATOM     24  C   UNL     1       4.248   5.347  17.347  0.00  0.00    +0.000 A 
ATOM     25  C   UNL     1       4.165   3.950  17.316  0.00  0.00    +0.000 A 
BRANCH  20  27
ATOM     26  C   UNL     1       3.718   1.250  18.520  0.00  0.00    +0.000 C 
ATOM     27  O   UNL     1       2.822   1.942  17.654  0.00  0.00    +0.000 OA
ENDBRANCH  20  27
BRANCH  24  28
ATOM     28  O   UNL     1       5.385   6.050  17.049  0.00  0.00    +0.000 OA
ATOM     29  C   UNL     1       6.566   5.705  17.768  0.00  0.00    +0.000 C 
ENDBRANCH  24  28
ENDBRANCH  19  23
ENDBRANCH   1  19
TORSDOF 5
ENDMDL
MODEL 5
REMARK VINA RESULT:      -7.3      4.949      8.093
REMARK  Name = 
REMARK  8 active torsions:
REMARK  status: ('A' for Active; 'I' for Inactive)
REMARK    1  A    between atoms: C_1  and  O_2
REMARK    2  A    between atoms: O_2  and  C_3
REMARK    3  A    between atoms: C_6  and  C_7
REMARK    4  A    between atoms: C_7  and  N_8
REMARK    5  A    between atoms: C_9  and  C_11
REMARK    6  A    between atoms: C_22  and  C_23
REMARK    7  A    between atoms: C_25  and  O_26
REMARK    8  A    between atoms: O_26  and  C_27
REMARK                            x       y       z     vdW  Elec       q    Type
REMARK                         _______ _______ _______ _____ _____    ______ ____
ROOT
ATOM      1  N   UNL     1       3.440   6.236  19.702  0.00  0.00    +0.000 N 
ATOM      2  C   UNL     1       2.184   6.466  20.197  0.00  0.00    +0.000 C 
ATOM      3  O   UNL     1       1.416   5.561  20.511  0.00  0.00    +0.000 OA
ATOM      4  H   UNL     1       4.021   6.996  19.386  0.00  0.00    +0.000 HD
ENDROOT
BRANCH   2   5
ATOM      5  C   UNL     1       1.717   7.885  20.254  0.00  0.00    +0.000 A 
ATOM      6  C   UNL     1       1.024   8.257  21.421  0.00  0.00    +0.000 A 
ATOM      7  C   UNL     1       0.063   9.266  21.399  0.00  0.00    +0.000 A 
ATOM      8  C   UNL     1      -0.096   9.872  20.156  0.00  0.00    +0.000 A 
ATOM      9  C   UNL     1       0.824   9.790  19.121  0.00  0.00    +0.000 A 
ATOM     10  C   UNL     1       1.740   8.731  19.129  0.00  0.00    +0.000 A 
ATOM     11  N   UNL     1       0.509  10.723  18.155  0.00  0.00    +0.000 NA
ATOM     12  C   UNL     1      -0.686  11.173  18.503  0.00  0.00    +0.000 A 
ATOM     13  N   UNL     1      -1.207  10.316  19.459  0.00  0.00    +0.000 N 
ATOM     14  C   UNL     1      -2.183   9.335  18.944  0.00  0.00    +0.000 C 
ATOM     15  C   UNL     1      -3.048   9.825  17.760  0.00  0.00    +0.000 C 
ATOM     16  C   UNL     1      -2.377  10.869  16.831  0.00  0.00    +0.000 C 
ATOM     17  C   UNL     1      -3.386  11.517  15.891  0.00  0.00    +0.000 C 
ATOM     18  C   UNL     1      -1.650  11.928  17.668  0.00  0.00    +0.000 C 
ENDBRANCH   2   5
BRANCH   1  19
ATOM     19  C   UNL     1       3.983   4.900  19.536  0.00  0.00    +0.000 C 
BRANCH  19  23
ATOM     20  C   UNL     1       6.363   4.419  15.968  0.00  0.00    +0.000 A 
ATOM     21  C   UNL     1       5.006   4.111  15.938  0.00  0.00    +0.000 A 
ATOM     22  C   UNL     1       4.230   4.293  17.076  0.00  0.00    +0.000 A 
ATOM     23  C   UNL     1       4.797   4.775  18.269  0.00  0.00    +0.000 A 
ATOM     24  C   UNL     1       6.154   5.155  18.269  0.00  0.00    +0.000 A 
ATOM     25  C   UNL     1       6.924   4.963  17.116  0.00  0.00    +0.000 A 
BRANCH  20  27
ATOM     26  C   UNL     1       6.224   3.783  13.713  0.00  0.00    +0.000 C 
ATOM     27  O   UNL     1       7.045   4.185  14.807  0.00  0.00    +0.000 OA
ENDBRANCH  20  27
BRANCH  24  28
ATOM     28  O   UNL     1       6.647   5.671  19.438  0.00  0.00    +0.000 OA
ATOM     29  C   UNL     1       8.065   5.712  19.581  0.00  0.00    +0.000 C 
ENDBRANCH  24  28
ENDBRANCH  19  23
ENDBRANCH   1  19
TORSDOF 5
ENDMDL
MODEL 6
REMARK VINA RESULT:      -7.3      6.054      9.388
REMARK  Name = 
REMARK  8 active torsions:
REMARK  status: ('A' for Active; 'I' for Inactive)
REMARK    1  A    between atoms: C_1  and  O_2
REMARK    2  A    between atoms: O_2  and  C_3
REMARK    3  A    between atoms: C_6  and  C_7
REMARK    4  A    between atoms: C_7  and  N_8
REMARK    5  A    between atoms: C_9  and  C_11
REMARK    6  A    between atoms: C_22  and  C_23
REMARK    7  A    between atoms: C_25  and  O_26
REMARK    8  A    between atoms: O_26  and  C_27
REMARK                            x       y       z     vdW  Elec       q    Type
REMARK                         _______ _______ _______ _____ _____    ______ ____
ROOT
ATOM      1  N   UNL     1       1.905   8.403  18.171  0.00  0.00    +0.000 N 
ATOM      2  C   UNL     1       1.548   9.718  18.307  0.00  0.00    +0.000 C 
ATOM      3  O   UNL     1       2.263  10.644  17.936  0.00  0.00    +0.000 OA
ATOM      4  H   UNL     1       1.331   7.667  18.547  0.00  0.00    +0.000 HD
ENDROOT
BRANCH   2   5
ATOM      5  C   UNL     1       0.274  10.012  19.031  0.00  0.00    +0.000 A 
ATOM      6  C   UNL     1      -0.786  10.491  18.239  0.00  0.00    +0.000 A 
ATOM      7  C   UNL     1      -1.764  11.328  18.773  0.00  0.00    +0.000 A 
ATOM      8  C   UNL     1      -1.610  11.590  20.132  0.00  0.00    +0.000 A 
ATOM      9  C   UNL     1      -0.821  10.836  20.989  0.00  0.00    +0.000 A 
ATOM     10  C   UNL     1       0.198  10.051  20.437  0.00  0.00    +0.000 A 
ATOM     11  N   UNL     1      -1.112  11.175  22.294  0.00  0.00    +0.000 NA
ATOM     12  C   UNL     1      -1.873  12.253  22.196  0.00  0.00    +0.000 A 
ATOM     13  N   UNL     1      -1.781  12.729  20.898  0.00  0.00    +0.000 N 
ATOM     14  C   UNL     1      -0.860  13.871  20.722  0.00  0.00    +0.000 C 
ATOM     15  C   UNL     1      -0.762  14.831  21.930  0.00  0.00    +0.000 C 
ATOM     16  C   UNL     1      -0.997  14.182  23.318  0.00  0.00    +0.000 C 
ATOM     17  C   UNL     1      -1.186  15.234  24.405  0.00  0.00    +0.000 C 
ATOM     18  C   UNL     1      -2.200  13.234  23.259  0.00  0.00    +0.000 C 
ENDBRANCH   2   5
BRANCH   1  19
ATOM     19  C   UNL     1       3.148   7.991  17.544  0.00  0.00    +0.000 C 
BRANCH  19  23
ATOM     20  C   UNL     1       4.103   3.888  18.484  0.00  0.00    +0.000 A 
ATOM     21  C   UNL     1       2.776   4.308  18.498  0.00  0.00    +0.000 A 
ATOM     22  C   UNL     1       2.462   5.620  18.166  0.00  0.00    +0.000 A 
ATOM     23  C   UNL     1       3.468   6.541  17.826  0.00  0.00    +0.000 A 
ATOM     24  C   UNL     1       4.800   6.089  17.743  0.00  0.00    +0.000 A 
ATOM     25  C   UNL     1       5.102   4.765  18.083  0.00  0.00    +0.000 A 
BRANCH  20  27
ATOM     26  C   UNL     1       3.255   1.700  18.489  0.00  0.00    +0.000 C 
ATOM     27  O   UNL     1       4.313   2.587  18.846  0.00  0.00    +0.000 OA
ENDBRANCH  20  27
BRANCH  24  28
ATOM     28  O   UNL     1       5.738   7.009  17.354  0.00  0.00    +0.000 OA
ATOM     29  C   UNL     1       7.106   6.665  17.556  0.00  0.00    +0.000 C 
ENDBRANCH  24  28
ENDBRANCH  19  23
ENDBRANCH   1  19
TORSDOF 5
ENDMDL
MODEL 7
REMARK VINA RESULT:      -7.3      5.715     10.330
REMARK  Name = 
REMARK  8 active torsions:
REMARK  status: ('A' for Active; 'I' for Inactive)
REMARK    1  A    between atoms: C_1  and  O_2
REMARK    2  A    between atoms: O_2  and  C_3
REMARK    3  A    between atoms: C_6  and  C_7
REMARK    4  A    between atoms: C_7  and  N_8
REMARK    5  A    between atoms: C_9  and  C_11
REMARK    6  A    between atoms: C_22  and  C_23
REMARK    7  A    between atoms: C_25  and  O_26
REMARK    8  A    between atoms: O_26  and  C_27
REMARK                            x       y       z     vdW  Elec       q    Type
REMARK                         _______ _______ _______ _____ _____    ______ ____
ROOT
ATOM      1  N   UNL     1       1.183   8.364  20.525  0.00  0.00    +0.000 N 
ATOM      2  C   UNL     1       0.385   9.182  21.280  0.00  0.00    +0.000 C 
ATOM      3  O   UNL     1       0.181   8.994  22.476  0.00  0.00    +0.000 OA
ATOM      4  H   UNL     1       1.276   8.501  19.532  0.00  0.00    +0.000 HD
ENDROOT
BRANCH   2   5
ATOM      5  C   UNL     1      -0.335  10.283  20.571  0.00  0.00    +0.000 A 
ATOM      6  C   UNL     1      -0.613  10.059  19.210  0.00  0.00    +0.000 A 
ATOM      7  C   UNL     1      -0.717  11.118  18.310  0.00  0.00    +0.000 A 
ATOM      8  C   UNL     1      -0.569  12.375  18.892  0.00  0.00    +0.000 A 
ATOM      9  C   UNL     1      -0.682  12.626  20.252  0.00  0.00    +0.000 A 
ATOM     10  C   UNL     1      -0.511  11.559  21.141  0.00  0.00    +0.000 A 
ATOM     11  N   UNL     1      -0.772  13.986  20.458  0.00  0.00    +0.000 NA
ATOM     12  C   UNL     1      -0.485  14.522  19.283  0.00  0.00    +0.000 A 
ATOM     13  N   UNL     1       0.066  13.534  18.482  0.00  0.00    +0.000 N 
ATOM     14  C   UNL     1       1.540  13.564  18.391  0.00  0.00    +0.000 C 
ATOM     15  C   UNL     1       2.177  14.969  18.470  0.00  0.00    +0.000 C 
ATOM     16  C   UNL     1       1.394  16.010  19.311  0.00  0.00    +0.000 C 
ATOM     17  C   UNL     1       1.918  17.424  19.086  0.00  0.00    +0.000 C 
ATOM     18  C   UNL     1      -0.103  15.925  18.993  0.00  0.00    +0.000 C 
ENDBRANCH   2   5
BRANCH   1  19
ATOM     19  C   UNL     1       1.884   7.222  21.085  0.00  0.00    +0.000 C 
BRANCH  19  23
ATOM     20  C   UNL     1       1.855   3.764  18.503  0.00  0.00    +0.000 A 
ATOM     21  C   UNL     1       1.271   3.688  19.764  0.00  0.00    +0.000 A 
ATOM     22  C   UNL     1       1.251   4.807  20.585  0.00  0.00    +0.000 A 
ATOM     23  C   UNL     1       1.826   6.022  20.169  0.00  0.00    +0.000 A 
ATOM     24  C   UNL     1       2.348   6.111  18.863  0.00  0.00    +0.000 A 
ATOM     25  C   UNL     1       2.363   4.974  18.047  0.00  0.00    +0.000 A 
BRANCH  20  27
ATOM     26  C   UNL     1       3.059   1.861  17.842  0.00  0.00    +0.000 C 
ATOM     27  O   UNL     1       1.845   2.605  17.778  0.00  0.00    +0.000 OA
ENDBRANCH  20  27
BRANCH  24  28
ATOM     28  O   UNL     1       2.845   7.329  18.483  0.00  0.00    +0.000 OA
ATOM     29  C   UNL     1       3.851   7.331  17.472  0.00  0.00    +0.000 C 
ENDBRANCH  24  28
ENDBRANCH  19  23
ENDBRANCH   1  19
TORSDOF 5
ENDMDL
MODEL 8
REMARK VINA RESULT:      -7.2      6.770     10.051
REMARK  Name = 
REMARK  8 active torsions:
REMARK  status: ('A' for Active; 'I' for Inactive)
REMARK    1  A    between atoms: C_1  and  O_2
REMARK    2  A    between atoms: O_2  and  C_3
REMARK    3  A    between atoms: C_6  and  C_7
REMARK    4  A    between atoms: C_7  and  N_8
REMARK    5  A    between atoms: C_9  and  C_11
REMARK    6  A    between atoms: C_22  and  C_23
REMARK    7  A    between atoms: C_25  and  O_26
REMARK    8  A    between atoms: O_26  and  C_27
REMARK                            x       y       z     vdW  Elec       q    Type
REMARK                         _______ _______ _______ _____ _____    ______ ____
ROOT
ATOM      1  N   UNL     1       1.416   8.403  19.475  0.00  0.00    +0.000 N 
ATOM      2  C   UNL     1       0.861   9.537  20.006  0.00  0.00    +0.000 C 
ATOM      3  O   UNL     1       0.999   9.858  21.184  0.00  0.00    +0.000 OA
ATOM      4  H   UNL     1       1.228   8.128  18.525  0.00  0.00    +0.000 HD
ENDROOT
BRANCH   2   5
ATOM      5  C   UNL     1      -0.028  10.346  19.119  0.00  0.00    +0.000 A 
ATOM      6  C   UNL     1       0.275  11.718  19.033  0.00  0.00    +0.000 A 
ATOM      7  C   UNL     1      -0.716  12.662  18.770  0.00  0.00    +0.000 A 
ATOM      8  C   UNL     1      -1.981  12.116  18.564  0.00  0.00    +0.000 A 
ATOM      9  C   UNL     1      -2.218  10.782  18.266  0.00  0.00    +0.000 A 
ATOM     10  C   UNL     1      -1.234   9.842  18.597  0.00  0.00    +0.000 A 
ATOM     11  N   UNL     1      -3.522  10.634  17.842  0.00  0.00    +0.000 NA
ATOM     12  C   UNL     1      -4.092  11.798  18.106  0.00  0.00    +0.000 A 
ATOM     13  N   UNL     1      -3.251  12.509  18.947  0.00  0.00    +0.000 N 
ATOM     14  C   UNL     1      -3.627  12.470  20.375  0.00  0.00    +0.000 C 
ATOM     15  C   UNL     1      -5.144  12.385  20.655  0.00  0.00    +0.000 C 
ATOM     16  C   UNL     1      -5.983  11.657  19.574  0.00  0.00    +0.000 C 
ATOM     17  C   UNL     1      -7.476  11.886  19.772  0.00  0.00    +0.000 C 
ATOM     18  C   UNL     1      -5.541  12.104  18.175  0.00  0.00    +0.000 C 
ENDBRANCH   2   5
BRANCH   1  19
ATOM     19  C   UNL     1       2.244   7.500  20.254  0.00  0.00    +0.000 C 
BRANCH  19  23
ATOM     20  C   UNL     1       2.240   3.445  18.774  0.00  0.00    +0.000 A 
ATOM     21  C   UNL     1       1.547   3.754  19.941  0.00  0.00    +0.000 A 
ATOM     22  C   UNL     1       1.520   5.063  20.403  0.00  0.00    +0.000 A 
ATOM     23  C   UNL     1       2.196   6.088  19.717  0.00  0.00    +0.000 A 
ATOM     24  C   UNL     1       2.833   5.780  18.498  0.00  0.00    +0.000 A 
ATOM     25  C   UNL     1       2.853   4.456  18.045  0.00  0.00    +0.000 A 
BRANCH  20  27
ATOM     26  C   UNL     1       3.505   1.498  18.433  0.00  0.00    +0.000 C 
ATOM     27  O   UNL     1       2.226   2.127  18.412  0.00  0.00    +0.000 OA
ENDBRANCH  20  27
BRANCH  24  28
ATOM     28  O   UNL     1       3.430   6.821  17.837  0.00  0.00    +0.000 OA
ATOM     29  C   UNL     1       4.552   6.508  17.016  0.00  0.00    +0.000 C 
ENDBRANCH  24  28
ENDBRANCH  19  23
ENDBRANCH   1  19
TORSDOF 5
ENDMDL
MODEL 9
REMARK VINA RESULT:      -7.2      5.349      9.994
REMARK  Name = 
REMARK  8 active torsions:
REMARK  status: ('A' for Active; 'I' for Inactive)
REMARK    1  A    between atoms: C_1  and  O_2
REMARK    2  A    between atoms: O_2  and  C_3
REMARK    3  A    between atoms: C_6  and  C_7
REMARK    4  A    between atoms: C_7  and  N_8
REMARK    5  A    between atoms: C_9  and  C_11
REMARK    6  A    between atoms: C_22  and  C_23
REMARK    7  A    between atoms: C_25  and  O_26
REMARK    8  A    between atoms: O_26  and  C_27
REMARK                            x       y       z     vdW  Elec       q    Type
REMARK                         _______ _______ _______ _____ _____    ______ ____
ROOT
ATOM      1  N   UNL     1       1.071   8.164  20.565  0.00  0.00    +0.000 N 
ATOM      2  C   UNL     1       0.106   8.891  21.210  0.00  0.00    +0.000 C 
ATOM      3  O   UNL     1      -0.478   8.484  22.211  0.00  0.00    +0.000 OA
ATOM      4  H   UNL     1       1.482   8.492  19.707  0.00  0.00    +0.000 HD
ENDROOT
BRANCH   2   5
ATOM      5  C   UNL     1      -0.305  10.188  20.592  0.00  0.00    +0.000 A 
ATOM      6  C   UNL     1      -0.792  10.112  19.273  0.00  0.00    +0.000 A 
ATOM      7  C   UNL     1      -0.657  11.183  18.391  0.00  0.00    +0.000 A 
ATOM      8  C   UNL     1      -0.054  12.307  18.950  0.00  0.00    +0.000 A 
ATOM      9  C   UNL     1       0.073  12.532  20.313  0.00  0.00    +0.000 A 
ATOM     10  C   UNL     1      -0.002  11.432  21.177  0.00  0.00    +0.000 A 
ATOM     11  N   UNL     1       0.442  13.843  20.528  0.00  0.00    +0.000 NA
ATOM     12  C   UNL     1       0.748  14.304  19.326  0.00  0.00    +0.000 A 
ATOM     13  N   UNL     1       0.864  13.223  18.466  0.00  0.00    +0.000 N 
ATOM     14  C   UNL     1       2.251  12.792  18.200  0.00  0.00    +0.000 C 
ATOM     15  C   UNL     1       3.305  13.922  18.201  0.00  0.00    +0.000 C 
ATOM     16  C   UNL     1       2.992  15.125  19.128  0.00  0.00    +0.000 C 
ATOM     17  C   UNL     1       3.907  16.309  18.841  0.00  0.00    +0.000 C 
ATOM     18  C   UNL     1       1.518  15.525  18.991  0.00  0.00    +0.000 C 
ENDBRANCH   2   5
BRANCH   1  19
ATOM     19  C   UNL     1       1.509   6.860  21.031  0.00  0.00    +0.000 C 
BRANCH  19  23
ATOM     20  C   UNL     1       3.175   4.548  17.789  0.00  0.00    +0.000 A 
ATOM     21  C   UNL     1       3.489   5.899  17.905  0.00  0.00    +0.000 A 
ATOM     22  C   UNL     1       2.980   6.639  18.965  0.00  0.00    +0.000 A 
ATOM     23  C   UNL     1       2.136   6.048  19.922  0.00  0.00    +0.000 A 
ATOM     24  C   UNL     1       1.884   4.664  19.839  0.00  0.00    +0.000 A 
ATOM     25  C   UNL     1       2.402   3.931  18.764  0.00  0.00    +0.000 A 
BRANCH  20  27
ATOM     26  C   UNL     1       5.012   4.354  16.342  0.00  0.00    +0.000 C 
ATOM     27  O   UNL     1       3.707   3.911  16.703  0.00  0.00    +0.000 OA
ENDBRANCH  20  27
BRANCH  24  28
ATOM     28  O   UNL     1       1.102   4.122  20.825  0.00  0.00    +0.000 OA
ATOM     29  C   UNL     1       1.612   2.973  21.497  0.00  0.00    +0.000 C 
ENDBRANCH  24  28
ENDBRANCH  19  23
ENDBRANCH   1  19
TORSDOF 5
ENDMDL
