MODEL 1
REMARK VINA RESULT:      -7.6      0.000      0.000
REMARK  Name = 
REMARK  7 active torsions:
REMARK  status: ('A' for Active; 'I' for Inactive)
REMARK    1  A    between atoms: C_1  and  C_2
REMARK    2  A    between atoms: N_4  and  C_5
REMARK    3  A    between atoms: C_10  and  N_11
REMARK    4  A    between atoms: C_14  and  C_15
REMARK    5  A    between atoms: C_15  and  O_17
REMARK    6  A    between atoms: N_19  and  C_20
REMARK    7  A    between atoms: C_25  and  O_26
REMARK                            x       y       z     vdW  Elec       q    Type
REMARK                         _______ _______ _______ _____ _____    ______ ____
ROOT
ATOM      1  C   UNL     1       1.317   8.799  19.374  0.00  0.00    +0.000 A 
ATOM      2  C   UNL     1       2.305   8.144  18.581  0.00  0.00    +0.000 A 
ATOM      3  C   UNL     1       2.820   6.870  18.883  0.00  0.00    +0.000 A 
ATOM      4  C   UNL     1       2.298   6.221  20.009  0.00  0.00    +0.000 A 
ATOM      5  C   UNL     1       1.355   6.834  20.830  0.00  0.00    +0.000 A 
ATOM      6  C   UNL     1       0.914   8.135  20.568  0.00  0.00    +0.000 A 
ATOM      7  C   UNL     1       2.720   4.843  20.328  0.00  0.00    +0.000 A 
ATOM      8  O   UNL     1       2.331   4.266  21.342  0.00  0.00    +0.000 OA
ATOM      9  C   UNL     1       3.598   4.140  19.374  0.00  0.00    +0.000 A 
ATOM     10  C   UNL     1       4.066   4.861  18.342  0.00  0.00    +0.000 A 
ATOM     11  N   UNL     1       3.800   6.201  18.094  0.00  0.00    +0.000 N 
ENDROOT
BRANCH   1  15
ATOM     12  C   UNL     1       0.365  12.279  21.049  0.00  0.00    +0.000 C 
ATOM     13  C   UNL     1       0.574  12.409  19.537  0.00  0.00    +0.000 C 
ATOM     14  C   UNL     1       1.490  11.284  19.032  0.00  0.00    +0.000 C 
ATOM     15  N   UNL     1       0.770  10.006  18.930  0.00  0.00    +0.000 N 
ATOM     16  C   UNL     1      -0.442  10.031  18.105  0.00  0.00    +0.000 C 
ATOM     17  C   UNL     1      -1.415  11.069  18.659  0.00  0.00    +0.000 C 
ATOM     18  C   UNL     1      -0.762  12.446  18.785  0.00  0.00    +0.000 C 
BRANCH  18  19
ATOM     19  O   UNL     1      -0.586  13.020  17.486  0.00  0.00    +0.000 OA
ATOM     20  H   UNL     1      -1.056  13.869  17.445  0.00  0.00    +0.000 HD
ENDBRANCH  18  19
ENDBRANCH   1  15
BRANCH   6  21
ATOM     21  N   UNL     1      -0.045   8.660  21.462  0.00  0.00    +0.000 N 
ATOM     22  H   UNL     1      -0.999   8.380  21.260  0.00  0.00    +0.000 HD
ATOM     23  H   UNL     1       0.211   8.463  22.424  0.00  0.00    +0.000 HD
ENDBRANCH   6  21
BRANCH  11  24
ATOM     24  C   UNL     1       4.390   6.798  16.880  0.00  0.00    +0.000 C 
ATOM     25  C   UNL     1       5.878   6.960  16.691  0.00  0.00    +0.000 C 
ATOM     26  C   UNL     1       5.137   5.952  15.871  0.00  0.00    +0.000 C 
ENDBRANCH  11  24
BRANCH   9  27
ATOM     27  C   UNL     1       3.960   2.718  19.506  0.00  0.00    +0.000 C 
ATOM     28  O   UNL     1       3.208   1.804  19.210  0.00  0.00    +0.000 OA
BRANCH  27  29
ATOM     29  O   UNL     1       5.200   2.494  19.995  0.00  0.00    +0.000 OA
ATOM     30  H   UNL     1       5.442   1.532  20.050  0.00  0.00    +0.000 HD
ENDBRANCH  27  29
ENDBRANCH   9  27
TORSDOF 6
ENDMDL
MODEL 2
REMARK VINA RESULT:      -7.6      2.167      3.677
REMARK  Name = 
REMARK  7 active torsions:
REMARK  status: ('A' for Active; 'I' for Inactive)
REMARK    1  A    between atoms: C_1  and  C_2
REMARK    2  A    between atoms: N_4  and  C_5
REMARK    3  A    between atoms: C_10  and  N_11
REMARK    4  A    between atoms: C_14  and  C_15
REMARK    5  A    between atoms: C_15  and  O_17
REMARK    6  A    between atoms: N_19  and  C_20
REMARK    7  A    between atoms: C_25  and  O_26
REMARK                            x       y       z     vdW  Elec       q    Type
REMARK                         _______ _______ _______ _____ _____    ______ ____
ROOT
ATOM      1  C   UNL     1       1.416   8.912  19.334  0.00  0.00    +0.000 A 
ATOM      2  C   UNL     1       1.692   7.601  19.824  0.00  0.00    +0.000 A 
ATOM      3  C   UNL     1       2.645   6.744  19.243  0.00  0.00    +0.000 A 
ATOM      4  C   UNL     1       3.365   7.238  18.149  0.00  0.00    +0.000 A 
ATOM      5  C   UNL     1       3.109   8.499  17.617  0.00  0.00    +0.000 A 
ATOM      6  C   UNL     1       2.100   9.308  18.149  0.00  0.00    +0.000 A 
ATOM      7  C   UNL     1       4.449   6.430  17.554  0.00  0.00    +0.000 A 
ATOM      8  O   UNL     1       5.060   6.805  16.554  0.00  0.00    +0.000 OA
ATOM      9  C   UNL     1       4.823   5.166  18.212  0.00  0.00    +0.000 A 
ATOM     10  C   UNL     1       4.051   4.767  19.236  0.00  0.00    +0.000 A 
ATOM     11  N   UNL     1       2.938   5.435  19.728  0.00  0.00    +0.000 N 
ENDROOT
BRANCH   1  15
ATOM     12  C   UNL     1      -0.954  11.982  18.452  0.00  0.00    +0.000 C 
ATOM     13  C   UNL     1      -1.381  11.283  19.747  0.00  0.00    +0.000 C 
ATOM     14  C   UNL     1      -0.889   9.827  19.746  0.00  0.00    +0.000 C 
ATOM     15  N   UNL     1       0.547   9.742  20.049  0.00  0.00    +0.000 N 
ATOM     16  C   UNL     1       0.965  10.379  21.301  0.00  0.00    +0.000 C 
ATOM     17  C   UNL     1       0.583  11.856  21.274  0.00  0.00    +0.000 C 
ATOM     18  C   UNL     1      -0.906  12.051  20.985  0.00  0.00    +0.000 C 
BRANCH  18  19
ATOM     19  O   UNL     1      -1.676  11.673  22.131  0.00  0.00    +0.000 OA
ATOM     20  H   UNL     1      -1.853  12.461  22.671  0.00  0.00    +0.000 HD
ENDBRANCH  18  19
ENDBRANCH   1  15
BRANCH   6  21
ATOM     21  N   UNL     1       1.924  10.569  17.537  0.00  0.00    +0.000 N 
ATOM     22  H   UNL     1       2.369  10.656  16.630  0.00  0.00    +0.000 HD
ATOM     23  H   UNL     1       0.941  10.820  17.502  0.00  0.00    +0.000 HD
ENDBRANCH   6  21
BRANCH  11  24
ATOM     24  C   UNL     1       2.245   4.842  20.889  0.00  0.00    +0.000 C 
ATOM     25  C   UNL     1       1.058   3.923  20.746  0.00  0.00    +0.000 C 
ATOM     26  C   UNL     1       2.367   3.367  21.207  0.00  0.00    +0.000 C 
ENDBRANCH  11  24
BRANCH   9  27
ATOM     27  C   UNL     1       5.983   4.354  17.803  0.00  0.00    +0.000 C 
ATOM     28  O   UNL     1       7.035   4.329  18.421  0.00  0.00    +0.000 OA
BRANCH  27  29
ATOM     29  O   UNL     1       5.799   3.635  16.673  0.00  0.00    +0.000 OA
ATOM     30  H   UNL     1       5.708   2.658  16.829  0.00  0.00    +0.000 HD
ENDBRANCH  27  29
ENDBRANCH   9  27
TORSDOF 6
ENDMDL
MODEL 3
REMARK VINA RESULT:      -7.6      2.255      3.704
REMARK  Name = 
REMARK  7 active torsions:
REMARK  status: ('A' for Active; 'I' for Inactive)
REMARK    1  A    between atoms: C_1  and  C_2
REMARK    2  A    between atoms: N_4  and  C_5
REMARK    3  A    between atoms: C_10  and  N_11
REMARK    4  A    between atoms: C_14  and  C_15
REMARK    5  A    between atoms: C_15  and  O_17
REMARK    6  A    between atoms: N_19  and  C_20
REMARK    7  A    between atoms: C_25  and  O_26
REMARK                            x       y       z     vdW  Elec       q    Type
REMARK                         _______ _______ _______ _____ _____    ______ ____
ROOT
ATOM      1  C   UNL     1       1.332   8.646  19.548  0.00  0.00    +0.000 A 
ATOM      2  C   UNL     1       1.697   7.342  19.996  0.00  0.00    +0.000 A 
ATOM      3  C   UNL     1       2.641   6.534  19.335  0.00  0.00    +0.000 A 
ATOM      4  C   UNL     1       3.259   7.073  18.200  0.00  0.00    +0.000 A 
ATOM      5  C   UNL     1       2.913   8.328  17.708  0.00  0.00    +0.000 A 
ATOM      6  C   UNL     1       1.911   9.087  18.324  0.00  0.00    +0.000 A 
ATOM      7  C   UNL     1       4.331   6.320  17.517  0.00  0.00    +0.000 A 
ATOM      8  O   UNL     1       4.852   6.733  16.482  0.00  0.00    +0.000 OA
ATOM      9  C   UNL     1       4.804   5.064  18.127  0.00  0.00    +0.000 A 
ATOM     10  C   UNL     1       4.125   4.620  19.197  0.00  0.00    +0.000 A 
ATOM     11  N   UNL     1       3.023   5.234  19.777  0.00  0.00    +0.000 N 
ENDROOT
BRANCH   1  15
ATOM     12  C   UNL     1       1.278  12.427  20.784  0.00  0.00    +0.000 C 
ATOM     13  C   UNL     1      -0.117  11.793  20.817  0.00  0.00    +0.000 C 
ATOM     14  C   UNL     1      -0.191  10.628  19.817  0.00  0.00    +0.000 C 
ATOM     15  N   UNL     1       0.482   9.429  20.335  0.00  0.00    +0.000 N 
ATOM     16  C   UNL     1       0.011   8.958  21.642  0.00  0.00    +0.000 C 
ATOM     17  C   UNL     1       0.180  10.068  22.675  0.00  0.00    +0.000 C 
ATOM     18  C   UNL     1      -0.507  11.361  22.235  0.00  0.00    +0.000 C 
BRANCH  18  19
ATOM     19  O   UNL     1      -1.927  11.216  22.338  0.00  0.00    +0.000 OA
ATOM     20  H   UNL     1      -2.233  11.639  23.157  0.00  0.00    +0.000 HD
ENDBRANCH  18  19
ENDBRANCH   1  15
BRANCH   6  21
ATOM     21  N   UNL     1       1.639  10.347  17.746  0.00  0.00    +0.000 N 
ATOM     22  H   UNL     1       1.307  10.302  16.789  0.00  0.00    +0.000 HD
ATOM     23  H   UNL     1       1.017  10.889  18.337  0.00  0.00    +0.000 HD
ENDBRANCH   6  21
BRANCH  11  24
ATOM     24  C   UNL     1       2.440   4.596  20.974  0.00  0.00    +0.000 C 
ATOM     25  C   UNL     1       1.194   3.747  20.921  0.00  0.00    +0.000 C 
ATOM     26  C   UNL     1       2.516   3.098  21.183  0.00  0.00    +0.000 C 
ENDBRANCH  11  24
BRANCH   9  27
ATOM     27  C   UNL     1       5.964   4.309  17.624  0.00  0.00    +0.000 C 
ATOM     28  O   UNL     1       7.052   4.303  18.176  0.00  0.00    +0.000 OA
BRANCH  27  29
ATOM     29  O   UNL     1       5.737   3.618  16.484  0.00  0.00    +0.000 OA
ATOM     30  H   UNL     1       6.514   3.080  16.179  0.00  0.00    +0.000 HD
ENDBRANCH  27  29
ENDBRANCH   9  27
TORSDOF 6
ENDMDL
MODEL 4
REMARK VINA RESULT:      -7.6      2.617      4.038
REMARK  Name = 
REMARK  7 active torsions:
REMARK  status: ('A' for Active; 'I' for Inactive)
REMARK    1  A    between atoms: C_1  and  C_2
REMARK    2  A    between atoms: N_4  and  C_5
REMARK    3  A    between atoms: C_10  and  N_11
REMARK    4  A    between atoms: C_14  and  C_15
REMARK    5  A    between atoms: C_15  and  O_17
REMARK    6  A    between atoms: N_19  and  C_20
REMARK    7  A    between atoms: C_25  and  O_26
REMARK                            x       y       z     vdW  Elec       q    Type
REMARK                         _______ _______ _______ _____ _____    ______ ____
ROOT
ATOM      1  C   UNL     1       1.950   8.066  19.292  0.00  0.00    +0.000 A 
ATOM      2  C   UNL     1       2.461   6.757  19.532  0.00  0.00    +0.000 A 
ATOM      3  C   UNL     1       3.381   6.118  18.681  0.00  0.00    +0.000 A 
ATOM      4  C   UNL     1       3.823   6.837  17.564  0.00  0.00    +0.000 A 
ATOM      5  C   UNL     1       3.330   8.105  17.272  0.00  0.00    +0.000 A 
ATOM      6  C   UNL     1       2.351   8.696  18.078  0.00  0.00    +0.000 A 
ATOM      7  C   UNL     1       4.863   6.267  16.684  0.00  0.00    +0.000 A 
ATOM      8  O   UNL     1       5.230   6.842  15.660  0.00  0.00    +0.000 OA
ATOM      9  C   UNL     1       5.495   4.995  17.079  0.00  0.00    +0.000 A 
ATOM     10  C   UNL     1       4.979   4.372  18.150  0.00  0.00    +0.000 A 
ATOM     11  N   UNL     1       3.907   4.813  18.914  0.00  0.00    +0.000 N 
ENDROOT
BRANCH   1  15
ATOM     12  C   UNL     1       1.190  11.804  20.424  0.00  0.00    +0.000 C 
ATOM     13  C   UNL     1       0.066  10.843  20.827  0.00  0.00    +0.000 C 
ATOM     14  C   UNL     1       0.066   9.614  19.904  0.00  0.00    +0.000 C 
ATOM     15  N   UNL     1       1.140   8.674  20.255  0.00  0.00    +0.000 N 
ATOM     16  C   UNL     1       1.143   8.215  21.648  0.00  0.00    +0.000 C 
ATOM     17  C   UNL     1       1.255   9.418  22.581  0.00  0.00    +0.000 C 
ATOM     18  C   UNL     1       0.162  10.452  22.306  0.00  0.00    +0.000 C 
BRANCH  18  19
ATOM     19  O   UNL     1      -1.098   9.961  22.774  0.00  0.00    +0.000 OA
ATOM     20  H   UNL     1      -1.742   9.990  22.047  0.00  0.00    +0.000 HD
ENDBRANCH  18  19
ENDBRANCH   1  15
BRANCH   6  21
ATOM     21  N   UNL     1       1.921   9.985  17.695  0.00  0.00    +0.000 N 
ATOM     22  H   UNL     1       0.955  10.189  17.930  0.00  0.00    +0.000 HD
ATOM     23  H   UNL     1       2.553  10.697  18.047  0.00  0.00    +0.000 HD
ENDBRANCH   6  21
BRANCH  11  24
ATOM     24  C   UNL     1       3.515   3.992  20.076  0.00  0.00    +0.000 C 
ATOM     25  C   UNL     1       2.087   3.584  20.341  0.00  0.00    +0.000 C 
ATOM     26  C   UNL     1       3.080   2.551  19.910  0.00  0.00    +0.000 C 
ENDBRANCH  11  24
BRANCH   9  27
ATOM     27  C   UNL     1       6.645   4.409  16.366  0.00  0.00    +0.000 C 
ATOM     28  O   UNL     1       7.775   4.382  16.824  0.00  0.00    +0.000 OA
BRANCH  27  29
ATOM     29  O   UNL     1       6.354   3.902  15.147  0.00  0.00    +0.000 OA
ATOM     30  H   UNL     1       6.924   3.132  14.886  0.00  0.00    +0.000 HD
ENDBRANCH  27  29
ENDBRANCH   9  27
TORSDOF 6
ENDMDL
MODEL 5
REMARK VINA RESULT:      -7.1      2.208      3.596
REMARK  Name = 
REMARK  7 active torsions:
REMARK  status: ('A' for Active; 'I' for Inactive)
REMARK    1  A    between atoms: C_1  and  C_2
REMARK    2  A    between atoms: N_4  and  C_5
REMARK    3  A    between atoms: C_10  and  N_11
REMARK    4  A    between atoms: C_14  and  C_15
REMARK    5  A    between atoms: C_15  and  O_17
REMARK    6  A    between atoms: N_19  and  C_20
REMARK    7  A    between atoms: C_25  and  O_26
REMARK                            x       y       z     vdW  Elec       q    Type
REMARK                         _______ _______ _______ _____ _____    ______ ____
ROOT
ATOM      1  C   UNL     1       1.448   9.310  19.308  0.00  0.00    +0.000 A 
ATOM      2  C   UNL     1       1.525   7.948  19.725  0.00  0.00    +0.000 A 
ATOM      3  C   UNL     1       2.331   6.988  19.085  0.00  0.00    +0.000 A 
ATOM      4  C   UNL     1       3.108   7.425  18.005  0.00  0.00    +0.000 A 
ATOM      5  C   UNL     1       3.043   8.736  17.544  0.00  0.00    +0.000 A 
ATOM      6  C   UNL     1       2.174   9.661  18.134  0.00  0.00    +0.000 A 
ATOM      7  C   UNL     1       4.051   6.495  17.352  0.00  0.00    +0.000 A 
ATOM      8  O   UNL     1       4.703   6.825  16.362  0.00  0.00    +0.000 OA
ATOM      9  C   UNL     1       4.233   5.155  17.937  0.00  0.00    +0.000 A 
ATOM     10  C   UNL     1       3.419   4.824  18.952  0.00  0.00    +0.000 A 
ATOM     11  N   UNL     1       2.425   5.626  19.497  0.00  0.00    +0.000 N 
ENDROOT
BRANCH   1  15
ATOM     12  C   UNL     1      -0.583   9.167  22.726  0.00  0.00    +0.000 C 
ATOM     13  C   UNL     1      -0.140  10.593  22.381  0.00  0.00    +0.000 C 
ATOM     14  C   UNL     1       1.091  10.556  21.462  0.00  0.00    +0.000 C 
ATOM     15  N   UNL     1       0.722  10.223  20.079  0.00  0.00    +0.000 N 
ATOM     16  C   UNL     1      -0.291  11.091  19.471  0.00  0.00    +0.000 C 
ATOM     17  C   UNL     1      -1.564  11.055  20.313  0.00  0.00    +0.000 C 
ATOM     18  C   UNL     1      -1.288  11.409  21.774  0.00  0.00    +0.000 C 
BRANCH  18  19
ATOM     19  O   UNL     1      -1.018  12.810  21.891  0.00  0.00    +0.000 OA
ATOM     20  H   UNL     1      -0.690  12.998  22.785  0.00  0.00    +0.000 HD
ENDBRANCH  18  19
ENDBRANCH   1  15
BRANCH   6  21
ATOM     21  N   UNL     1       2.188  10.964  17.591  0.00  0.00    +0.000 N 
ATOM     22  H   UNL     1       2.634  11.657  18.183  0.00  0.00    +0.000 HD
ATOM     23  H   UNL     1       2.577  10.962  16.653  0.00  0.00    +0.000 HD
ENDBRANCH   6  21
BRANCH  11  24
ATOM     24  C   UNL     1       1.659   5.084  20.636  0.00  0.00    +0.000 C 
ATOM     25  C   UNL     1       1.024   3.716  20.614  0.00  0.00    +0.000 C 
ATOM     26  C   UNL     1       2.211   3.962  21.490  0.00  0.00    +0.000 C 
ENDBRANCH  11  24
BRANCH   9  27
ATOM     27  C   UNL     1       5.252   4.199  17.468  0.00  0.00    +0.000 C 
ATOM     28  O   UNL     1       5.191   3.628  16.391  0.00  0.00    +0.000 OA
BRANCH  27  29
ATOM     29  O   UNL     1       6.271   3.990  18.332  0.00  0.00    +0.000 OA
ATOM     30  H   UNL     1       7.120   4.431  18.065  0.00  0.00    +0.000 HD
ENDBRANCH  27  29
ENDBRANCH   9  27
TORSDOF 6
ENDMDL
MODEL 6
REMARK VINA RESULT:      -7.0      1.664      7.953
REMARK  Name = 
REMARK  7 active torsions:
REMARK  status: ('A' for Active; 'I' for Inactive)
REMARK    1  A    between atoms: C_1  and  C_2
REMARK    2  A    between atoms: N_4  and  C_5
REMARK    3  A    between atoms: C_10  and  N_11
REMARK    4  A    between atoms: C_14  and  C_15
REMARK    5  A    between atoms: C_15  and  O_17
REMARK    6  A    between atoms: N_19  and  C_20
REMARK    7  A    between atoms: C_25  and  O_26
REMARK                            x       y       z     vdW  Elec       q    Type
REMARK                         _______ _______ _______ _____ _____    ______ ____
ROOT
ATOM      1  C   UNL     1       2.341   6.878  19.581  0.00  0.00    +0.000 A 
ATOM      2  C   UNL     1       1.461   7.688  20.357  0.00  0.00    +0.000 A 
ATOM      3  C   UNL     1       1.124   9.010  20.015  0.00  0.00    +0.000 A 
ATOM      4  C   UNL     1       1.672   9.524  18.833  0.00  0.00    +0.000 A 
ATOM      5  C   UNL     1       2.560   8.781  18.059  0.00  0.00    +0.000 A 
ATOM      6  C   UNL     1       2.955   7.499  18.454  0.00  0.00    +0.000 A 
ATOM      7  C   UNL     1       1.282  10.868  18.361  0.00  0.00    +0.000 A 
ATOM      8  O   UNL     1       1.790  11.375  17.363  0.00  0.00    +0.000 OA
ATOM      9  C   UNL     1       0.227  11.589  19.096  0.00  0.00    +0.000 A 
ATOM     10  C   UNL     1      -0.212  11.024  20.232  0.00  0.00    +0.000 A 
ATOM     11  N   UNL     1       0.238   9.828  20.776  0.00  0.00    +0.000 N 
ENDROOT
BRANCH   1  15
ATOM     12  C   UNL     1       2.764   3.463  17.585  0.00  0.00    +0.000 C 
ATOM     13  C   UNL     1       3.326   3.369  19.008  0.00  0.00    +0.000 C 
ATOM     14  C   UNL     1       3.706   4.767  19.518  0.00  0.00    +0.000 C 
ATOM     15  N   UNL     1       2.520   5.535  19.924  0.00  0.00    +0.000 N 
ATOM     16  C   UNL     1       1.662   4.887  20.922  0.00  0.00    +0.000 C 
ATOM     17  C   UNL     1       1.183   3.540  20.385  0.00  0.00    +0.000 C 
ATOM     18  C   UNL     1       2.352   2.655  19.952  0.00  0.00    +0.000 C 
BRANCH  18  19
ATOM     19  O   UNL     1       3.045   2.168  21.106  0.00  0.00    +0.000 OA
ATOM     20  H   UNL     1       3.097   2.875  21.770  0.00  0.00    +0.000 HD
ENDBRANCH  18  19
ENDBRANCH   1  15
BRANCH   6  21
ATOM     21  N   UNL     1       3.857   6.832  17.597  0.00  0.00    +0.000 N 
ATOM     22  H   UNL     1       4.707   7.351  17.403  0.00  0.00    +0.000 HD
ATOM     23  H   UNL     1       4.056   5.896  17.938  0.00  0.00    +0.000 HD
ENDBRANCH   6  21
BRANCH  11  24
ATOM     24  C   UNL     1      -0.403   9.363  22.022  0.00  0.00    +0.000 C 
ATOM     25  C   UNL     1       0.281   9.433  23.364  0.00  0.00    +0.000 C 
ATOM     26  C   UNL     1      -0.871  10.342  23.077  0.00  0.00    +0.000 C 
ENDBRANCH  11  24
BRANCH   9  27
ATOM     27  C   UNL     1      -0.351  12.864  18.635  0.00  0.00    +0.000 C 
ATOM     28  O   UNL     1      -0.270  13.904  19.266  0.00  0.00    +0.000 OA
BRANCH  27  29
ATOM     29  O   UNL     1      -0.996  12.795  17.449  0.00  0.00    +0.000 OA
ATOM     30  H   UNL     1      -1.869  13.268  17.439  0.00  0.00    +0.000 HD
ENDBRANCH  27  29
ENDBRANCH   9  27
TORSDOF 6
ENDMDL
MODEL 7
REMARK VINA RESULT:      -6.8      1.723      7.846
REMARK  Name = 
REMARK  7 active torsions:
REMARK  status: ('A' for Active; 'I' for Inactive)
REMARK    1  A    between atoms: C_1  and  C_2
REMARK    2  A    between atoms: N_4  and  C_5
REMARK    3  A    between atoms: C_10  and  N_11
REMARK    4  A    between atoms: C_14  and  C_15
REMARK    5  A    between atoms: C_15  and  O_17
REMARK    6  A    between atoms: N_19  and  C_20
REMARK    7  A    between atoms: C_25  and  O_26
REMARK                            x       y       z     vdW  Elec       q    Type
REMARK                         _______ _______ _______ _____ _____    ______ ____
ROOT
ATOM      1  C   UNL     1       3.095   6.270  18.525  0.00  0.00    +0.000 A 
ATOM      2  C   UNL     1       2.301   6.940  19.502  0.00  0.00    +0.000 A 
ATOM      3  C   UNL     1       1.985   8.309  19.435  0.00  0.00    +0.000 A 
ATOM      4  C   UNL     1       2.462   9.021  18.327  0.00  0.00    +0.000 A 
ATOM      5  C   UNL     1       3.266   8.417  17.364  0.00  0.00    +0.000 A 
ATOM      6  C   UNL     1       3.645   7.076  17.486  0.00  0.00    +0.000 A 
ATOM      7  C   UNL     1       2.085  10.437  18.141  0.00  0.00    +0.000 A 
ATOM      8  O   UNL     1       2.535  11.110  17.215  0.00  0.00    +0.000 OA
ATOM      9  C   UNL     1       1.111  11.031  19.075  0.00  0.00    +0.000 A 
ATOM     10  C   UNL     1       0.738  10.274  20.119  0.00  0.00    +0.000 A 
ATOM     11  N   UNL     1       1.185   8.989  20.399  0.00  0.00    +0.000 N 
ENDROOT
BRANCH   1  15
ATOM     12  C   UNL     1       0.894   3.225  19.834  0.00  0.00    +0.000 C 
ATOM     13  C   UNL     1       1.955   2.774  18.823  0.00  0.00    +0.000 C 
ATOM     14  C   UNL     1       2.351   3.948  17.914  0.00  0.00    +0.000 C 
ATOM     15  N   UNL     1       3.252   4.883  18.602  0.00  0.00    +0.000 N 
ATOM     16  C   UNL     1       4.471   4.288  19.159  0.00  0.00    +0.000 C 
ATOM     17  C   UNL     1       4.095   3.191  20.151  0.00  0.00    +0.000 C 
ATOM     18  C   UNL     1       3.169   2.150  19.522  0.00  0.00    +0.000 C 
BRANCH  18  19
ATOM     19  O   UNL     1       3.906   1.337  18.604  0.00  0.00    +0.000 OA
ATOM     20  H   UNL     1       3.429   1.295  17.759  0.00  0.00    +0.000 HD
ENDBRANCH  18  19
ENDBRANCH   1  15
BRANCH   6  21
ATOM     21  N   UNL     1       4.459   6.561  16.454  0.00  0.00    +0.000 N 
ATOM     22  H   UNL     1       4.206   5.627  16.151  0.00  0.00    +0.000 HD
ATOM     23  H   UNL     1       4.509   7.210  15.674  0.00  0.00    +0.000 HD
ENDBRANCH   6  21
BRANCH  11  24
ATOM     24  C   UNL     1       0.622   8.315  21.585  0.00  0.00    +0.000 C 
ATOM     25  C   UNL     1       0.271   9.055  22.852  0.00  0.00    +0.000 C 
ATOM     26  C   UNL     1      -0.823   8.512  21.989  0.00  0.00    +0.000 C 
ENDBRANCH  11  24
BRANCH   9  27
ATOM     27  C   UNL     1       0.544  12.380  18.901  0.00  0.00    +0.000 C 
ATOM     28  O   UNL     1       0.675  13.273  19.722  0.00  0.00    +0.000 OA
BRANCH  27  29
ATOM     29  O   UNL     1      -0.149  12.558  17.754  0.00  0.00    +0.000 OA
ATOM     30  H   UNL     1       0.244  12.089  16.971  0.00  0.00    +0.000 HD
ENDBRANCH  27  29
ENDBRANCH   9  27
TORSDOF 6
ENDMDL
MODEL 8
REMARK VINA RESULT:      -6.6      2.551      7.178
REMARK  Name = 
REMARK  7 active torsions:
REMARK  status: ('A' for Active; 'I' for Inactive)
REMARK    1  A    between atoms: C_1  and  C_2
REMARK    2  A    between atoms: N_4  and  C_5
REMARK    3  A    between atoms: C_10  and  N_11
REMARK    4  A    between atoms: C_14  and  C_15
REMARK    5  A    between atoms: C_15  and  O_17
REMARK    6  A    between atoms: N_19  and  C_20
REMARK    7  A    between atoms: C_25  and  O_26
REMARK                            x       y       z     vdW  Elec       q    Type
REMARK                         _______ _______ _______ _____ _____    ______ ____
ROOT
ATOM      1  C   UNL     1       2.296   7.255  19.109  0.00  0.00    +0.000 A 
ATOM      2  C   UNL     1       1.896   8.602  18.868  0.00  0.00    +0.000 A 
ATOM      3  C   UNL     1       1.110   9.348  19.766  0.00  0.00    +0.000 A 
ATOM      4  C   UNL     1       0.740   8.721  20.963  0.00  0.00    +0.000 A 
ATOM      5  C   UNL     1       1.081   7.398  21.228  0.00  0.00    +0.000 A 
ATOM      6  C   UNL     1       1.790   6.639  20.290  0.00  0.00    +0.000 A 
ATOM      7  C   UNL     1       0.001   9.478  21.993  0.00  0.00    +0.000 A 
ATOM      8  O   UNL     1      -0.395   8.943  23.028  0.00  0.00    +0.000 OA
ATOM      9  C   UNL     1      -0.225  10.918  21.778  0.00  0.00    +0.000 A 
ATOM     10  C   UNL     1       0.142  11.415  20.586  0.00  0.00    +0.000 A 
ATOM     11  N   UNL     1       0.711  10.698  19.542  0.00  0.00    +0.000 N 
ENDROOT
BRANCH   1  15
ATOM     12  C   UNL     1       4.820   4.185  19.296  0.00  0.00    +0.000 C 
ATOM     13  C   UNL     1       4.410   4.503  17.854  0.00  0.00    +0.000 C 
ATOM     14  C   UNL     1       3.052   5.221  17.838  0.00  0.00    +0.000 C 
ATOM     15  N   UNL     1       3.183   6.634  18.224  0.00  0.00    +0.000 N 
ATOM     16  C   UNL     1       4.137   7.416  17.433  0.00  0.00    +0.000 C 
ATOM     17  C   UNL     1       5.521   6.779  17.527  0.00  0.00    +0.000 C 
ATOM     18  C   UNL     1       5.494   5.305  17.124  0.00  0.00    +0.000 C 
BRANCH  18  19
ATOM     19  O   UNL     1       5.325   5.192  15.707  0.00  0.00    +0.000 OA
ATOM     20  H   UNL     1       6.054   5.653  15.260  0.00  0.00    +0.000 HD
ENDBRANCH  18  19
ENDBRANCH   1  15
BRANCH   6  21
ATOM     21  N   UNL     1       2.087   5.309  20.660  0.00  0.00    +0.000 N 
ATOM     22  H   UNL     1       2.791   5.227  21.386  0.00  0.00    +0.000 HD
ATOM     23  H   UNL     1       1.240   4.802  20.897  0.00  0.00    +0.000 HD
ENDBRANCH   6  21
BRANCH  11  24
ATOM     24  C   UNL     1       1.073  11.444  18.321  0.00  0.00    +0.000 C 
ATOM     25  C   UNL     1       1.053  12.951  18.251  0.00  0.00    +0.000 C 
ATOM     26  C   UNL     1       2.364  12.231  18.234  0.00  0.00    +0.000 C 
ENDBRANCH  11  24
BRANCH   9  27
ATOM     27  C   UNL     1      -0.812  11.805  22.798  0.00  0.00    +0.000 C 
ATOM     28  O   UNL     1      -0.343  12.892  23.092  0.00  0.00    +0.000 OA
BRANCH  27  29
ATOM     29  O   UNL     1      -1.920  11.317  23.401  0.00  0.00    +0.000 OA
ATOM     30  H   UNL     1      -2.055  11.654  24.325  0.00  0.00    +0.000 HD
ENDBRANCH  27  29
ENDBRANCH   9  27
TORSDOF 6
ENDMDL
MODEL 9
REMARK VINA RESULT:      -6.5      1.725      7.906
REMARK  Name = 
REMARK  7 active torsions:
REMARK  status: ('A' for Active; 'I' for Inactive)
REMARK    1  A    between atoms: C_1  and  C_2
REMARK    2  A    between atoms: N_4  and  C_5
REMARK    3  A    between atoms: C_10  and  N_11
REMARK    4  A    between atoms: C_14  and  C_15
REMARK    5  A    between atoms: C_15  and  O_17
REMARK    6  A    between atoms: N_19  and  C_20
REMARK    7  A    between atoms: C_25  and  O_26
REMARK                            x       y       z     vdW  Elec       q    Type
REMARK                         _______ _______ _______ _____ _____    ______ ____
ROOT
ATOM      1  C   UNL     1       2.368   6.712  18.986  0.00  0.00    +0.000 A 
ATOM      2  C   UNL     1       1.578   7.501  19.874  0.00  0.00    +0.000 A 
ATOM      3  C   UNL     1       1.400   8.888  19.724  0.00  0.00    +0.000 A 
ATOM      4  C   UNL     1       2.015   9.496  18.622  0.00  0.00    +0.000 A 
ATOM      5  C   UNL     1       2.820   8.772  17.747  0.00  0.00    +0.000 A 
ATOM      6  C   UNL     1       3.060   7.410  17.955  0.00  0.00    +0.000 A 
ATOM      7  C   UNL     1       1.787  10.929  18.347  0.00  0.00    +0.000 A 
ATOM      8  O   UNL     1       2.361  11.510  17.427  0.00  0.00    +0.000 OA
ATOM      9  C   UNL     1       0.815  11.657  19.183  0.00  0.00    +0.000 A 
ATOM     10  C   UNL     1       0.303  10.992  20.231  0.00  0.00    +0.000 A 
ATOM     11  N   UNL     1       0.606   9.687  20.598  0.00  0.00    +0.000 N 
ENDROOT
BRANCH   1  15
ATOM     12  C   UNL     1       5.171   3.888  19.001  0.00  0.00    +0.000 C 
ATOM     13  C   UNL     1       3.896   3.435  19.720  0.00  0.00    +0.000 C 
ATOM     14  C   UNL     1       3.113   4.656  20.227  0.00  0.00    +0.000 C 
ATOM     15  N   UNL     1       2.386   5.322  19.136  0.00  0.00    +0.000 N 
ATOM     16  C   UNL     1       1.476   4.465  18.370  0.00  0.00    +0.000 C 
ATOM     17  C   UNL     1       2.259   3.302  17.765  0.00  0.00    +0.000 C 
ATOM     18  C   UNL     1       3.038   2.529  18.829  0.00  0.00    +0.000 C 
BRANCH  18  19
ATOM     19  O   UNL     1       2.134   1.758  19.628  0.00  0.00    +0.000 OA
ATOM     20  H   UNL     1       2.642   1.144  20.183  0.00  0.00    +0.000 HD
ENDBRANCH  18  19
ENDBRANCH   1  15
BRANCH   6  21
ATOM     21  N   UNL     1       3.888   6.770  17.006  0.00  0.00    +0.000 N 
ATOM     22  H   UNL     1       3.473   5.949  16.579  0.00  0.00    +0.000 HD
ATOM     23  H   UNL     1       4.219   7.431  16.311  0.00  0.00    +0.000 HD
ENDBRANCH   6  21
BRANCH  11  24
ATOM     24  C   UNL     1      -0.096   9.129  21.770  0.00  0.00    +0.000 C 
ATOM     25  C   UNL     1       0.441   9.248  23.174  0.00  0.00    +0.000 C 
ATOM     26  C   UNL     1      -0.772  10.029  22.783  0.00  0.00    +0.000 C 
ENDBRANCH  11  24
BRANCH   9  27
ATOM     27  C   UNL     1       0.393  13.042  18.909  0.00  0.00    +0.000 C 
ATOM     28  O   UNL     1       0.663  13.982  19.639  0.00  0.00    +0.000 OA
BRANCH  27  29
ATOM     29  O   UNL     1      -0.334  13.198  17.780  0.00  0.00    +0.000 OA
ATOM     30  H   UNL     1      -0.041  13.962  17.217  0.00  0.00    +0.000 HD
ENDBRANCH  27  29
ENDBRANCH   9  27
TORSDOF 6
ENDMDL
