MODEL 1
REMARK VINA RESULT:      -7.1      0.000      0.000
REMARK  Name = 
REMARK  7 active torsions:
REMARK  status: ('A' for Active; 'I' for Inactive)
REMARK    1  A    between atoms: C_2  and  C_3
REMARK    2  A    between atoms: C_3  and  C_4
REMARK    3  A    between atoms: C_3  and  C_11
REMARK    4  A    between atoms: C_7  and  O_8
REMARK    5  A    between atoms: C_11  and  C_12
REMARK    6  A    between atoms: C_11  and  C_14
REMARK    7  A    between atoms: C_17  and  O_18
REMARK                            x       y       z     vdW  Elec       q    Type
REMARK                         _______ _______ _______ _____ _____    ______ ____
ROOT
ATOM      1  C   UNL     1       2.734   5.199  18.757  0.00  0.00    +0.000 C 
ENDROOT
BRANCH   1   2
ATOM      2  C   UNL     1       2.415   6.732  18.939  0.00  0.00    +0.000 A 
ATOM      3  C   UNL     1       1.930   7.259  20.149  0.00  0.00    +0.000 A 
ATOM      4  C   UNL     1       1.419   8.565  20.216  0.00  0.00    +0.000 A 
ATOM      5  C   UNL     1       1.407   9.372  19.084  0.00  0.00    +0.000 A 
ATOM      6  C   UNL     1       1.929   8.909  17.892  0.00  0.00    +0.000 A 
ATOM      7  C   UNL     1       2.453   7.616  17.828  0.00  0.00    +0.000 A 
BRANCH   5   8
ATOM      8  O   UNL     1       0.883  10.629  19.104  0.00  0.00    +0.000 OA
ATOM      9  H   UNL     1       0.132  10.663  18.495  0.00  0.00    +0.000 HD
ENDBRANCH   5   8
ENDBRANCH   1   2
BRANCH   1  11
ATOM     10  C   UNL     1       0.965   3.891  20.528  0.00  0.00    +0.000 C 
ATOM     11  C   UNL     1       1.782   4.495  19.710  0.00  0.00    +0.000 C 
ENDBRANCH   1  11
BRANCH   1  12
ATOM     12  C   UNL     1       4.168   4.866  19.135  0.00  0.00    +0.000 C 
BRANCH  12  13
ATOM     13  C   UNL     1       5.130   5.048  17.922  0.00  0.00    +0.000 A 
ATOM     14  C   UNL     1       6.189   5.971  17.947  0.00  0.00    +0.000 A 
ATOM     15  C   UNL     1       7.072   6.089  16.860  0.00  0.00    +0.000 A 
ATOM     16  C   UNL     1       6.893   5.324  15.721  0.00  0.00    +0.000 A 
ATOM     17  C   UNL     1       5.830   4.430  15.638  0.00  0.00    +0.000 A 
ATOM     18  C   UNL     1       4.963   4.299  16.724  0.00  0.00    +0.000 A 
BRANCH  16  19
ATOM     19  O   UNL     1       7.717   5.387  14.646  0.00  0.00    +0.000 OA
ATOM     20  H   UNL     1       7.544   4.615  14.084  0.00  0.00    +0.000 HD
ENDBRANCH  16  19
ENDBRANCH  12  13
BRANCH  12  21
ATOM     21  C   UNL     1       4.260   3.404  19.538  0.00  0.00    +0.000 C 
ATOM     22  C   UNL     1       4.337   2.149  19.883  0.00  0.00    +0.000 C 
ENDBRANCH  12  21
ENDBRANCH   1  12
TORSDOF 7
ENDMDL
MODEL 2
REMARK VINA RESULT:      -7.1      0.087      1.079
REMARK  Name = 
REMARK  7 active torsions:
REMARK  status: ('A' for Active; 'I' for Inactive)
REMARK    1  A    between atoms: C_2  and  C_3
REMARK    2  A    between atoms: C_3  and  C_4
REMARK    3  A    between atoms: C_3  and  C_11
REMARK    4  A    between atoms: C_7  and  O_8
REMARK    5  A    between atoms: C_11  and  C_12
REMARK    6  A    between atoms: C_11  and  C_14
REMARK    7  A    between atoms: C_17  and  O_18
REMARK                            x       y       z     vdW  Elec       q    Type
REMARK                         _______ _______ _______ _____ _____    ______ ____
ROOT
ATOM      1  C   UNL     1       2.756   5.165  18.744  0.00  0.00    +0.000 C 
ENDROOT
BRANCH   1   2
ATOM      2  C   UNL     1       2.440   6.699  18.925  0.00  0.00    +0.000 A 
ATOM      3  C   UNL     1       1.956   7.228  20.134  0.00  0.00    +0.000 A 
ATOM      4  C   UNL     1       1.447   8.535  20.201  0.00  0.00    +0.000 A 
ATOM      5  C   UNL     1       1.436   9.340  19.068  0.00  0.00    +0.000 A 
ATOM      6  C   UNL     1       1.957   8.875  17.876  0.00  0.00    +0.000 A 
ATOM      7  C   UNL     1       2.479   7.581  17.813  0.00  0.00    +0.000 A 
BRANCH   5   8
ATOM      8  O   UNL     1       0.914  10.598  19.087  0.00  0.00    +0.000 OA
ATOM      9  H   UNL     1       0.156  10.611  19.688  0.00  0.00    +0.000 HD
ENDBRANCH   5   8
ENDBRANCH   1   2
BRANCH   1  11
ATOM     10  C   UNL     1       0.991   3.862  20.523  0.00  0.00    +0.000 C 
ATOM     11  C   UNL     1       1.806   4.464  19.702  0.00  0.00    +0.000 C 
ENDBRANCH   1  11
BRANCH   1  12
ATOM     12  C   UNL     1       4.191   4.831  19.119  0.00  0.00    +0.000 C 
BRANCH  12  13
ATOM     13  C   UNL     1       5.139   4.950  17.887  0.00  0.00    +0.000 A 
ATOM     14  C   UNL     1       4.995   4.126  16.758  0.00  0.00    +0.000 A 
ATOM     15  C   UNL     1       5.833   4.278  15.640  0.00  0.00    +0.000 A 
ATOM     16  C   UNL     1       6.846   5.220  15.642  0.00  0.00    +0.000 A 
ATOM     17  C   UNL     1       7.051   6.027  16.758  0.00  0.00    +0.000 A 
ATOM     18  C   UNL     1       6.209   5.889  17.862  0.00  0.00    +0.000 A 
BRANCH  16  19
ATOM     19  O   UNL     1       7.679   5.420  14.590  0.00  0.00    +0.000 OA
ATOM     20  H   UNL     1       7.198   5.918  13.911  0.00  0.00    +0.000 HD
ENDBRANCH  16  19
ENDBRANCH  12  13
BRANCH  12  21
ATOM     21  C   UNL     1       4.271   3.386  19.582  0.00  0.00    +0.000 C 
ATOM     22  C   UNL     1       4.340   2.145  19.979  0.00  0.00    +0.000 C 
ENDBRANCH  12  21
ENDBRANCH   1  12
TORSDOF 7
ENDMDL
MODEL 3
REMARK VINA RESULT:      -6.9      0.252      5.769
REMARK  Name = 
REMARK  7 active torsions:
REMARK  status: ('A' for Active; 'I' for Inactive)
REMARK    1  A    between atoms: C_2  and  C_3
REMARK    2  A    between atoms: C_3  and  C_4
REMARK    3  A    between atoms: C_3  and  C_11
REMARK    4  A    between atoms: C_7  and  O_8
REMARK    5  A    between atoms: C_11  and  C_12
REMARK    6  A    between atoms: C_11  and  C_14
REMARK    7  A    between atoms: C_17  and  O_18
REMARK                            x       y       z     vdW  Elec       q    Type
REMARK                         _______ _______ _______ _____ _____    ______ ____
ROOT
ATOM      1  C   UNL     1       4.053   5.018  19.102  0.00  0.00    +0.000 C 
ENDROOT
BRANCH   1   2
ATOM      2  C   UNL     1       4.951   5.240  17.826  0.00  0.00    +0.000 A 
ATOM      3  C   UNL     1       4.747   4.526  16.631  0.00  0.00    +0.000 A 
ATOM      4  C   UNL     1       5.700   4.553  15.600  0.00  0.00    +0.000 A 
ATOM      5  C   UNL     1       6.857   5.311  15.736  0.00  0.00    +0.000 A 
ATOM      6  C   UNL     1       7.064   6.071  16.870  0.00  0.00    +0.000 A 
ATOM      7  C   UNL     1       6.109   6.059  17.889  0.00  0.00    +0.000 A 
BRANCH   5   8
ATOM      8  O   UNL     1       7.821   5.328  14.773  0.00  0.00    +0.000 OA
ATOM      9  H   UNL     1       7.688   6.107  14.215  0.00  0.00    +0.000 HD
ENDBRANCH   5   8
ENDBRANCH   1   2
BRANCH   1  11
ATOM     10  C   UNL     1       4.466   2.313  19.799  0.00  0.00    +0.000 C 
ATOM     11  C   UNL     1       4.275   3.562  19.477  0.00  0.00    +0.000 C 
ENDBRANCH   1  11
BRANCH   1  12
ATOM     12  C   UNL     1       2.579   5.246  18.809  0.00  0.00    +0.000 C 
BRANCH  12  13
ATOM     13  C   UNL     1       2.185   6.740  19.020  0.00  0.00    +0.000 A 
ATOM     14  C   UNL     1       2.234   7.675  17.972  0.00  0.00    +0.000 A 
ATOM     15  C   UNL     1       1.834   9.007  18.172  0.00  0.00    +0.000 A 
ATOM     16  C   UNL     1       1.417   9.438  19.418  0.00  0.00    +0.000 A 
ATOM     17  C   UNL     1       1.395   8.554  20.494  0.00  0.00    +0.000 A 
ATOM     18  C   UNL     1       1.776   7.227  20.293  0.00  0.00    +0.000 A 
BRANCH  16  19
ATOM     19  O   UNL     1       1.011  10.707  19.670  0.00  0.00    +0.000 OA
ATOM     20  H   UNL     1       0.073  10.682  19.919  0.00  0.00    +0.000 HD
ENDBRANCH  16  19
ENDBRANCH  12  13
BRANCH  12  21
ATOM     21  C   UNL     1       1.738   4.440  19.785  0.00  0.00    +0.000 C 
ATOM     22  C   UNL     1       1.015   3.749  20.622  0.00  0.00    +0.000 C 
ENDBRANCH  12  21
ENDBRANCH   1  12
TORSDOF 7
ENDMDL
MODEL 4
REMARK VINA RESULT:      -6.9      0.313      5.598
REMARK  Name = 
REMARK  7 active torsions:
REMARK  status: ('A' for Active; 'I' for Inactive)
REMARK    1  A    between atoms: C_2  and  C_3
REMARK    2  A    between atoms: C_3  and  C_4
REMARK    3  A    between atoms: C_3  and  C_11
REMARK    4  A    between atoms: C_7  and  O_8
REMARK    5  A    between atoms: C_11  and  C_12
REMARK    6  A    between atoms: C_11  and  C_14
REMARK    7  A    between atoms: C_17  and  O_18
REMARK                            x       y       z     vdW  Elec       q    Type
REMARK                         _______ _______ _______ _____ _____    ______ ____
ROOT
ATOM      1  C   UNL     1       4.201   4.668  19.270  0.00  0.00    +0.000 C 
ENDROOT
BRANCH   1   2
ATOM      2  C   UNL     1       5.270   4.793  18.118  0.00  0.00    +0.000 A 
ATOM      3  C   UNL     1       6.320   5.726  18.167  0.00  0.00    +0.000 A 
ATOM      4  C   UNL     1       7.105   5.994  17.033  0.00  0.00    +0.000 A 
ATOM      5  C   UNL     1       6.869   5.316  15.843  0.00  0.00    +0.000 A 
ATOM      6  C   UNL     1       5.884   4.350  15.773  0.00  0.00    +0.000 A 
ATOM      7  C   UNL     1       5.114   4.071  16.905  0.00  0.00    +0.000 A 
BRANCH   5   8
ATOM      8  O   UNL     1       7.584   5.579  14.714  0.00  0.00    +0.000 OA
ATOM      9  H   UNL     1       7.258   6.401  14.323  0.00  0.00    +0.000 HD
ENDBRANCH   5   8
ENDBRANCH   1   2
BRANCH   1  11
ATOM     10  C   UNL     1       4.441   2.004  20.174  0.00  0.00    +0.000 C 
ATOM     11  C   UNL     1       4.330   3.234  19.757  0.00  0.00    +0.000 C 
ENDBRANCH   1  11
BRANCH   1  12
ATOM     12  C   UNL     1       2.787   4.907  18.765  0.00  0.00    +0.000 C 
BRANCH  12  13
ATOM     13  C   UNL     1       2.392   6.410  18.879  0.00  0.00    +0.000 A 
ATOM     14  C   UNL     1       2.454   7.279  17.776  0.00  0.00    +0.000 A 
ATOM     15  C   UNL     1       2.053   8.621  17.889  0.00  0.00    +0.000 A 
ATOM     16  C   UNL     1       1.621   9.128  19.102  0.00  0.00    +0.000 A 
ATOM     17  C   UNL     1       1.585   8.312  20.229  0.00  0.00    +0.000 A 
ATOM     18  C   UNL     1       1.968   6.975  20.114  0.00  0.00    +0.000 A 
BRANCH  16  19
ATOM     19  O   UNL     1       1.212  10.410  19.270  0.00  0.00    +0.000 OA
ATOM     20  H   UNL     1       1.765  10.818  19.955  0.00  0.00    +0.000 HD
ENDBRANCH  16  19
ENDBRANCH  12  13
BRANCH  12  21
ATOM     21  C   UNL     1       1.803   4.139  19.631  0.00  0.00    +0.000 C 
ATOM     22  C   UNL     1       0.959   3.479  20.376  0.00  0.00    +0.000 C 
ENDBRANCH  12  21
ENDBRANCH   1  12
TORSDOF 7
ENDMDL
MODEL 5
REMARK VINA RESULT:      -6.9      0.264      5.693
REMARK  Name = 
REMARK  7 active torsions:
REMARK  status: ('A' for Active; 'I' for Inactive)
REMARK    1  A    between atoms: C_2  and  C_3
REMARK    2  A    between atoms: C_3  and  C_4
REMARK    3  A    between atoms: C_3  and  C_11
REMARK    4  A    between atoms: C_7  and  O_8
REMARK    5  A    between atoms: C_11  and  C_12
REMARK    6  A    between atoms: C_11  and  C_14
REMARK    7  A    between atoms: C_17  and  O_18
REMARK                            x       y       z     vdW  Elec       q    Type
REMARK                         _______ _______ _______ _____ _____    ______ ____
ROOT
ATOM      1  C   UNL     1       4.063   4.869  19.145  0.00  0.00    +0.000 C 
ENDROOT
BRANCH   1   2
ATOM      2  C   UNL     1       4.947   5.135  17.867  0.00  0.00    +0.000 A 
ATOM      3  C   UNL     1       4.720   4.474  16.647  0.00  0.00    +0.000 A 
ATOM      4  C   UNL     1       5.660   4.534  15.606  0.00  0.00    +0.000 A 
ATOM      5  C   UNL     1       6.827   5.274  15.757  0.00  0.00    +0.000 A 
ATOM      6  C   UNL     1       7.057   5.984  16.920  0.00  0.00    +0.000 A 
ATOM      7  C   UNL     1       6.115   5.939  17.950  0.00  0.00    +0.000 A 
BRANCH   5   8
ATOM      8  O   UNL     1       7.778   5.322  14.783  0.00  0.00    +0.000 OA
ATOM      9  H   UNL     1       8.312   6.119  14.909  0.00  0.00    +0.000 HD
ENDBRANCH   5   8
ENDBRANCH   1   2
BRANCH   1  11
ATOM     10  C   UNL     1       4.534   2.158  19.782  0.00  0.00    +0.000 C 
ATOM     11  C   UNL     1       4.317   3.410  19.488  0.00  0.00    +0.000 C 
ENDBRANCH   1  11
BRANCH   1  12
ATOM     12  C   UNL     1       2.583   5.074  18.867  0.00  0.00    +0.000 C 
BRANCH  12  13
ATOM     13  C   UNL     1       2.172   6.565  19.061  0.00  0.00    +0.000 A 
ATOM     14  C   UNL     1       1.756   7.064  20.307  0.00  0.00    +0.000 A 
ATOM     15  C   UNL     1       1.432   8.421  20.472  0.00  0.00    +0.000 A 
ATOM     16  C   UNL     1       1.479   9.292  19.397  0.00  0.00    +0.000 A 
ATOM     17  C   UNL     1       1.844   8.829  18.137  0.00  0.00    +0.000 A 
ATOM     18  C   UNL     1       2.183   7.485  17.976  0.00  0.00    +0.000 A 
BRANCH  16  19
ATOM     19  O   UNL     1       1.187  10.613  19.496  0.00  0.00    +0.000 OA
ATOM     20  H   UNL     1       0.774  10.896  18.665  0.00  0.00    +0.000 HD
ENDBRANCH  16  19
ENDBRANCH  12  13
BRANCH  12  21
ATOM     21  C   UNL     1       1.764   4.272  19.865  0.00  0.00    +0.000 C 
ATOM     22  C   UNL     1       1.062   3.584  20.722  0.00  0.00    +0.000 C 
ENDBRANCH  12  21
ENDBRANCH   1  12
TORSDOF 7
ENDMDL
MODEL 6
REMARK VINA RESULT:      -6.8      0.447      5.538
REMARK  Name = 
REMARK  7 active torsions:
REMARK  status: ('A' for Active; 'I' for Inactive)
REMARK    1  A    between atoms: C_2  and  C_3
REMARK    2  A    between atoms: C_3  and  C_4
REMARK    3  A    between atoms: C_3  and  C_11
REMARK    4  A    between atoms: C_7  and  O_8
REMARK    5  A    between atoms: C_11  and  C_12
REMARK    6  A    between atoms: C_11  and  C_14
REMARK    7  A    between atoms: C_17  and  O_18
REMARK                            x       y       z     vdW  Elec       q    Type
REMARK                         _______ _______ _______ _____ _____    ______ ____
ROOT
ATOM      1  C   UNL     1       4.225   4.537  19.287  0.00  0.00    +0.000 C 
ENDROOT
BRANCH   1   2
ATOM      2  C   UNL     1       5.264   4.656  18.107  0.00  0.00    +0.000 A 
ATOM      3  C   UNL     1       6.438   5.422  18.217  0.00  0.00    +0.000 A 
ATOM      4  C   UNL     1       7.217   5.718  17.087  0.00  0.00    +0.000 A 
ATOM      5  C   UNL     1       6.850   5.234  15.837  0.00  0.00    +0.000 A 
ATOM      6  C   UNL     1       5.735   4.430  15.700  0.00  0.00    +0.000 A 
ATOM      7  C   UNL     1       4.969   4.121  16.826  0.00  0.00    +0.000 A 
BRANCH   5   8
ATOM      8  O   UNL     1       7.560   5.535  14.713  0.00  0.00    +0.000 OA
ATOM      9  H   UNL     1       6.948   5.848  14.033  0.00  0.00    +0.000 HD
ENDBRANCH   5   8
ENDBRANCH   1   2
BRANCH   1  11
ATOM     10  C   UNL     1       4.518   1.890  20.226  0.00  0.00    +0.000 C 
ATOM     11  C   UNL     1       4.383   3.112  19.792  0.00  0.00    +0.000 C 
ENDBRANCH   1  11
BRANCH   1  12
ATOM     12  C   UNL     1       2.796   4.751  18.812  0.00  0.00    +0.000 C 
BRANCH  12  13
ATOM     13  C   UNL     1       2.383   6.250  18.920  0.00  0.00    +0.000 A 
ATOM     14  C   UNL     1       1.956   6.815  20.134  0.00  0.00    +0.000 A 
ATOM     15  C   UNL     1       1.628   8.179  20.220  0.00  0.00    +0.000 A 
ATOM     16  C   UNL     1       1.683   8.990  19.101  0.00  0.00    +0.000 A 
ATOM     17  C   UNL     1       2.060   8.459  17.870  0.00  0.00    +0.000 A 
ATOM     18  C   UNL     1       2.402   7.109  17.786  0.00  0.00    +0.000 A 
BRANCH  16  19
ATOM     19  O   UNL     1       1.389  10.314  19.125  0.00  0.00    +0.000 OA
ATOM     20  H   UNL     1       0.482  10.430  18.800  0.00  0.00    +0.000 HD
ENDBRANCH  16  19
ENDBRANCH  12  13
BRANCH  12  21
ATOM     21  C   UNL     1       1.843   3.978  19.708  0.00  0.00    +0.000 C 
ATOM     22  C   UNL     1       1.026   3.316  20.479  0.00  0.00    +0.000 C 
ENDBRANCH  12  21
ENDBRANCH   1  12
TORSDOF 7
ENDMDL
MODEL 7
REMARK VINA RESULT:      -6.6      1.066      1.514
REMARK  Name = 
REMARK  7 active torsions:
REMARK  status: ('A' for Active; 'I' for Inactive)
REMARK    1  A    between atoms: C_2  and  C_3
REMARK    2  A    between atoms: C_3  and  C_4
REMARK    3  A    between atoms: C_3  and  C_11
REMARK    4  A    between atoms: C_7  and  O_8
REMARK    5  A    between atoms: C_11  and  C_12
REMARK    6  A    between atoms: C_11  and  C_14
REMARK    7  A    between atoms: C_17  and  O_18
REMARK                            x       y       z     vdW  Elec       q    Type
REMARK                         _______ _______ _______ _____ _____    ______ ____
ROOT
ATOM      1  C   UNL     1       2.402   4.670  18.680  0.00  0.00    +0.000 C 
ENDROOT
BRANCH   1   2
ATOM      2  C   UNL     1       2.225   6.159  19.168  0.00  0.00    +0.000 A 
ATOM      3  C   UNL     1       1.848   6.477  20.485  0.00  0.00    +0.000 A 
ATOM      4  C   UNL     1       1.455   7.780  20.830  0.00  0.00    +0.000 A 
ATOM      5  C   UNL     1       1.458   8.789  19.874  0.00  0.00    +0.000 A 
ATOM      6  C   UNL     1       1.879   8.527  18.585  0.00  0.00    +0.000 A 
ATOM      7  C   UNL     1       2.286   7.235  18.244  0.00  0.00    +0.000 A 
BRANCH   5   8
ATOM      8  O   UNL     1       1.045  10.054  20.165  0.00  0.00    +0.000 OA
ATOM      9  H   UNL     1       1.582  10.680  19.659  0.00  0.00    +0.000 HD
ENDBRANCH   5   8
ENDBRANCH   1   2
BRANCH   1  11
ATOM     10  C   UNL     1       0.374   3.237  20.025  0.00  0.00    +0.000 C 
ATOM     11  C   UNL     1       1.310   3.899  19.404  0.00  0.00    +0.000 C 
ENDBRANCH   1  11
BRANCH   1  12
ATOM     12  C   UNL     1       3.760   4.102  19.060  0.00  0.00    +0.000 C 
BRANCH  12  13
ATOM     13  C   UNL     1       4.910   4.838  18.308  0.00  0.00    +0.000 A 
ATOM     14  C   UNL     1       4.889   5.020  16.915  0.00  0.00    +0.000 A 
ATOM     15  C   UNL     1       5.915   5.724  16.261  0.00  0.00    +0.000 A 
ATOM     16  C   UNL     1       6.991   6.223  16.973  0.00  0.00    +0.000 A 
ATOM     17  C   UNL     1       7.073   6.027  18.349  0.00  0.00    +0.000 A 
ATOM     18  C   UNL     1       6.047   5.342  19.002  0.00  0.00    +0.000 A 
BRANCH  16  19
ATOM     19  O   UNL     1       8.005   6.918  16.400  0.00  0.00    +0.000 OA
ATOM     20  H   UNL     1       7.719   7.200  15.517  0.00  0.00    +0.000 HD
ENDBRANCH  16  19
ENDBRANCH  12  13
BRANCH  12  21
ATOM     21  C   UNL     1       3.836   2.645  18.637  0.00  0.00    +0.000 C 
ATOM     22  C   UNL     1       3.901   1.394  18.273  0.00  0.00    +0.000 C 
ENDBRANCH  12  21
ENDBRANCH   1  12
TORSDOF 7
ENDMDL
MODEL 8
REMARK VINA RESULT:      -6.6      1.117      5.733
REMARK  Name = 
REMARK  7 active torsions:
REMARK  status: ('A' for Active; 'I' for Inactive)
REMARK    1  A    between atoms: C_2  and  C_3
REMARK    2  A    between atoms: C_3  and  C_4
REMARK    3  A    between atoms: C_3  and  C_11
REMARK    4  A    between atoms: C_7  and  O_8
REMARK    5  A    between atoms: C_11  and  C_12
REMARK    6  A    between atoms: C_11  and  C_14
REMARK    7  A    between atoms: C_17  and  O_18
REMARK                            x       y       z     vdW  Elec       q    Type
REMARK                         _______ _______ _______ _____ _____    ______ ____
ROOT
ATOM      1  C   UNL     1       3.962   3.930  18.582  0.00  0.00    +0.000 C 
ENDROOT
BRANCH   1   2
ATOM      2  C   UNL     1       5.135   4.248  17.578  0.00  0.00    +0.000 A 
ATOM      3  C   UNL     1       6.184   5.127  17.903  0.00  0.00    +0.000 A 
ATOM      4  C   UNL     1       7.073   5.588  16.919  0.00  0.00    +0.000 A 
ATOM      5  C   UNL     1       6.944   5.159  15.603  0.00  0.00    +0.000 A 
ATOM      6  C   UNL     1       5.963   4.250  15.257  0.00  0.00    +0.000 A 
ATOM      7  C   UNL     1       5.088   3.778  16.239  0.00  0.00    +0.000 A 
BRANCH   5   8
ATOM      8  O   UNL     1       7.764   5.616  14.615  0.00  0.00    +0.000 OA
ATOM      9  H   UNL     1       8.503   6.091  15.021  0.00  0.00    +0.000 HD
ENDBRANCH   5   8
ENDBRANCH   1   2
BRANCH   1  11
ATOM     10  C   UNL     1       3.861   1.110  18.685  0.00  0.00    +0.000 C 
ATOM     11  C   UNL     1       3.908   2.412  18.638  0.00  0.00    +0.000 C 
ENDBRANCH   1  11
BRANCH   1  12
ATOM     12  C   UNL     1       2.628   4.468  18.090  0.00  0.00    +0.000 C 
BRANCH  12  13
ATOM     13  C   UNL     1       2.274   5.820  18.780  0.00  0.00    +0.000 A 
ATOM     14  C   UNL     1       1.868   5.883  20.123  0.00  0.00    +0.000 A 
ATOM     15  C   UNL     1       1.594   7.116  20.740  0.00  0.00    +0.000 A 
ATOM     16  C   UNL     1       1.683   8.296  20.024  0.00  0.00    +0.000 A 
ATOM     17  C   UNL     1       2.039   8.274  18.678  0.00  0.00    +0.000 A 
ATOM     18  C   UNL     1       2.328   7.052  18.070  0.00  0.00    +0.000 A 
BRANCH  16  19
ATOM     19  O   UNL     1       1.441   9.516  20.566  0.00  0.00    +0.000 OA
ATOM     20  H   UNL     1       1.678   9.483  21.506  0.00  0.00    +0.000 HD
ENDBRANCH  16  19
ENDBRANCH  12  13
BRANCH  12  21
ATOM     21  C   UNL     1       1.522   3.495  18.461  0.00  0.00    +0.000 C 
ATOM     22  C   UNL     1       0.572   2.659  18.778  0.00  0.00    +0.000 C 
ENDBRANCH  12  21
ENDBRANCH   1  12
TORSDOF 7
ENDMDL
MODEL 9
REMARK VINA RESULT:      -6.6      2.605      5.851
REMARK  Name = 
REMARK  7 active torsions:
REMARK  status: ('A' for Active; 'I' for Inactive)
REMARK    1  A    between atoms: C_2  and  C_3
REMARK    2  A    between atoms: C_3  and  C_4
REMARK    3  A    between atoms: C_3  and  C_11
REMARK    4  A    between atoms: C_7  and  O_8
REMARK    5  A    between atoms: C_11  and  C_12
REMARK    6  A    between atoms: C_11  and  C_14
REMARK    7  A    between atoms: C_17  and  O_18
REMARK                            x       y       z     vdW  Elec       q    Type
REMARK                         _______ _______ _______ _____ _____    ______ ____
ROOT
ATOM      1  C   UNL     1       3.031   4.991  17.839  0.00  0.00    +0.000 C 
ENDROOT
BRANCH   1   2
ATOM      2  C   UNL     1       2.506   4.039  18.981  0.00  0.00    +0.000 A 
ATOM      3  C   UNL     1       1.136   3.893  19.265  0.00  0.00    +0.000 A 
ATOM      4  C   UNL     1       0.705   3.245  20.433  0.00  0.00    +0.000 A 
ATOM      5  C   UNL     1       1.631   2.712  21.322  0.00  0.00    +0.000 A 
ATOM      6  C   UNL     1       2.983   2.785  21.047  0.00  0.00    +0.000 A 
ATOM      7  C   UNL     1       3.413   3.415  19.877  0.00  0.00    +0.000 A 
BRANCH   5   8
ATOM      8  O   UNL     1       1.249   2.113  22.484  0.00  0.00    +0.000 OA
ATOM      9  H   UNL     1       0.861   1.251  22.276  0.00  0.00    +0.000 HD
ENDBRANCH   5   8
ENDBRANCH   1   2
BRANCH   1  11
ATOM     10  C   UNL     1       4.858   3.407  16.381  0.00  0.00    +0.000 C 
ATOM     11  C   UNL     1       4.015   4.138  17.054  0.00  0.00    +0.000 C 
ENDBRANCH   1  11
BRANCH   1  12
ATOM     12  C   UNL     1       3.749   6.209  18.397  0.00  0.00    +0.000 C 
BRANCH  12  13
ATOM     13  C   UNL     1       2.752   7.374  18.677  0.00  0.00    +0.000 A 
ATOM     14  C   UNL     1       2.116   7.523  19.922  0.00  0.00    +0.000 A 
ATOM     15  C   UNL     1       1.254   8.604  20.169  0.00  0.00    +0.000 A 
ATOM     16  C   UNL     1       0.981   9.529  19.177  0.00  0.00    +0.000 A 
ATOM     17  C   UNL     1       1.556   9.394  17.916  0.00  0.00    +0.000 A 
ATOM     18  C   UNL     1       2.426   8.330  17.675  0.00  0.00    +0.000 A 
BRANCH  16  19
ATOM     19  O   UNL     1       0.166  10.597  19.359  0.00  0.00    +0.000 OA
ATOM     20  H   UNL     1      -0.165  10.576  20.270  0.00  0.00    +0.000 HD
ENDBRANCH  16  19
ENDBRANCH  12  13
BRANCH  12  21
ATOM     21  C   UNL     1       4.737   6.731  17.367  0.00  0.00    +0.000 C 
ATOM     22  C   UNL     1       5.584   7.178  16.482  0.00  0.00    +0.000 C 
ENDBRANCH  12  21
ENDBRANCH   1  12
TORSDOF 7
ENDMDL
