MODEL 1
REMARK VINA RESULT:      -8.8      0.000      0.000
REMARK  Name = 
REMARK  7 active torsions:
REMARK  status: ('A' for Active; 'I' for Inactive)
REMARK    1  A    between atoms: C_1  and  N_2
REMARK    2  A    between atoms: N_2  and  C_18
REMARK    3  A    between atoms: C_3  and  C_5
REMARK    4  A    between atoms: C_7  and  C_8
REMARK    5  A    between atoms: C_18  and  C_19
REMARK    6  A    between atoms: C_18  and  C_20
REMARK    7  A    between atoms: C_18  and  C_21
REMARK                            x       y       z     vdW  Elec       q    Type
REMARK                         _______ _______ _______ _____ _____    ______ ____
ROOT
ATOM      1  C   UNL     1       4.955   4.507  18.017  0.00  0.00    +0.000 A 
ATOM      2  C   UNL     1       5.115   4.462  16.631  0.00  0.00    +0.000 A 
ATOM      3  C   UNL     1       6.402   4.580  16.070  0.00  0.00    +0.000 A 
ATOM      4  C   UNL     1       7.475   4.772  16.949  0.00  0.00    +0.000 A 
ATOM      5  C   UNL     1       7.237   4.798  18.303  0.00  0.00    +0.000 A 
ATOM      6  N   UNL     1       6.014   4.664  18.835  0.00  0.00    +0.000 NA
ENDROOT
BRANCH   3   7
ATOM      7  C   UNL     1       6.643   4.474  14.613  0.00  0.00    +0.000 A 
ATOM      8  C   UNL     1       7.599   5.268  13.955  0.00  0.00    +0.000 A 
ATOM      9  C   UNL     1       7.800   5.173  12.572  0.00  0.00    +0.000 A 
ATOM     10  C   UNL     1       7.052   4.264  11.822  0.00  0.00    +0.000 A 
ATOM     11  C   UNL     1       6.109   3.463  12.454  0.00  0.00    +0.000 A 
ATOM     12 CL   UNL     1       5.190   2.334  11.539  0.00  0.00    +0.000 Cl
ATOM     13  C   UNL     1       5.902   3.567  13.828  0.00  0.00    +0.000 A 
ENDBRANCH   3   7
BRANCH   1  16
ATOM     14  C   UNL     1       4.141   2.386  20.118  0.00  0.00    +0.000 C 
ATOM     15  N   UNL     1       3.223   3.415  19.619  0.00  0.00    +0.000 N 
ATOM     16  C   UNL     1       3.565   4.388  18.633  0.00  0.00    +0.000 C 
ATOM     17  O   UNL     1       2.729   5.202  18.221  0.00  0.00    +0.000 OA
BRANCH  15  18
ATOM     18  C   UNL     1       1.812   3.366  20.167  0.00  0.00    +0.000 C 
ATOM     19  C   UNL     1       1.699   2.505  21.460  0.00  0.00    +0.000 C 
ATOM     20  C   UNL     1       1.338   4.783  20.552  0.00  0.00    +0.000 C 
ATOM     21  C   UNL     1       0.821   2.736  19.165  0.00  0.00    +0.000 C 
ENDBRANCH  15  18
ENDBRANCH   1  16
TORSDOF 3
ENDMDL
MODEL 2
REMARK VINA RESULT:      -8.6      1.137      1.643
REMARK  Name = 
REMARK  7 active torsions:
REMARK  status: ('A' for Active; 'I' for Inactive)
REMARK    1  A    between atoms: C_1  and  N_2
REMARK    2  A    between atoms: N_2  and  C_18
REMARK    3  A    between atoms: C_3  and  C_5
REMARK    4  A    between atoms: C_7  and  C_8
REMARK    5  A    between atoms: C_18  and  C_19
REMARK    6  A    between atoms: C_18  and  C_20
REMARK    7  A    between atoms: C_18  and  C_21
REMARK                            x       y       z     vdW  Elec       q    Type
REMARK                         _______ _______ _______ _____ _____    ______ ____
ROOT
ATOM      1  C   UNL     1       5.436   4.510  18.204  0.00  0.00    +0.000 A 
ATOM      2  C   UNL     1       5.579   4.281  16.835  0.00  0.00    +0.000 A 
ATOM      3  C   UNL     1       6.510   5.033  16.092  0.00  0.00    +0.000 A 
ATOM      4  C   UNL     1       7.239   6.015  16.774  0.00  0.00    +0.000 A 
ATOM      5  C   UNL     1       7.047   6.176  18.126  0.00  0.00    +0.000 A 
ATOM      6  N   UNL     1       6.175   5.443  18.835  0.00  0.00    +0.000 NA
ENDROOT
BRANCH   3   7
ATOM      7  C   UNL     1       6.755   4.791  14.652  0.00  0.00    +0.000 A 
ATOM      8  C   UNL     1       7.721   5.511  13.928  0.00  0.00    +0.000 A 
ATOM      9  C   UNL     1       7.924   5.289  12.560  0.00  0.00    +0.000 A 
ATOM     10  C   UNL     1       7.169   4.323  11.893  0.00  0.00    +0.000 A 
ATOM     11  C   UNL     1       6.216   3.592  12.592  0.00  0.00    +0.000 A 
ATOM     12 CL   UNL     1       5.288   2.393  11.781  0.00  0.00    +0.000 Cl
ATOM     13  C   UNL     1       6.006   3.824  13.951  0.00  0.00    +0.000 A 
ENDBRANCH   3   7
BRANCH   1  16
ATOM     14  C   UNL     1       2.443   5.240  18.497  0.00  0.00    +0.000 C 
ATOM     15  N   UNL     1       3.044   4.052  19.114  0.00  0.00    +0.000 N 
ATOM     16  C   UNL     1       4.425   3.706  19.016  0.00  0.00    +0.000 C 
ATOM     17  O   UNL     1       4.878   2.714  19.598  0.00  0.00    +0.000 OA
BRANCH  15  18
ATOM     18  C   UNL     1       2.115   3.199  19.952  0.00  0.00    +0.000 C 
ATOM     19  C   UNL     1       0.788   3.932  20.315  0.00  0.00    +0.000 C 
ATOM     20  C   UNL     1       1.706   1.931  19.175  0.00  0.00    +0.000 C 
ATOM     21  C   UNL     1       2.749   2.804  21.303  0.00  0.00    +0.000 C 
ENDBRANCH  15  18
ENDBRANCH   1  16
TORSDOF 3
ENDMDL
MODEL 3
REMARK VINA RESULT:      -8.5      0.613      1.130
REMARK  Name = 
REMARK  7 active torsions:
REMARK  status: ('A' for Active; 'I' for Inactive)
REMARK    1  A    between atoms: C_1  and  N_2
REMARK    2  A    between atoms: N_2  and  C_18
REMARK    3  A    between atoms: C_3  and  C_5
REMARK    4  A    between atoms: C_7  and  C_8
REMARK    5  A    between atoms: C_18  and  C_19
REMARK    6  A    between atoms: C_18  and  C_20
REMARK    7  A    between atoms: C_18  and  C_21
REMARK                            x       y       z     vdW  Elec       q    Type
REMARK                         _______ _______ _______ _____ _____    ______ ____
ROOT
ATOM      1  C   UNL     1       4.603   5.042  17.777  0.00  0.00    +0.000 A 
ATOM      2  C   UNL     1       4.881   4.746  16.442  0.00  0.00    +0.000 A 
ATOM      3  C   UNL     1       6.113   5.136  15.879  0.00  0.00    +0.000 A 
ATOM      4  C   UNL     1       7.002   5.843  16.698  0.00  0.00    +0.000 A 
ATOM      5  C   UNL     1       6.659   6.090  18.006  0.00  0.00    +0.000 A 
ATOM      6  N   UNL     1       5.494   5.699  18.544  0.00  0.00    +0.000 NA
ENDROOT
BRANCH   3   7
ATOM      7  C   UNL     1       6.493   4.793  14.490  0.00  0.00    +0.000 A 
ATOM      8  C   UNL     1       7.557   5.430  13.829  0.00  0.00    +0.000 A 
ATOM      9  C   UNL     1       7.890   5.113  12.505  0.00  0.00    +0.000 A 
ATOM     10  C   UNL     1       7.166   4.134  11.822  0.00  0.00    +0.000 A 
ATOM     11  C   UNL     1       6.117   3.485  12.461  0.00  0.00    +0.000 A 
ATOM     12 CL   UNL     1       5.226   2.270  11.631  0.00  0.00    +0.000 Cl
ATOM     13  C   UNL     1       5.779   3.811  13.773  0.00  0.00    +0.000 A 
ENDBRANCH   3   7
BRANCH   1  16
ATOM     14  C   UNL     1       4.235   2.705  19.771  0.00  0.00    +0.000 C 
ATOM     15  N   UNL     1       3.132   3.563  19.329  0.00  0.00    +0.000 N 
ATOM     16  C   UNL     1       3.269   4.631  18.392  0.00  0.00    +0.000 C 
ATOM     17  O   UNL     1       2.289   5.291  18.026  0.00  0.00    +0.000 OA
BRANCH  15  18
ATOM     18  C   UNL     1       1.764   3.222  19.880  0.00  0.00    +0.000 C 
ATOM     19  C   UNL     1       0.940   4.485  20.271  0.00  0.00    +0.000 C 
ATOM     20  C   UNL     1       0.929   2.476  18.819  0.00  0.00    +0.000 C 
ATOM     21  C   UNL     1       1.851   2.374  21.167  0.00  0.00    +0.000 C 
ENDBRANCH  15  18
ENDBRANCH   1  16
TORSDOF 3
ENDMDL
MODEL 4
REMARK VINA RESULT:      -8.1      0.705      1.082
REMARK  Name = 
REMARK  7 active torsions:
REMARK  status: ('A' for Active; 'I' for Inactive)
REMARK    1  A    between atoms: C_1  and  N_2
REMARK    2  A    between atoms: N_2  and  C_18
REMARK    3  A    between atoms: C_3  and  C_5
REMARK    4  A    between atoms: C_7  and  C_8
REMARK    5  A    between atoms: C_18  and  C_19
REMARK    6  A    between atoms: C_18  and  C_20
REMARK    7  A    between atoms: C_18  and  C_21
REMARK                            x       y       z     vdW  Elec       q    Type
REMARK                         _______ _______ _______ _____ _____    ______ ____
ROOT
ATOM      1  C   UNL     1       5.282   4.422  18.318  0.00  0.00    +0.000 A 
ATOM      2  C   UNL     1       5.350   4.427  16.924  0.00  0.00    +0.000 A 
ATOM      3  C   UNL     1       6.597   4.562  16.284  0.00  0.00    +0.000 A 
ATOM      4  C   UNL     1       7.727   4.718  17.096  0.00  0.00    +0.000 A 
ATOM      5  C   UNL     1       7.580   4.696  18.463  0.00  0.00    +0.000 A 
ATOM      6  N   UNL     1       6.393   4.546  19.070  0.00  0.00    +0.000 NA
ENDROOT
BRANCH   3   7
ATOM      7  C   UNL     1       6.742   4.507  14.811  0.00  0.00    +0.000 A 
ATOM      8  C   UNL     1       7.731   5.238  14.131  0.00  0.00    +0.000 A 
ATOM      9  C   UNL     1       7.841   5.196  12.735  0.00  0.00    +0.000 A 
ATOM     10  C   UNL     1       6.963   4.403  11.993  0.00  0.00    +0.000 A 
ATOM     11  C   UNL     1       5.985   3.664  12.646  0.00  0.00    +0.000 A 
ATOM     12 CL   UNL     1       4.907   2.676  11.741  0.00  0.00    +0.000 Cl
ATOM     13  C   UNL     1       5.870   3.717  14.034  0.00  0.00    +0.000 A 
ENDBRANCH   3   7
BRANCH   1  16
ATOM     14  C   UNL     1       3.555   1.854  18.320  0.00  0.00    +0.000 C 
ATOM     15  N   UNL     1       3.170   3.080  19.025  0.00  0.00    +0.000 N 
ATOM     16  C   UNL     1       3.935   4.285  19.020  0.00  0.00    +0.000 C 
ATOM     17  O   UNL     1       3.531   5.301  19.600  0.00  0.00    +0.000 OA
BRANCH  15  18
ATOM     18  C   UNL     1       1.837   3.042  19.743  0.00  0.00    +0.000 C 
ATOM     19  C   UNL     1       0.829   2.051  19.086  0.00  0.00    +0.000 C 
ATOM     20  C   UNL     1       2.024   2.563  21.197  0.00  0.00    +0.000 C 
ATOM     21  C   UNL     1       1.131   4.414  19.731  0.00  0.00    +0.000 C 
ENDBRANCH  15  18
ENDBRANCH   1  16
TORSDOF 3
ENDMDL
MODEL 5
REMARK VINA RESULT:      -8.0      1.172      1.829
REMARK  Name = 
REMARK  7 active torsions:
REMARK  status: ('A' for Active; 'I' for Inactive)
REMARK    1  A    between atoms: C_1  and  N_2
REMARK    2  A    between atoms: N_2  and  C_18
REMARK    3  A    between atoms: C_3  and  C_5
REMARK    4  A    between atoms: C_7  and  C_8
REMARK    5  A    between atoms: C_18  and  C_19
REMARK    6  A    between atoms: C_18  and  C_20
REMARK    7  A    between atoms: C_18  and  C_21
REMARK                            x       y       z     vdW  Elec       q    Type
REMARK                         _______ _______ _______ _____ _____    ______ ____
ROOT
ATOM      1  C   UNL     1       4.964   4.526  18.136  0.00  0.00    +0.000 A 
ATOM      2  C   UNL     1       5.083   4.481  16.746  0.00  0.00    +0.000 A 
ATOM      3  C   UNL     1       6.356   4.561  16.149  0.00  0.00    +0.000 A 
ATOM      4  C   UNL     1       7.459   4.718  16.997  0.00  0.00    +0.000 A 
ATOM      5  C   UNL     1       7.261   4.747  18.357  0.00  0.00    +0.000 A 
ATOM      6  N   UNL     1       6.050   4.648  18.924  0.00  0.00    +0.000 NA
ENDROOT
BRANCH   3   7
ATOM      7  C   UNL     1       6.552   4.452  14.685  0.00  0.00    +0.000 A 
ATOM      8  C   UNL     1       5.914   3.461  13.919  0.00  0.00    +0.000 A 
ATOM      9  C   UNL     1       6.129   3.353  12.538  0.00  0.00    +0.000 A 
ATOM     10  C   UNL     1       6.980   4.254  11.896  0.00  0.00    +0.000 A 
ATOM     11  C   UNL     1       7.612   5.248  12.633  0.00  0.00    +0.000 A 
ATOM     12 CL   UNL     1       8.654   6.368  11.848  0.00  0.00    +0.000 Cl
ATOM     13  C   UNL     1       7.408   5.345  14.008  0.00  0.00    +0.000 A 
ENDBRANCH   3   7
BRANCH   1  16
ATOM     14  C   UNL     1       4.095   2.328  20.134  0.00  0.00    +0.000 C 
ATOM     15  N   UNL     1       3.222   3.435  19.730  0.00  0.00    +0.000 N 
ATOM     16  C   UNL     1       3.589   4.447  18.792  0.00  0.00    +0.000 C 
ATOM     17  O   UNL     1       2.789   5.330  18.459  0.00  0.00    +0.000 OA
BRANCH  15  18
ATOM     18  C   UNL     1       1.829   3.433  20.323  0.00  0.00    +0.000 C 
ATOM     19  C   UNL     1       0.767   2.822  19.360  0.00  0.00    +0.000 C 
ATOM     20  C   UNL     1       1.793   2.572  21.602  0.00  0.00    +0.000 C 
ATOM     21  C   UNL     1       1.328   4.859  20.636  0.00  0.00    +0.000 C 
ENDBRANCH  15  18
ENDBRANCH   1  16
TORSDOF 3
ENDMDL
MODEL 6
REMARK VINA RESULT:      -7.9      1.585      2.244
REMARK  Name = 
REMARK  7 active torsions:
REMARK  status: ('A' for Active; 'I' for Inactive)
REMARK    1  A    between atoms: C_1  and  N_2
REMARK    2  A    between atoms: N_2  and  C_18
REMARK    3  A    between atoms: C_3  and  C_5
REMARK    4  A    between atoms: C_7  and  C_8
REMARK    5  A    between atoms: C_18  and  C_19
REMARK    6  A    between atoms: C_18  and  C_20
REMARK    7  A    between atoms: C_18  and  C_21
REMARK                            x       y       z     vdW  Elec       q    Type
REMARK                         _______ _______ _______ _____ _____    ______ ____
ROOT
ATOM      1  C   UNL     1       5.460   4.169  18.414  0.00  0.00    +0.000 A 
ATOM      2  C   UNL     1       5.506   4.042  17.025  0.00  0.00    +0.000 A 
ATOM      3  C   UNL     1       6.519   4.694  16.295  0.00  0.00    +0.000 A 
ATOM      4  C   UNL     1       7.429   5.480  17.013  0.00  0.00    +0.000 A 
ATOM      5  C   UNL     1       7.323   5.550  18.382  0.00  0.00    +0.000 A 
ATOM      6  N   UNL     1       6.370   4.910  19.076  0.00  0.00    +0.000 NA
ENDROOT
BRANCH   3   7
ATOM      7  C   UNL     1       6.660   4.544  14.829  0.00  0.00    +0.000 A 
ATOM      8  C   UNL     1       5.997   3.530  14.115  0.00  0.00    +0.000 A 
ATOM      9  C   UNL     1       6.160   3.385  12.731  0.00  0.00    +0.000 A 
ATOM     10  C   UNL     1       6.984   4.268  12.032  0.00  0.00    +0.000 A 
ATOM     11  C   UNL     1       7.641   5.284  12.717  0.00  0.00    +0.000 A 
ATOM     12 CL   UNL     1       8.650   6.382  11.862  0.00  0.00    +0.000 Cl
ATOM     13  C   UNL     1       7.488   5.419  14.095  0.00  0.00    +0.000 A 
ENDBRANCH   3   7
BRANCH   1  16
ATOM     14  C   UNL     1       2.590   5.267  18.780  0.00  0.00    +0.000 C 
ATOM     15  N   UNL     1       3.039   3.991  19.346  0.00  0.00    +0.000 N 
ATOM     16  C   UNL     1       4.362   3.473  19.213  0.00  0.00    +0.000 C 
ATOM     17  O   UNL     1       4.690   2.409  19.752  0.00  0.00    +0.000 OA
BRANCH  15  18
ATOM     18  C   UNL     1       2.017   3.234  20.167  0.00  0.00    +0.000 C 
ATOM     19  C   UNL     1       0.704   4.043  20.389  0.00  0.00    +0.000 C 
ATOM     20  C   UNL     1       1.604   1.935  19.445  0.00  0.00    +0.000 C 
ATOM     21  C   UNL     1       2.539   2.902  21.582  0.00  0.00    +0.000 C 
ENDBRANCH  15  18
ENDBRANCH   1  16
TORSDOF 3
ENDMDL
MODEL 7
REMARK VINA RESULT:      -7.7      1.532      1.987
REMARK  Name = 
REMARK  7 active torsions:
REMARK  status: ('A' for Active; 'I' for Inactive)
REMARK    1  A    between atoms: C_1  and  N_2
REMARK    2  A    between atoms: N_2  and  C_18
REMARK    3  A    between atoms: C_3  and  C_5
REMARK    4  A    between atoms: C_7  and  C_8
REMARK    5  A    between atoms: C_18  and  C_19
REMARK    6  A    between atoms: C_18  and  C_20
REMARK    7  A    between atoms: C_18  and  C_21
REMARK                            x       y       z     vdW  Elec       q    Type
REMARK                         _______ _______ _______ _____ _____    ______ ____
ROOT
ATOM      1  C   UNL     1       5.373   4.154  18.256  0.00  0.00    +0.000 A 
ATOM      2  C   UNL     1       5.439   4.053  16.866  0.00  0.00    +0.000 A 
ATOM      3  C   UNL     1       6.499   4.665  16.168  0.00  0.00    +0.000 A 
ATOM      4  C   UNL     1       7.436   5.386  16.919  0.00  0.00    +0.000 A 
ATOM      5  C   UNL     1       7.306   5.433  18.287  0.00  0.00    +0.000 A 
ATOM      6  N   UNL     1       6.308   4.831  18.950  0.00  0.00    +0.000 NA
ENDROOT
BRANCH   3   7
ATOM      7  C   UNL     1       6.660   4.537  14.702  0.00  0.00    +0.000 A 
ATOM      8  C   UNL     1       6.002   3.538  13.963  0.00  0.00    +0.000 A 
ATOM      9  C   UNL     1       6.184   3.413  12.580  0.00  0.00    +0.000 A 
ATOM     10  C   UNL     1       7.022   4.304  11.906  0.00  0.00    +0.000 A 
ATOM     11  C   UNL     1       7.674   5.304  12.616  0.00  0.00    +0.000 A 
ATOM     12 CL   UNL     1       8.700   6.411  11.793  0.00  0.00    +0.000 Cl
ATOM     13  C   UNL     1       7.502   5.419  13.994  0.00  0.00    +0.000 A 
ENDBRANCH   3   7
BRANCH   1  16
ATOM     14  C   UNL     1       2.851   5.648  19.249  0.00  0.00    +0.000 C 
ATOM     15  N   UNL     1       3.061   4.210  19.445  0.00  0.00    +0.000 N 
ATOM     16  C   UNL     1       4.225   3.501  19.020  0.00  0.00    +0.000 C 
ATOM     17  O   UNL     1       4.361   2.294  19.256  0.00  0.00    +0.000 OA
BRANCH  15  18
ATOM     18  C   UNL     1       1.976   3.479  20.207  0.00  0.00    +0.000 C 
ATOM     19  C   UNL     1       2.485   2.877  21.551  0.00  0.00    +0.000 C 
ATOM     20  C   UNL     1       0.834   4.448  20.576  0.00  0.00    +0.000 C 
ATOM     21  C   UNL     1       1.410   2.284  19.410  0.00  0.00    +0.000 C 
ENDBRANCH  15  18
ENDBRANCH   1  16
TORSDOF 3
ENDMDL
MODEL 8
REMARK VINA RESULT:      -7.2      5.347      8.618
REMARK  Name = 
REMARK  7 active torsions:
REMARK  status: ('A' for Active; 'I' for Inactive)
REMARK    1  A    between atoms: C_1  and  N_2
REMARK    2  A    between atoms: N_2  and  C_18
REMARK    3  A    between atoms: C_3  and  C_5
REMARK    4  A    between atoms: C_7  and  C_8
REMARK    5  A    between atoms: C_18  and  C_19
REMARK    6  A    between atoms: C_18  and  C_20
REMARK    7  A    between atoms: C_18  and  C_21
REMARK                            x       y       z     vdW  Elec       q    Type
REMARK                         _______ _______ _______ _____ _____    ______ ____
ROOT
ATOM      1  C   UNL     1       2.558   7.058  18.990  0.00  0.00    +0.000 A 
ATOM      2  C   UNL     1       1.889   7.644  20.065  0.00  0.00    +0.000 A 
ATOM      3  C   UNL     1       1.287   8.909  19.911  0.00  0.00    +0.000 A 
ATOM      4  C   UNL     1       1.421   9.541  18.669  0.00  0.00    +0.000 A 
ATOM      5  C   UNL     1       2.090   8.895  17.656  0.00  0.00    +0.000 A 
ATOM      6  N   UNL     1       2.643   7.682  17.799  0.00  0.00    +0.000 NA
ENDROOT
BRANCH   3   7
ATOM      7  C   UNL     1       0.507   9.551  20.992  0.00  0.00    +0.000 A 
ATOM      8  C   UNL     1       0.502   9.053  22.307  0.00  0.00    +0.000 A 
ATOM      9  C   UNL     1      -0.261   9.657  23.315  0.00  0.00    +0.000 A 
ATOM     10  C   UNL     1      -1.025  10.789  23.024  0.00  0.00    +0.000 A 
ATOM     11  C   UNL     1      -1.026  11.304  21.733  0.00  0.00    +0.000 A 
ATOM     12 CL   UNL     1      -1.957  12.703  21.368  0.00  0.00    +0.000 Cl
ATOM     13  C   UNL     1      -0.277  10.694  20.729  0.00  0.00    +0.000 A 
ENDBRANCH   3   7
BRANCH   1  16
ATOM     14  C   UNL     1       1.393   4.405  17.904  0.00  0.00    +0.000 C 
ATOM     15  N   UNL     1       2.672   4.487  18.618  0.00  0.00    +0.000 N 
ATOM     16  C   UNL     1       3.219   5.693  19.150  0.00  0.00    +0.000 C 
ATOM     17  O   UNL     1       4.283   5.688  19.782  0.00  0.00    +0.000 OA
BRANCH  15  18
ATOM     18  C   UNL     1       3.396   3.175  18.835  0.00  0.00    +0.000 C 
ATOM     19  C   UNL     1       4.936   3.298  18.636  0.00  0.00    +0.000 C 
ATOM     20  C   UNL     1       3.188   2.681  20.281  0.00  0.00    +0.000 C 
ATOM     21  C   UNL     1       2.939   2.088  17.839  0.00  0.00    +0.000 C 
ENDBRANCH  15  18
ENDBRANCH   1  16
TORSDOF 3
ENDMDL
MODEL 9
REMARK VINA RESULT:      -7.1      5.885      8.162
REMARK  Name = 
REMARK  7 active torsions:
REMARK  status: ('A' for Active; 'I' for Inactive)
REMARK    1  A    between atoms: C_1  and  N_2
REMARK    2  A    between atoms: N_2  and  C_18
REMARK    3  A    between atoms: C_3  and  C_5
REMARK    4  A    between atoms: C_7  and  C_8
REMARK    5  A    between atoms: C_18  and  C_19
REMARK    6  A    between atoms: C_18  and  C_20
REMARK    7  A    between atoms: C_18  and  C_21
REMARK                            x       y       z     vdW  Elec       q    Type
REMARK                         _______ _______ _______ _____ _____    ______ ____
ROOT
ATOM      1  C   UNL     1       1.206   9.492  19.954  0.00  0.00    +0.000 A 
ATOM      2  C   UNL     1       1.560   8.179  20.270  0.00  0.00    +0.000 A 
ATOM      3  C   UNL     1       2.170   7.364  19.296  0.00  0.00    +0.000 A 
ATOM      4  C   UNL     1       2.368   7.916  18.024  0.00  0.00    +0.000 A 
ATOM      5  C   UNL     1       1.999   9.220  17.792  0.00  0.00    +0.000 A 
ATOM      6  N   UNL     1       1.437   9.999  18.728  0.00  0.00    +0.000 NA
ENDROOT
BRANCH   3   7
ATOM      7  C   UNL     1       2.629   5.988  19.590  0.00  0.00    +0.000 A 
ATOM      8  C   UNL     1       3.845   5.484  19.095  0.00  0.00    +0.000 A 
ATOM      9  C   UNL     1       4.254   4.171  19.360  0.00  0.00    +0.000 A 
ATOM     10  C   UNL     1       3.453   3.339  20.145  0.00  0.00    +0.000 A 
ATOM     11  C   UNL     1       2.252   3.820  20.652  0.00  0.00    +0.000 A 
ATOM     12 CL   UNL     1       1.265   2.805  21.628  0.00  0.00    +0.000 Cl
ATOM     13  C   UNL     1       1.841   5.123  20.376  0.00  0.00    +0.000 A 
ENDBRANCH   3   7
BRANCH   1  16
ATOM     14  C   UNL     1      -1.382  11.120  19.478  0.00  0.00    +0.000 C 
ATOM     15  N   UNL     1      -0.671  11.101  20.760  0.00  0.00    +0.000 N 
ATOM     16  C   UNL     1       0.537  10.379  20.999  0.00  0.00    +0.000 C 
ATOM     17  O   UNL     1       1.113  10.440  22.093  0.00  0.00    +0.000 OA
BRANCH  15  18
ATOM     18  C   UNL     1      -1.257  11.965  21.857  0.00  0.00    +0.000 C 
ATOM     19  C   UNL     1      -2.654  12.545  21.483  0.00  0.00    +0.000 C 
ATOM     20  C   UNL     1      -1.466  11.135  23.140  0.00  0.00    +0.000 C 
ATOM     21  C   UNL     1      -0.372  13.191  22.165  0.00  0.00    +0.000 C 
ENDBRANCH  15  18
ENDBRANCH   1  16
TORSDOF 3
ENDMDL
