MODEL 1
REMARK VINA RESULT:      -6.2      0.000      0.000
REMARK  Name = 
REMARK  8 active torsions:
REMARK  status: ('A' for Active; 'I' for Inactive)
REMARK    1  A    between atoms: C_1  and  C_2
REMARK    2  A    between atoms: C_5  and  C_6
REMARK    3  A    between atoms: N_8  and  C_9
REMARK    4  A    between atoms: N_8  and  C_12
REMARK    5  A    between atoms: C_9  and  C_10
REMARK    6  A    between atoms: C_9  and  C_11
REMARK    7  A    between atoms: C_12  and  C_13
REMARK    8  A    between atoms: C_12  and  C_14
REMARK                            x       y       z     vdW  Elec       q    Type
REMARK                         _______ _______ _______ _____ _____    ______ ____
ROOT
ATOM      1  C   UNL     1       4.414   3.435  19.499  0.00  0.00    +0.000 C 
ATOM      2  O   UNL     1       4.823   2.337  19.896  0.00  0.00    +0.000 OA
ATOM      3  N   UNL     1       3.028   3.730  19.669  0.00  0.00    +0.000 N 
ENDROOT
BRANCH   1   8
ATOM      4  C   UNL     1       6.980   4.822  15.667  0.00  0.00    +0.000 C 
ATOM      5  C   UNL     1       6.594   4.937  17.088  0.00  0.00    +0.000 A 
ATOM      6  C   UNL     1       7.029   5.725  18.125  0.00  0.00    +0.000 A 
ATOM      7  C   UNL     1       6.254   5.352  19.256  0.00  0.00    +0.000 A 
ATOM      8  C   UNL     1       5.390   4.339  18.874  0.00  0.00    +0.000 A 
ATOM      9  O   UNL     1       5.613   4.109  17.526  0.00  0.00    +0.000 OA
ENDBRANCH   1   8
BRANCH   3  10
ATOM     10  C   UNL     1       2.283   4.903  19.163  0.00  0.00    +0.000 C 
ATOM     11  C   UNL     1       2.611   6.205  19.891  0.00  0.00    +0.000 C 
ATOM     12  C   UNL     1       2.237   5.001  17.639  0.00  0.00    +0.000 C 
ENDBRANCH   3  10
BRANCH   3  13
ATOM     13  C   UNL     1       2.205   2.641  20.280  0.00  0.00    +0.000 C 
ATOM     14  C   UNL     1       1.764   2.961  21.712  0.00  0.00    +0.000 C 
ATOM     15  C   UNL     1       1.005   2.258  19.404  0.00  0.00    +0.000 C 
ENDBRANCH   3  13
TORSDOF 3
ENDMDL
MODEL 2
REMARK VINA RESULT:      -6.0      0.771      1.380
REMARK  Name = 
REMARK  8 active torsions:
REMARK  status: ('A' for Active; 'I' for Inactive)
REMARK    1  A    between atoms: C_1  and  C_2
REMARK    2  A    between atoms: C_5  and  C_6
REMARK    3  A    between atoms: N_8  and  C_9
REMARK    4  A    between atoms: N_8  and  C_12
REMARK    5  A    between atoms: C_9  and  C_10
REMARK    6  A    between atoms: C_9  and  C_11
REMARK    7  A    between atoms: C_12  and  C_13
REMARK    8  A    between atoms: C_12  and  C_14
REMARK                            x       y       z     vdW  Elec       q    Type
REMARK                         _______ _______ _______ _____ _____    ______ ____
ROOT
ATOM      1  C   UNL     1       4.473   3.302  19.322  0.00  0.00    +0.000 C 
ATOM      2  O   UNL     1       4.901   2.236  19.781  0.00  0.00    +0.000 OA
ATOM      3  N   UNL     1       3.133   3.674  19.643  0.00  0.00    +0.000 N 
ENDROOT
BRANCH   1   8
ATOM      4  C   UNL     1       8.030   6.512  18.836  0.00  0.00    +0.000 C 
ATOM      5  C   UNL     1       7.006   5.607  18.276  0.00  0.00    +0.000 A 
ATOM      6  C   UNL     1       6.577   5.339  16.999  0.00  0.00    +0.000 A 
ATOM      7  C   UNL     1       5.551   4.364  17.124  0.00  0.00    +0.000 A 
ATOM      8  C   UNL     1       5.377   4.088  18.471  0.00  0.00    +0.000 A 
ATOM      9  O   UNL     1       6.297   4.861  19.161  0.00  0.00    +0.000 OA
ENDBRANCH   1   8
BRANCH   3  10
ATOM     10  C   UNL     1       2.358   4.817  19.112  0.00  0.00    +0.000 C 
ATOM     11  C   UNL     1       2.940   6.182  19.480  0.00  0.00    +0.000 C 
ATOM     12  C   UNL     1       1.937   4.659  17.653  0.00  0.00    +0.000 C 
ENDBRANCH   3  10
BRANCH   3  13
ATOM     13  C   UNL     1       2.372   2.696  20.480  0.00  0.00    +0.000 C 
ATOM     14  C   UNL     1       1.988   3.259  21.852  0.00  0.00    +0.000 C 
ATOM     15  C   UNL     1       1.147   2.135  19.748  0.00  0.00    +0.000 C 
ENDBRANCH   3  13
TORSDOF 3
ENDMDL
MODEL 3
REMARK VINA RESULT:      -5.9      1.446      2.487
REMARK  Name = 
REMARK  8 active torsions:
REMARK  status: ('A' for Active; 'I' for Inactive)
REMARK    1  A    between atoms: C_1  and  C_2
REMARK    2  A    between atoms: C_5  and  C_6
REMARK    3  A    between atoms: N_8  and  C_9
REMARK    4  A    between atoms: N_8  and  C_12
REMARK    5  A    between atoms: C_9  and  C_10
REMARK    6  A    between atoms: C_9  and  C_11
REMARK    7  A    between atoms: C_12  and  C_13
REMARK    8  A    between atoms: C_12  and  C_14
REMARK                            x       y       z     vdW  Elec       q    Type
REMARK                         _______ _______ _______ _____ _____    ______ ____
ROOT
ATOM      1  C   UNL     1       3.497   4.821  19.139  0.00  0.00    +0.000 C 
ATOM      2  O   UNL     1       2.836   5.846  19.346  0.00  0.00    +0.000 OA
ATOM      3  N   UNL     1       2.866   3.563  19.381  0.00  0.00    +0.000 N 
ENDROOT
BRANCH   1   8
ATOM      4  C   UNL     1       6.810   4.520  15.657  0.00  0.00    +0.000 C 
ATOM      5  C   UNL     1       6.404   4.801  17.049  0.00  0.00    +0.000 A 
ATOM      6  C   UNL     1       7.096   5.145  18.184  0.00  0.00    +0.000 A 
ATOM      7  C   UNL     1       6.125   5.274  19.214  0.00  0.00    +0.000 A 
ATOM      8  C   UNL     1       4.882   4.985  18.676  0.00  0.00    +0.000 A 
ATOM      9  O   UNL     1       5.081   4.707  17.333  0.00  0.00    +0.000 OA
ENDBRANCH   1   8
BRANCH   3  10
ATOM     10  C   UNL     1       3.480   2.219  19.339  0.00  0.00    +0.000 C 
ATOM     11  C   UNL     1       3.688   1.678  17.925  0.00  0.00    +0.000 C 
ATOM     12  C   UNL     1       4.667   2.047  20.285  0.00  0.00    +0.000 C 
ENDBRANCH   3  10
BRANCH   3  13
ATOM     13  C   UNL     1       1.467   3.632  19.905  0.00  0.00    +0.000 C 
ATOM     14  C   UNL     1       0.477   2.817  19.066  0.00  0.00    +0.000 C 
ATOM     15  C   UNL     1       1.382   3.248  21.388  0.00  0.00    +0.000 C 
ENDBRANCH   3  13
TORSDOF 3
ENDMDL
MODEL 4
REMARK VINA RESULT:      -5.8      1.706      2.688
REMARK  Name = 
REMARK  8 active torsions:
REMARK  status: ('A' for Active; 'I' for Inactive)
REMARK    1  A    between atoms: C_1  and  C_2
REMARK    2  A    between atoms: C_5  and  C_6
REMARK    3  A    between atoms: N_8  and  C_9
REMARK    4  A    between atoms: N_8  and  C_12
REMARK    5  A    between atoms: C_9  and  C_10
REMARK    6  A    between atoms: C_9  and  C_11
REMARK    7  A    between atoms: C_12  and  C_13
REMARK    8  A    between atoms: C_12  and  C_14
REMARK                            x       y       z     vdW  Elec       q    Type
REMARK                         _______ _______ _______ _____ _____    ______ ____
ROOT
ATOM      1  C   UNL     1       3.725   4.944  18.365  0.00  0.00    +0.000 C 
ATOM      2  O   UNL     1       3.240   6.080  18.430  0.00  0.00    +0.000 OA
ATOM      3  N   UNL     1       3.006   3.877  18.984  0.00  0.00    +0.000 N 
ENDROOT
BRANCH   1   8
ATOM      4  C   UNL     1       6.228   3.937  14.376  0.00  0.00    +0.000 C 
ATOM      5  C   UNL     1       6.144   4.284  15.809  0.00  0.00    +0.000 A 
ATOM      6  C   UNL     1       7.082   4.443  16.800  0.00  0.00    +0.000 A 
ATOM      7  C   UNL     1       6.359   4.777  17.977  0.00  0.00    +0.000 A 
ATOM      8  C   UNL     1       5.009   4.790  17.667  0.00  0.00    +0.000 A 
ATOM      9  O   UNL     1       4.904   4.493  16.317  0.00  0.00    +0.000 OA
ENDBRANCH   1   8
BRANCH   3  10
ATOM     10  C   UNL     1       3.439   2.474  19.158  0.00  0.00    +0.000 C 
ATOM     11  C   UNL     1       3.568   1.700  17.847  0.00  0.00    +0.000 C 
ATOM     12  C   UNL     1       4.598   2.296  20.137  0.00  0.00    +0.000 C 
ENDBRANCH   3  10
BRANCH   3  13
ATOM     13  C   UNL     1       1.746   4.270  19.689  0.00  0.00    +0.000 C 
ATOM     14  C   UNL     1       0.676   3.174  19.648  0.00  0.00    +0.000 C 
ATOM     15  C   UNL     1       2.006   4.735  21.127  0.00  0.00    +0.000 C 
ENDBRANCH   3  13
TORSDOF 3
ENDMDL
MODEL 5
REMARK VINA RESULT:      -5.8      1.642      2.276
REMARK  Name = 
REMARK  8 active torsions:
REMARK  status: ('A' for Active; 'I' for Inactive)
REMARK    1  A    between atoms: C_1  and  C_2
REMARK    2  A    between atoms: C_5  and  C_6
REMARK    3  A    between atoms: N_8  and  C_9
REMARK    4  A    between atoms: N_8  and  C_12
REMARK    5  A    between atoms: C_9  and  C_10
REMARK    6  A    between atoms: C_9  and  C_11
REMARK    7  A    between atoms: C_12  and  C_13
REMARK    8  A    between atoms: C_12  and  C_14
REMARK                            x       y       z     vdW  Elec       q    Type
REMARK                         _______ _______ _______ _____ _____    ______ ____
ROOT
ATOM      1  C   UNL     1       4.883   4.329  18.635  0.00  0.00    +0.000 C 
ATOM      2  O   UNL     1       5.859   4.396  19.393  0.00  0.00    +0.000 OA
ATOM      3  N   UNL     1       3.710   3.674  19.118  0.00  0.00    +0.000 N 
ENDROOT
BRANCH   1   8
ATOM      4  C   UNL     1       6.110   3.937  13.995  0.00  0.00    +0.000 C 
ATOM      5  C   UNL     1       5.630   4.716  15.155  0.00  0.00    +0.000 A 
ATOM      6  C   UNL     1       5.315   6.039  15.340  0.00  0.00    +0.000 A 
ATOM      7  C   UNL     1       4.915   6.163  16.698  0.00  0.00    +0.000 A 
ATOM      8  C   UNL     1       5.020   4.918  17.296  0.00  0.00    +0.000 A 
ATOM      9  O   UNL     1       5.454   4.038  16.317  0.00  0.00    +0.000 OA
ENDBRANCH   1   8
BRANCH   3  10
ATOM     10  C   UNL     1       2.479   3.350  18.365  0.00  0.00    +0.000 C 
ATOM     11  C   UNL     1       1.740   4.577  17.833  0.00  0.00    +0.000 C 
ATOM     12  C   UNL     1       2.641   2.204  17.369  0.00  0.00    +0.000 C 
ENDBRANCH   3  10
BRANCH   3  13
ATOM     13  C   UNL     1       3.811   3.096  20.494  0.00  0.00    +0.000 C 
ATOM     14  C   UNL     1       2.454   3.000  21.198  0.00  0.00    +0.000 C 
ATOM     15  C   UNL     1       4.538   1.746  20.506  0.00  0.00    +0.000 C 
ENDBRANCH   3  13
TORSDOF 3
ENDMDL
MODEL 6
REMARK VINA RESULT:      -5.8      1.938      5.145
REMARK  Name = 
REMARK  8 active torsions:
REMARK  status: ('A' for Active; 'I' for Inactive)
REMARK    1  A    between atoms: C_1  and  C_2
REMARK    2  A    between atoms: C_5  and  C_6
REMARK    3  A    between atoms: N_8  and  C_9
REMARK    4  A    between atoms: N_8  and  C_12
REMARK    5  A    between atoms: C_9  and  C_10
REMARK    6  A    between atoms: C_9  and  C_11
REMARK    7  A    between atoms: C_12  and  C_13
REMARK    8  A    between atoms: C_12  and  C_14
REMARK                            x       y       z     vdW  Elec       q    Type
REMARK                         _______ _______ _______ _____ _____    ______ ____
ROOT
ATOM      1  C   UNL     1       5.014   4.418  18.648  0.00  0.00    +0.000 C 
ATOM      2  O   UNL     1       5.622   3.737  19.482  0.00  0.00    +0.000 OA
ATOM      3  N   UNL     1       5.743   5.434  17.959  0.00  0.00    +0.000 N 
ENDROOT
BRANCH   1   8
ATOM      4  C   UNL     1       0.623   3.565  20.432  0.00  0.00    +0.000 C 
ATOM      5  C   UNL     1       1.567   3.705  19.305  0.00  0.00    +0.000 A 
ATOM      6  C   UNL     1       1.450   3.538  17.947  0.00  0.00    +0.000 A 
ATOM      7  C   UNL     1       2.731   3.823  17.402  0.00  0.00    +0.000 A 
ATOM      8  C   UNL     1       3.586   4.134  18.447  0.00  0.00    +0.000 A 
ATOM      9  O   UNL     1       2.839   4.064  19.612  0.00  0.00    +0.000 OA
ENDBRANCH   1   8
BRANCH   3  10
ATOM     10  C   UNL     1       5.216   6.456  17.029  0.00  0.00    +0.000 C 
ATOM     11  C   UNL     1       5.167   5.998  15.572  0.00  0.00    +0.000 C 
ATOM     12  C   UNL     1       3.961   7.167  17.531  0.00  0.00    +0.000 C 
ENDBRANCH   3  10
BRANCH   3  13
ATOM     13  C   UNL     1       7.175   5.588  18.363  0.00  0.00    +0.000 C 
ATOM     14  C   UNL     1       8.087   4.532  17.731  0.00  0.00    +0.000 C 
ATOM     15  C   UNL     1       7.704   7.004  18.101  0.00  0.00    +0.000 C 
ENDBRANCH   3  13
TORSDOF 3
ENDMDL
MODEL 7
REMARK VINA RESULT:      -5.7      1.819      2.965
REMARK  Name = 
REMARK  8 active torsions:
REMARK  status: ('A' for Active; 'I' for Inactive)
REMARK    1  A    between atoms: C_1  and  C_2
REMARK    2  A    between atoms: C_5  and  C_6
REMARK    3  A    between atoms: N_8  and  C_9
REMARK    4  A    between atoms: N_8  and  C_12
REMARK    5  A    between atoms: C_9  and  C_10
REMARK    6  A    between atoms: C_9  and  C_11
REMARK    7  A    between atoms: C_12  and  C_13
REMARK    8  A    between atoms: C_12  and  C_14
REMARK                            x       y       z     vdW  Elec       q    Type
REMARK                         _______ _______ _______ _____ _____    ______ ____
ROOT
ATOM      1  C   UNL     1       3.126   4.896  17.902  0.00  0.00    +0.000 C 
ATOM      2  O   UNL     1       2.335   5.840  17.787  0.00  0.00    +0.000 OA
ATOM      3  N   UNL     1       2.701   3.760  18.656  0.00  0.00    +0.000 N 
ENDROOT
BRANCH   1   8
ATOM      4  C   UNL     1       7.435   7.024  17.598  0.00  0.00    +0.000 C 
ATOM      5  C   UNL     1       6.422   6.060  17.125  0.00  0.00    +0.000 A 
ATOM      6  C   UNL     1       6.360   5.203  16.054  0.00  0.00    +0.000 A 
ATOM      7  C   UNL     1       5.107   4.539  16.151  0.00  0.00    +0.000 A 
ATOM      8  C   UNL     1       4.443   5.029  17.264  0.00  0.00    +0.000 A 
ATOM      9  O   UNL     1       5.282   5.960  17.854  0.00  0.00    +0.000 OA
ENDBRANCH   1   8
BRANCH   3  10
ATOM     10  C   UNL     1       3.502   2.580  19.045  0.00  0.00    +0.000 C 
ATOM     11  C   UNL     1       3.666   1.549  17.929  0.00  0.00    +0.000 C 
ATOM     12  C   UNL     1       4.779   2.919  19.811  0.00  0.00    +0.000 C 
ENDBRANCH   3  10
BRANCH   3  13
ATOM     13  C   UNL     1       1.339   3.862  19.266  0.00  0.00    +0.000 C 
ATOM     14  C   UNL     1       0.485   2.613  19.023  0.00  0.00    +0.000 C 
ATOM     15  C   UNL     1       1.396   4.212  20.758  0.00  0.00    +0.000 C 
ENDBRANCH   3  13
TORSDOF 3
ENDMDL
MODEL 8
REMARK VINA RESULT:      -5.7      1.132      1.612
REMARK  Name = 
REMARK  8 active torsions:
REMARK  status: ('A' for Active; 'I' for Inactive)
REMARK    1  A    between atoms: C_1  and  C_2
REMARK    2  A    between atoms: C_5  and  C_6
REMARK    3  A    between atoms: N_8  and  C_9
REMARK    4  A    between atoms: N_8  and  C_12
REMARK    5  A    between atoms: C_9  and  C_10
REMARK    6  A    between atoms: C_9  and  C_11
REMARK    7  A    between atoms: C_12  and  C_13
REMARK    8  A    between atoms: C_12  and  C_14
REMARK                            x       y       z     vdW  Elec       q    Type
REMARK                         _______ _______ _______ _____ _____    ______ ____
ROOT
ATOM      1  C   UNL     1       3.754   2.859  18.259  0.00  0.00    +0.000 C 
ATOM      2  O   UNL     1       3.841   1.628  18.190  0.00  0.00    +0.000 OA
ATOM      3  N   UNL     1       2.697   3.409  19.046  0.00  0.00    +0.000 N 
ENDROOT
BRANCH   1   8
ATOM      4  C   UNL     1       7.606   5.749  18.181  0.00  0.00    +0.000 C 
ATOM      5  C   UNL     1       6.509   5.022  17.512  0.00  0.00    +0.000 A 
ATOM      6  C   UNL     1       6.073   4.956  16.211  0.00  0.00    +0.000 A 
ATOM      7  C   UNL     1       4.958   4.076  16.212  0.00  0.00    +0.000 A 
ATOM      8  C   UNL     1       4.741   3.654  17.514  0.00  0.00    +0.000 A 
ATOM      9  O   UNL     1       5.720   4.245  18.296  0.00  0.00    +0.000 OA
ENDBRANCH   1   8
BRANCH   3  10
ATOM     10  C   UNL     1       2.307   4.830  19.174  0.00  0.00    +0.000 C 
ATOM     11  C   UNL     1       3.267   5.660  20.025  0.00  0.00    +0.000 C 
ATOM     12  C   UNL     1       1.875   5.478  17.860  0.00  0.00    +0.000 C 
ENDBRANCH   3  10
BRANCH   3  13
ATOM     13  C   UNL     1       1.773   2.414  19.673  0.00  0.00    +0.000 C 
ATOM     14  C   UNL     1       1.430   2.756  21.127  0.00  0.00    +0.000 C 
ATOM     15  C   UNL     1       0.503   2.196  18.842  0.00  0.00    +0.000 C 
ENDBRANCH   3  13
TORSDOF 3
ENDMDL
MODEL 9
REMARK VINA RESULT:      -5.7      1.781      2.800
REMARK  Name = 
REMARK  8 active torsions:
REMARK  status: ('A' for Active; 'I' for Inactive)
REMARK    1  A    between atoms: C_1  and  C_2
REMARK    2  A    between atoms: C_5  and  C_6
REMARK    3  A    between atoms: N_8  and  C_9
REMARK    4  A    between atoms: N_8  and  C_12
REMARK    5  A    between atoms: C_9  and  C_10
REMARK    6  A    between atoms: C_9  and  C_11
REMARK    7  A    between atoms: C_12  and  C_13
REMARK    8  A    between atoms: C_12  and  C_14
REMARK                            x       y       z     vdW  Elec       q    Type
REMARK                         _______ _______ _______ _____ _____    ______ ____
ROOT
ATOM      1  C   UNL     1       3.217   5.211  19.314  0.00  0.00    +0.000 C 
ATOM      2  O   UNL     1       2.543   6.109  19.833  0.00  0.00    +0.000 OA
ATOM      3  N   UNL     1       2.741   3.870  19.433  0.00  0.00    +0.000 N 
ENDROOT
BRANCH   1   8
ATOM      4  C   UNL     1       8.004   5.732  19.305  0.00  0.00    +0.000 C 
ATOM      5  C   UNL     1       6.678   5.862  18.668  0.00  0.00    +0.000 A 
ATOM      6  C   UNL     1       6.249   6.396  17.478  0.00  0.00    +0.000 A 
ATOM      7  C   UNL     1       4.840   6.215  17.450  0.00  0.00    +0.000 A 
ATOM      8  C   UNL     1       4.458   5.598  18.630  0.00  0.00    +0.000 A 
ATOM      9  O   UNL     1       5.615   5.381  19.361  0.00  0.00    +0.000 OA
ENDBRANCH   1   8
BRANCH   3  10
ATOM     10  C   UNL     1       3.426   2.625  19.022  0.00  0.00    +0.000 C 
ATOM     11  C   UNL     1       3.719   2.547  17.524  0.00  0.00    +0.000 C 
ATOM     12  C   UNL     1       4.582   2.220  19.935  0.00  0.00    +0.000 C 
ENDBRANCH   3  10
BRANCH   3  13
ATOM     13  C   UNL     1       1.482   3.698  20.221  0.00  0.00    +0.000 C 
ATOM     14  C   UNL     1       0.442   2.835  19.500  0.00  0.00    +0.000 C 
ATOM     15  C   UNL     1       1.749   3.174  21.638  0.00  0.00    +0.000 C 
ENDBRANCH   3  13
TORSDOF 3
ENDMDL
