MODEL 1
REMARK VINA RESULT:      -6.1      0.000      0.000
REMARK  Name = 
REMARK  2 active torsions:
REMARK  status: ('A' for Active; 'I' for Inactive)
REMARK    1  A    between atoms: C_1  and  N_2
REMARK    2  A    between atoms: C_5  and  C_6
REMARK                            x       y       z     vdW  Elec       q    Type
REMARK                         _______ _______ _______ _____ _____    ______ ____
ROOT
ATOM      1  C   UNL     1       7.653   7.532  17.440  0.00  0.00    +0.000 C 
ATOM      2  N   UNL     1       6.362   7.123  16.792  0.00  0.00    +0.000 NA
ATOM      3  C   UNL     1       7.009   5.437  15.915  0.00  0.00    +0.000 C 
ATOM      4  C   UNL     1       5.559   4.069  16.180  0.00  0.00    +0.000 C 
ATOM      5  C   UNL     1       4.305   4.653  17.031  0.00  0.00    +0.000 C 
ATOM      6  C   UNL     1       4.503   6.619  17.441  0.00  0.00    +0.000 C 
ENDROOT
BRANCH   5   7
ATOM      7  C   UNL     1       3.259   3.856  17.647  0.00  0.00    +0.000 A 
ATOM      8  C   UNL     1       3.597   2.582  18.139  0.00  0.00    +0.000 A 
ATOM      9  C   UNL     1       2.642   1.771  18.747  0.00  0.00    +0.000 A 
ATOM     10  C   UNL     1       1.333   2.228  18.865  0.00  0.00    +0.000 A 
ATOM     11  C   UNL     1       0.991   3.497  18.403  0.00  0.00    +0.000 A 
ATOM     12  C   UNL     1       1.956   4.316  17.805  0.00  0.00    +0.000 A 
ENDBRANCH   5   7
TORSDOF 1
ENDMDL
MODEL 2
REMARK VINA RESULT:      -6.1      1.168      1.321
REMARK  Name = 
REMARK  2 active torsions:
REMARK  status: ('A' for Active; 'I' for Inactive)
REMARK    1  A    between atoms: C_1  and  N_2
REMARK    2  A    between atoms: C_5  and  C_6
REMARK                            x       y       z     vdW  Elec       q    Type
REMARK                         _______ _______ _______ _____ _____    ______ ____
ROOT
ATOM      1  C   UNL     1       7.480   7.626  17.442  0.00  0.00    +0.000 C 
ATOM      2  N   UNL     1       6.205   7.079  16.868  0.00  0.00    +0.000 NA
ATOM      3  C   UNL     1       6.814   5.188  16.582  0.00  0.00    +0.000 C 
ATOM      4  C   UNL     1       5.288   4.010  17.157  0.00  0.00    +0.000 C 
ATOM      5  C   UNL     1       4.022   4.863  17.712  0.00  0.00    +0.000 C 
ATOM      6  C   UNL     1       4.294   6.854  17.521  0.00  0.00    +0.000 C 
ENDROOT
BRANCH   5   7
ATOM      7  C   UNL     1       2.909   4.324  18.473  0.00  0.00    +0.000 A 
ATOM      8  C   UNL     1       2.148   3.291  17.894  0.00  0.00    +0.000 A 
ATOM      9  C   UNL     1       1.072   2.726  18.572  0.00  0.00    +0.000 A 
ATOM     10  C   UNL     1       0.743   3.192  19.841  0.00  0.00    +0.000 A 
ATOM     11  C   UNL     1       1.504   4.198  20.435  0.00  0.00    +0.000 A 
ATOM     12  C   UNL     1       2.594   4.756  19.756  0.00  0.00    +0.000 A 
ENDBRANCH   5   7
TORSDOF 1
ENDMDL
MODEL 3
REMARK VINA RESULT:      -6.0      1.191      1.439
REMARK  Name = 
REMARK  2 active torsions:
REMARK  status: ('A' for Active; 'I' for Inactive)
REMARK    1  A    between atoms: C_1  and  N_2
REMARK    2  A    between atoms: C_5  and  C_6
REMARK                            x       y       z     vdW  Elec       q    Type
REMARK                         _______ _______ _______ _____ _____    ______ ____
ROOT
ATOM      1  C   UNL     1       7.553   7.618  17.345  0.00  0.00    +0.000 C 
ATOM      2  N   UNL     1       6.264   7.091  16.784  0.00  0.00    +0.000 NA
ATOM      3  C   UNL     1       6.844   5.194  16.480  0.00  0.00    +0.000 C 
ATOM      4  C   UNL     1       5.310   4.033  17.067  0.00  0.00    +0.000 C 
ATOM      5  C   UNL     1       4.063   4.899  17.644  0.00  0.00    +0.000 C 
ATOM      6  C   UNL     1       4.359   6.887  17.461  0.00  0.00    +0.000 C 
ENDROOT
BRANCH   5   7
ATOM      7  C   UNL     1       2.952   4.371  18.416  0.00  0.00    +0.000 A 
ATOM      8  C   UNL     1       2.845   4.745  19.768  0.00  0.00    +0.000 A 
ATOM      9  C   UNL     1       1.800   4.279  20.561  0.00  0.00    +0.000 A 
ATOM     10  C   UNL     1       0.849   3.428  20.007  0.00  0.00    +0.000 A 
ATOM     11  C   UNL     1       0.931   3.069  18.663  0.00  0.00    +0.000 A 
ATOM     12  C   UNL     1       1.976   3.550  17.864  0.00  0.00    +0.000 A 
ENDBRANCH   5   7
TORSDOF 1
ENDMDL
MODEL 4
REMARK VINA RESULT:      -6.0      1.407      1.657
REMARK  Name = 
REMARK  2 active torsions:
REMARK  status: ('A' for Active; 'I' for Inactive)
REMARK    1  A    between atoms: C_1  and  N_2
REMARK    2  A    between atoms: C_5  and  C_6
REMARK                            x       y       z     vdW  Elec       q    Type
REMARK                         _______ _______ _______ _____ _____    ______ ____
ROOT
ATOM      1  C   UNL     1       7.762   8.615  17.578  0.00  0.00    +0.000 C 
ATOM      2  N   UNL     1       7.416   7.229  17.115  0.00  0.00    +0.000 NA
ATOM      3  C   UNL     1       7.841   6.251  18.815  0.00  0.00    +0.000 C 
ATOM      4  C   UNL     1       6.372   4.902  19.073  0.00  0.00    +0.000 C 
ATOM      5  C   UNL     1       5.250   4.976  17.901  0.00  0.00    +0.000 C 
ATOM      6  C   UNL     1       5.738   6.294  16.453  0.00  0.00    +0.000 C 
ENDROOT
BRANCH   5   7
ATOM      7  C   UNL     1       3.933   4.366  17.952  0.00  0.00    +0.000 A 
ATOM      8  C   UNL     1       3.831   2.986  17.697  0.00  0.00    +0.000 A 
ATOM      9  C   UNL     1       2.599   2.338  17.737  0.00  0.00    +0.000 A 
ATOM     10  C   UNL     1       1.452   3.068  18.032  0.00  0.00    +0.000 A 
ATOM     11  C   UNL     1       1.543   4.431  18.310  0.00  0.00    +0.000 A 
ATOM     12  C   UNL     1       2.785   5.078  18.282  0.00  0.00    +0.000 A 
ENDBRANCH   5   7
TORSDOF 1
ENDMDL
MODEL 5
REMARK VINA RESULT:      -6.0      1.694      2.036
REMARK  Name = 
REMARK  2 active torsions:
REMARK  status: ('A' for Active; 'I' for Inactive)
REMARK    1  A    between atoms: C_1  and  N_2
REMARK    2  A    between atoms: C_5  and  C_6
REMARK                            x       y       z     vdW  Elec       q    Type
REMARK                         _______ _______ _______ _____ _____    ______ ____
ROOT
ATOM      1  C   UNL     1       7.715   8.692  17.658  0.00  0.00    +0.000 C 
ATOM      2  N   UNL     1       7.064   7.415  17.211  0.00  0.00    +0.000 NA
ATOM      3  C   UNL     1       7.803   6.209  18.635  0.00  0.00    +0.000 C 
ATOM      4  C   UNL     1       6.290   5.013  19.204  0.00  0.00    +0.000 C 
ATOM      5  C   UNL     1       4.908   5.345  18.418  0.00  0.00    +0.000 C 
ATOM      6  C   UNL     1       5.154   6.755  16.995  0.00  0.00    +0.000 C 
ENDROOT
BRANCH   5   7
ATOM      7  C   UNL     1       3.585   4.884  18.802  0.00  0.00    +0.000 A 
ATOM      8  C   UNL     1       2.916   3.996  17.941  0.00  0.00    +0.000 A 
ATOM      9  C   UNL     1       1.649   3.511  18.254  0.00  0.00    +0.000 A 
ATOM     10  C   UNL     1       1.035   3.914  19.435  0.00  0.00    +0.000 A 
ATOM     11  C   UNL     1       1.698   4.775  20.308  0.00  0.00    +0.000 A 
ATOM     12  C   UNL     1       2.978   5.251  19.997  0.00  0.00    +0.000 A 
ENDBRANCH   5   7
TORSDOF 1
ENDMDL
MODEL 6
REMARK VINA RESULT:      -5.9      2.555      5.591
REMARK  Name = 
REMARK  2 active torsions:
REMARK  status: ('A' for Active; 'I' for Inactive)
REMARK    1  A    between atoms: C_1  and  N_2
REMARK    2  A    between atoms: C_5  and  C_6
REMARK                            x       y       z     vdW  Elec       q    Type
REMARK                         _______ _______ _______ _____ _____    ______ ____
ROOT
ATOM      1  C   UNL     1       1.674   2.558  21.600  0.00  0.00    +0.000 C 
ATOM      2  N   UNL     1       1.893   2.411  20.122  0.00  0.00    +0.000 NA
ATOM      3  C   UNL     1       1.216   4.214  19.557  0.00  0.00    +0.000 C 
ATOM      4  C   UNL     1       2.491   4.880  18.151  0.00  0.00    +0.000 C 
ATOM      5  C   UNL     1       3.707   3.840  17.875  0.00  0.00    +0.000 C 
ATOM      6  C   UNL     1       3.499   2.121  18.911  0.00  0.00    +0.000 C 
ENDROOT
BRANCH   5   7
ATOM      7  C   UNL     1       4.935   4.146  17.161  0.00  0.00    +0.000 A 
ATOM      8  C   UNL     1       4.914   4.099  15.755  0.00  0.00    +0.000 A 
ATOM      9  C   UNL     1       6.055   4.389  15.011  0.00  0.00    +0.000 A 
ATOM     10  C   UNL     1       7.233   4.726  15.669  0.00  0.00    +0.000 A 
ATOM     11  C   UNL     1       7.259   4.800  17.061  0.00  0.00    +0.000 A 
ATOM     12  C   UNL     1       6.107   4.521  17.807  0.00  0.00    +0.000 A 
ENDBRANCH   5   7
TORSDOF 1
ENDMDL
MODEL 7
REMARK VINA RESULT:      -5.9      1.465      2.222
REMARK  Name = 
REMARK  2 active torsions:
REMARK  status: ('A' for Active; 'I' for Inactive)
REMARK    1  A    between atoms: C_1  and  N_2
REMARK    2  A    between atoms: C_5  and  C_6
REMARK                            x       y       z     vdW  Elec       q    Type
REMARK                         _______ _______ _______ _____ _____    ______ ____
ROOT
ATOM      1  C   UNL     1       7.882   8.798  17.679  0.00  0.00    +0.000 C 
ATOM      2  N   UNL     1       7.525   7.445  17.135  0.00  0.00    +0.000 NA
ATOM      3  C   UNL     1       7.936   6.364  18.776  0.00  0.00    +0.000 C 
ATOM      4  C   UNL     1       6.454   5.016  18.949  0.00  0.00    +0.000 C 
ATOM      5  C   UNL     1       5.336   5.169  17.780  0.00  0.00    +0.000 C 
ATOM      6  C   UNL     1       5.841   6.566  16.413  0.00  0.00    +0.000 C 
ENDROOT
BRANCH   5   7
ATOM      7  C   UNL     1       4.014   4.569  17.792  0.00  0.00    +0.000 A 
ATOM      8  C   UNL     1       2.907   5.408  18.017  0.00  0.00    +0.000 A 
ATOM      9  C   UNL     1       1.611   4.897  18.033  0.00  0.00    +0.000 A 
ATOM     10  C   UNL     1       1.411   3.536  17.826  0.00  0.00    +0.000 A 
ATOM     11  C   UNL     1       2.498   2.699  17.578  0.00  0.00    +0.000 A 
ATOM     12  C   UNL     1       3.798   3.218  17.549  0.00  0.00    +0.000 A 
ENDBRANCH   5   7
TORSDOF 1
ENDMDL
MODEL 8
REMARK VINA RESULT:      -5.9      2.282      5.687
REMARK  Name = 
REMARK  2 active torsions:
REMARK  status: ('A' for Active; 'I' for Inactive)
REMARK    1  A    between atoms: C_1  and  N_2
REMARK    2  A    between atoms: C_5  and  C_6
REMARK                            x       y       z     vdW  Elec       q    Type
REMARK                         _______ _______ _______ _____ _____    ______ ____
ROOT
ATOM      1  C   UNL     1       1.349   2.125  18.510  0.00  0.00    +0.000 C 
ATOM      2  N   UNL     1       2.177   2.909  17.534  0.00  0.00    +0.000 NA
ATOM      3  C   UNL     1       1.383   4.719  17.881  0.00  0.00    +0.000 C 
ATOM      4  C   UNL     1       2.922   6.014  17.913  0.00  0.00    +0.000 C 
ATOM      5  C   UNL     1       4.354   5.281  17.692  0.00  0.00    +0.000 C 
ATOM      6  C   UNL     1       4.156   3.311  17.299  0.00  0.00    +0.000 C 
ENDROOT
BRANCH   5   7
ATOM      7  C   UNL     1       5.655   5.869  17.959  0.00  0.00    +0.000 A 
ATOM      8  C   UNL     1       6.411   5.349  19.025  0.00  0.00    +0.000 A 
ATOM      9  C   UNL     1       7.669   5.863  19.330  0.00  0.00    +0.000 A 
ATOM     10  C   UNL     1       8.183   6.908  18.569  0.00  0.00    +0.000 A 
ATOM     11  C   UNL     1       7.453   7.416  17.495  0.00  0.00    +0.000 A 
ATOM     12  C   UNL     1       6.194   6.888  17.183  0.00  0.00    +0.000 A 
ENDBRANCH   5   7
TORSDOF 1
ENDMDL
MODEL 9
REMARK VINA RESULT:      -5.9      2.604      5.517
REMARK  Name = 
REMARK  2 active torsions:
REMARK  status: ('A' for Active; 'I' for Inactive)
REMARK    1  A    between atoms: C_1  and  N_2
REMARK    2  A    between atoms: C_5  and  C_6
REMARK                            x       y       z     vdW  Elec       q    Type
REMARK                         _______ _______ _______ _____ _____    ______ ____
ROOT
ATOM      1  C   UNL     1       1.541   2.549  21.728  0.00  0.00    +0.000 C 
ATOM      2  N   UNL     1       1.598   2.797  20.249  0.00  0.00    +0.000 NA
ATOM      3  C   UNL     1       1.518   4.802  20.296  0.00  0.00    +0.000 C 
ATOM      4  C   UNL     1       2.843   5.452  18.929  0.00  0.00    +0.000 C 
ATOM      5  C   UNL     1       3.626   4.233  18.196  0.00  0.00    +0.000 C 
ATOM      6  C   UNL     1       2.932   2.424  18.762  0.00  0.00    +0.000 C 
ENDROOT
BRANCH   5   7
ATOM      7  C   UNL     1       4.834   4.362  17.401  0.00  0.00    +0.000 A 
ATOM      8  C   UNL     1       6.048   4.596  18.072  0.00  0.00    +0.000 A 
ATOM      9  C   UNL     1       7.244   4.722  17.369  0.00  0.00    +0.000 A 
ATOM     10  C   UNL     1       7.236   4.618  15.982  0.00  0.00    +0.000 A 
ATOM     11  C   UNL     1       6.043   4.362  15.308  0.00  0.00    +0.000 A 
ATOM     12  C   UNL     1       4.844   4.222  16.018  0.00  0.00    +0.000 A 
ENDBRANCH   5   7
TORSDOF 1
ENDMDL
