MODEL 1
REMARK VINA RESULT:      -9.7      0.000      0.000
REMARK  Name = 
REMARK  5 active torsions:
REMARK  status: ('A' for Active; 'I' for Inactive)
REMARK    1  A    between atoms: C_2  and  C_3
REMARK    2  A    between atoms: C_17  and  C_18
REMARK    3  A    between atoms: C_21  and  C_22
REMARK    4  A    between atoms: C_30  and  C_31
REMARK    5  A    between atoms: C_31  and  O_32
REMARK                            x       y       z     vdW  Elec       q    Type
REMARK                         _______ _______ _______ _____ _____    ______ ____
ROOT
ATOM      1  O   UNL     1      -4.565  11.722  19.238  0.00  0.00    +0.000 OA
ATOM      2  C   UNL     1      -3.444  11.565  18.756  0.00  0.00    +0.000 C 
ATOM      3  N   UNL     1      -2.282  11.957  19.430  0.00  0.00    +0.000 N 
ATOM      4  C   UNL     1      -2.447  12.711  20.692  0.00  0.00    +0.000 C 
ATOM      5  C   UNL     1      -1.520  12.183  21.791  0.00  0.00    +0.000 C 
ATOM      6  O   UNL     1      -1.756  12.294  22.992  0.00  0.00    +0.000 OA
ATOM      7  N   UNL     1      -0.322  11.702  21.320  0.00  0.00    +0.000 N 
ATOM      8  C   UNL     1       0.067  11.494  19.910  0.00  0.00    +0.000 C 
ATOM      9  C   UNL     1      -0.928  12.013  18.877  0.00  0.00    +0.000 C 
ATOM     10  C   UNL     1       0.127   9.993  20.297  0.00  0.00    +0.000 C 
ATOM     11  C   UNL     1       0.416  10.505  21.749  0.00  0.00    +0.000 C 
ENDROOT
BRANCH   2  12
ATOM     12  C   UNL     1      -3.387  11.007  17.374  0.00  0.00    +0.000 A 
ATOM     13  C   UNL     1      -4.233  11.574  16.407  0.00  0.00    +0.000 A 
ATOM     14  C   UNL     1      -4.147  11.173  15.071  0.00  0.00    +0.000 A 
ATOM     15  C   UNL     1      -3.216  10.209  14.707  0.00  0.00    +0.000 A 
ATOM     16  F   UNL     1      -3.078   9.875  13.418  0.00  0.00    +0.000 F 
ATOM     17  C   UNL     1      -2.427   9.582  15.665  0.00  0.00    +0.000 A 
ATOM     18  C   UNL     1      -2.546   9.949  17.009  0.00  0.00    +0.000 A 
ENDBRANCH   2  12
BRANCH  10  19
ATOM     19  C   UNL     1       1.204   9.011  19.698  0.00  0.00    +0.000 A 
ATOM     20  C   UNL     1       1.598   7.837  20.361  0.00  0.00    +0.000 A 
ATOM     21  C   UNL     1       2.413   6.881  19.750  0.00  0.00    +0.000 A 
ATOM     22  C   UNL     1       2.880   7.053  18.438  0.00  0.00    +0.000 A 
ATOM     23  C   UNL     1       2.544   8.250  17.792  0.00  0.00    +0.000 A 
ATOM     24  C   UNL     1       1.730   9.205  18.411  0.00  0.00    +0.000 A 
BRANCH  22  25
ATOM     25  C   UNL     1       3.662   6.000  17.765  0.00  0.00    +0.000 A 
ATOM     26  C   UNL     1       4.590   6.298  16.757  0.00  0.00    +0.000 A 
ATOM     27  C   UNL     1       5.312   5.282  16.134  0.00  0.00    +0.000 A 
ATOM     28  C   UNL     1       5.091   3.979  16.536  0.00  0.00    +0.000 A 
ATOM     29  N   UNL     1       4.221   3.634  17.511  0.00  0.00    +0.000 NA
ATOM     30  C   UNL     1       3.533   4.648  18.092  0.00  0.00    +0.000 A 
ENDBRANCH  22  25
ENDBRANCH  10  19
BRANCH  11  31
ATOM     31  C   UNL     1      -0.136   9.548  22.787  0.00  0.00    +0.000 C 
BRANCH  31  32
ATOM     32  O   UNL     1       0.623   9.607  23.978  0.00  0.00    +0.000 OA
ATOM     33  H   UNL     1       0.825   8.676  24.220  0.00  0.00    +0.000 HD
ENDBRANCH  31  32
ENDBRANCH  11  31
TORSDOF 5
ENDMDL
MODEL 2
REMARK VINA RESULT:      -9.5      0.581      1.225
REMARK  Name = 
REMARK  5 active torsions:
REMARK  status: ('A' for Active; 'I' for Inactive)
REMARK    1  A    between atoms: C_2  and  C_3
REMARK    2  A    between atoms: C_17  and  C_18
REMARK    3  A    between atoms: C_21  and  C_22
REMARK    4  A    between atoms: C_30  and  C_31
REMARK    5  A    between atoms: C_31  and  O_32
REMARK                            x       y       z     vdW  Elec       q    Type
REMARK                         _______ _______ _______ _____ _____    ______ ____
ROOT
ATOM      1  O   UNL     1      -4.529  11.777  19.365  0.00  0.00    +0.000 OA
ATOM      2  C   UNL     1      -3.403  11.655  18.884  0.00  0.00    +0.000 C 
ATOM      3  N   UNL     1      -2.247  11.984  19.602  0.00  0.00    +0.000 N 
ATOM      4  C   UNL     1      -2.424  12.631  20.920  0.00  0.00    +0.000 C 
ATOM      5  C   UNL     1      -1.513  12.009  21.982  0.00  0.00    +0.000 C 
ATOM      6  O   UNL     1      -1.762  12.020  23.186  0.00  0.00    +0.000 OA
ATOM      7  N   UNL     1      -0.311  11.563  21.487  0.00  0.00    +0.000 N 
ATOM      8  C   UNL     1       0.094  11.471  20.069  0.00  0.00    +0.000 C 
ATOM      9  C   UNL     1      -0.886  12.080  19.071  0.00  0.00    +0.000 C 
ATOM     10  C   UNL     1       0.144   9.943  20.330  0.00  0.00    +0.000 C 
ATOM     11  C   UNL     1       0.418  10.331  21.822  0.00  0.00    +0.000 C 
ENDROOT
BRANCH   2  12
ATOM     12  C   UNL     1      -3.331  11.214  17.461  0.00  0.00    +0.000 A 
ATOM     13  C   UNL     1      -2.331  10.290  17.115  0.00  0.00    +0.000 A 
ATOM     14  C   UNL     1      -2.282   9.752  15.827  0.00  0.00    +0.000 A 
ATOM     15  C   UNL     1      -3.231  10.139  14.890  0.00  0.00    +0.000 A 
ATOM     16  F   UNL     1      -3.235   9.572  13.678  0.00  0.00    +0.000 F 
ATOM     17  C   UNL     1      -4.179  11.111  15.193  0.00  0.00    +0.000 A 
ATOM     18  C   UNL     1      -4.199  11.684  16.469  0.00  0.00    +0.000 A 
ENDBRANCH   2  12
BRANCH  10  19
ATOM     19  C   UNL     1       1.224   9.009  19.663  0.00  0.00    +0.000 A 
ATOM     20  C   UNL     1       1.670   7.825  20.274  0.00  0.00    +0.000 A 
ATOM     21  C   UNL     1       2.487   6.911  19.605  0.00  0.00    +0.000 A 
ATOM     22  C   UNL     1       2.904   7.137  18.284  0.00  0.00    +0.000 A 
ATOM     23  C   UNL     1       2.516   8.345  17.689  0.00  0.00    +0.000 A 
ATOM     24  C   UNL     1       1.700   9.258  18.366  0.00  0.00    +0.000 A 
BRANCH  22  25
ATOM     25  C   UNL     1       3.689   6.127  17.552  0.00  0.00    +0.000 A 
ATOM     26  C   UNL     1       3.394   4.759  17.634  0.00  0.00    +0.000 A 
ATOM     27  C   UNL     1       4.156   3.824  16.935  0.00  0.00    +0.000 A 
ATOM     28  C   UNL     1       5.205   4.282  16.160  0.00  0.00    +0.000 A 
ATOM     29  N   UNL     1       5.527   5.588  16.033  0.00  0.00    +0.000 NA
ATOM     30  C   UNL     1       4.766   6.468  16.730  0.00  0.00    +0.000 A 
ENDBRANCH  22  25
ENDBRANCH  10  19
BRANCH  11  31
ATOM     31  C   UNL     1      -0.151   9.293  22.770  0.00  0.00    +0.000 C 
BRANCH  31  32
ATOM     32  O   UNL     1       0.156   9.618  24.112  0.00  0.00    +0.000 OA
ATOM     33  H   UNL     1      -0.409  10.389  24.343  0.00  0.00    +0.000 HD
ENDBRANCH  31  32
ENDBRANCH  11  31
TORSDOF 5
ENDMDL
MODEL 3
REMARK VINA RESULT:      -9.5      0.772      1.144
REMARK  Name = 
REMARK  5 active torsions:
REMARK  status: ('A' for Active; 'I' for Inactive)
REMARK    1  A    between atoms: C_2  and  C_3
REMARK    2  A    between atoms: C_17  and  C_18
REMARK    3  A    between atoms: C_21  and  C_22
REMARK    4  A    between atoms: C_30  and  C_31
REMARK    5  A    between atoms: C_31  and  O_32
REMARK                            x       y       z     vdW  Elec       q    Type
REMARK                         _______ _______ _______ _____ _____    ______ ____
ROOT
ATOM      1  O   UNL     1      -4.163  11.806  19.336  0.00  0.00    +0.000 OA
ATOM      2  C   UNL     1      -3.089  11.558  18.789  0.00  0.00    +0.000 C 
ATOM      3  N   UNL     1      -1.861  11.847  19.396  0.00  0.00    +0.000 N 
ATOM      4  C   UNL     1      -1.889  12.603  20.667  0.00  0.00    +0.000 C 
ATOM      5  C   UNL     1      -0.949  11.992  21.710  0.00  0.00    +0.000 C 
ATOM      6  O   UNL     1      -1.105  12.113  22.923  0.00  0.00    +0.000 OA
ATOM      7  N   UNL     1       0.175  11.416  21.169  0.00  0.00    +0.000 N 
ATOM      8  C   UNL     1       0.464  11.186  19.738  0.00  0.00    +0.000 C 
ATOM      9  C   UNL     1      -0.541  11.794  18.765  0.00  0.00    +0.000 C 
ATOM     10  C   UNL     1       0.421   9.682  20.118  0.00  0.00    +0.000 C 
ATOM     11  C   UNL     1       0.834  10.158  21.551  0.00  0.00    +0.000 C 
ENDROOT
BRANCH   2  12
ATOM     12  C   UNL     1      -3.158  11.007  17.405  0.00  0.00    +0.000 A 
ATOM     13  C   UNL     1      -4.102  11.567  16.528  0.00  0.00    +0.000 A 
ATOM     14  C   UNL     1      -4.141  11.173  15.188  0.00  0.00    +0.000 A 
ATOM     15  C   UNL     1      -3.236  10.224  14.730  0.00  0.00    +0.000 A 
ATOM     16  F   UNL     1      -3.218   9.898  13.432  0.00  0.00    +0.000 F 
ATOM     17  C   UNL     1      -2.349   9.604  15.603  0.00  0.00    +0.000 A 
ATOM     18  C   UNL     1      -2.342   9.963  16.954  0.00  0.00    +0.000 A 
ENDBRANCH   2  12
BRANCH  10  19
ATOM     19  C   UNL     1       1.375   8.618  19.455  0.00  0.00    +0.000 A 
ATOM     20  C   UNL     1       1.981   8.829  18.206  0.00  0.00    +0.000 A 
ATOM     21  C   UNL     1       2.962   7.970  17.706  0.00  0.00    +0.000 A 
ATOM     22  C   UNL     1       3.388   6.848  18.433  0.00  0.00    +0.000 A 
ATOM     23  C   UNL     1       2.744   6.594  19.651  0.00  0.00    +0.000 A 
ATOM     24  C   UNL     1       1.759   7.457  20.145  0.00  0.00    +0.000 A 
BRANCH  22  25
ATOM     25  C   UNL     1       4.488   5.998  17.943  0.00  0.00    +0.000 A 
ATOM     26  C   UNL     1       4.764   5.861  16.576  0.00  0.00    +0.000 A 
ATOM     27  C   UNL     1       5.808   5.046  16.140  0.00  0.00    +0.000 A 
ATOM     28  C   UNL     1       6.560   4.380  17.089  0.00  0.00    +0.000 A 
ATOM     29  N   UNL     1       6.348   4.485  18.419  0.00  0.00    +0.000 NA
ATOM     30  C   UNL     1       5.323   5.284  18.807  0.00  0.00    +0.000 A 
ENDBRANCH  22  25
ENDBRANCH  10  19
BRANCH  11  31
ATOM     31  C   UNL     1       0.264   9.243  22.618  0.00  0.00    +0.000 C 
BRANCH  31  32
ATOM     32  O   UNL     1       0.566   9.730  23.910  0.00  0.00    +0.000 OA
ATOM     33  H   UNL     1       0.281  10.671  23.922  0.00  0.00    +0.000 HD
ENDBRANCH  31  32
ENDBRANCH  11  31
TORSDOF 5
ENDMDL
MODEL 4
REMARK VINA RESULT:      -9.1      0.932      1.643
REMARK  Name = 
REMARK  5 active torsions:
REMARK  status: ('A' for Active; 'I' for Inactive)
REMARK    1  A    between atoms: C_2  and  C_3
REMARK    2  A    between atoms: C_17  and  C_18
REMARK    3  A    between atoms: C_21  and  C_22
REMARK    4  A    between atoms: C_30  and  C_31
REMARK    5  A    between atoms: C_31  and  O_32
REMARK                            x       y       z     vdW  Elec       q    Type
REMARK                         _______ _______ _______ _____ _____    ______ ____
ROOT
ATOM      1  O   UNL     1      -4.049  12.066  19.841  0.00  0.00    +0.000 OA
ATOM      2  C   UNL     1      -3.024  11.827  19.202  0.00  0.00    +0.000 C 
ATOM      3  N   UNL     1      -1.748  12.041  19.735  0.00  0.00    +0.000 N 
ATOM      4  C   UNL     1      -1.661  12.710  21.051  0.00  0.00    +0.000 C 
ATOM      5  C   UNL     1      -0.668  12.006  21.980  0.00  0.00    +0.000 C 
ATOM      6  O   UNL     1      -0.733  12.049  23.206  0.00  0.00    +0.000 OA
ATOM      7  N   UNL     1       0.396  11.437  21.322  0.00  0.00    +0.000 N 
ATOM      8  C   UNL     1       0.574  11.296  19.862  0.00  0.00    +0.000 C 
ATOM      9  C   UNL     1      -0.478  11.995  19.007  0.00  0.00    +0.000 C 
ATOM     10  C   UNL     1       0.510   9.772  20.144  0.00  0.00    +0.000 C 
ATOM     11  C   UNL     1       1.040  10.139  21.572  0.00  0.00    +0.000 C 
ENDROOT
BRANCH   2  12
ATOM     12  C   UNL     1      -3.210  11.372  17.794  0.00  0.00    +0.000 A 
ATOM     13  C   UNL     1      -2.247  10.499  17.259  0.00  0.00    +0.000 A 
ATOM     14  C   UNL     1      -2.423   9.949  15.987  0.00  0.00    +0.000 A 
ATOM     15  C   UNL     1      -3.558  10.272  15.255  0.00  0.00    +0.000 A 
ATOM     16  F   UNL     1      -3.768   9.691  14.068  0.00  0.00    +0.000 F 
ATOM     17  C   UNL     1      -4.479  11.196  15.737  0.00  0.00    +0.000 A 
ATOM     18  C   UNL     1      -4.280  11.783  16.991  0.00  0.00    +0.000 A 
ENDBRANCH   2  12
BRANCH  10  19
ATOM     19  C   UNL     1       1.380   8.729  19.346  0.00  0.00    +0.000 A 
ATOM     20  C   UNL     1       1.804   8.961  18.027  0.00  0.00    +0.000 A 
ATOM     21  C   UNL     1       2.720   8.123  17.387  0.00  0.00    +0.000 A 
ATOM     22  C   UNL     1       3.261   7.003  18.037  0.00  0.00    +0.000 A 
ATOM     23  C   UNL     1       2.796   6.728  19.330  0.00  0.00    +0.000 A 
ATOM     24  C   UNL     1       1.875   7.570  19.964  0.00  0.00    +0.000 A 
BRANCH  22  25
ATOM     25  C   UNL     1       4.296   6.175  17.391  0.00  0.00    +0.000 A 
ATOM     26  C   UNL     1       4.188   4.780  17.318  0.00  0.00    +0.000 A 
ATOM     27  C   UNL     1       5.184   4.021  16.706  0.00  0.00    +0.000 A 
ATOM     28  C   UNL     1       6.276   4.680  16.175  0.00  0.00    +0.000 A 
ATOM     29  N   UNL     1       6.427   6.022  16.204  0.00  0.00    +0.000 NA
ATOM     30  C   UNL     1       5.440   6.728  16.810  0.00  0.00    +0.000 A 
ENDBRANCH  22  25
ENDBRANCH  10  19
BRANCH  11  31
ATOM     31  C   UNL     1       0.519   9.170  22.615  0.00  0.00    +0.000 C 
BRANCH  31  32
ATOM     32  O   UNL     1       0.855   9.606  23.917  0.00  0.00    +0.000 OA
ATOM     33  H   UNL     1       1.091  10.557  23.835  0.00  0.00    +0.000 HD
ENDBRANCH  31  32
ENDBRANCH  11  31
TORSDOF 5
ENDMDL
MODEL 5
REMARK VINA RESULT:      -8.6      4.428      9.481
REMARK  Name = 
REMARK  5 active torsions:
REMARK  status: ('A' for Active; 'I' for Inactive)
REMARK    1  A    between atoms: C_2  and  C_3
REMARK    2  A    between atoms: C_17  and  C_18
REMARK    3  A    between atoms: C_21  and  C_22
REMARK    4  A    between atoms: C_30  and  C_31
REMARK    5  A    between atoms: C_31  and  O_32
REMARK                            x       y       z     vdW  Elec       q    Type
REMARK                         _______ _______ _______ _____ _____    ______ ____
ROOT
ATOM      1  O   UNL     1       7.035   4.025  18.267  0.00  0.00    +0.000 OA
ATOM      2  C   UNL     1       6.280   4.975  18.061  0.00  0.00    +0.000 C 
ATOM      3  N   UNL     1       4.924   4.797  17.765  0.00  0.00    +0.000 N 
ATOM      4  C   UNL     1       4.446   3.413  17.558  0.00  0.00    +0.000 C 
ATOM      5  C   UNL     1       3.131   3.152  18.298  0.00  0.00    +0.000 C 
ATOM      6  O   UNL     1       2.769   2.038  18.671  0.00  0.00    +0.000 OA
ATOM      7  N   UNL     1       2.316   4.254  18.381  0.00  0.00    +0.000 N 
ATOM      8  C   UNL     1       2.645   5.643  17.999  0.00  0.00    +0.000 C 
ATOM      9  C   UNL     1       3.990   5.824  17.300  0.00  0.00    +0.000 C 
ATOM     10  C   UNL     1       2.465   5.951  19.508  0.00  0.00    +0.000 C 
ATOM     11  C   UNL     1       1.507   4.712  19.521  0.00  0.00    +0.000 C 
ENDROOT
BRANCH   2  12
ATOM     12  C   UNL     1       6.902   6.331  18.062  0.00  0.00    +0.000 A 
ATOM     13  C   UNL     1       7.953   6.565  18.964  0.00  0.00    +0.000 A 
ATOM     14  C   UNL     1       8.651   7.775  18.937  0.00  0.00    +0.000 A 
ATOM     15  C   UNL     1       8.297   8.745  18.008  0.00  0.00    +0.000 A 
ATOM     16  F   UNL     1       9.009   9.875  17.927  0.00  0.00    +0.000 F 
ATOM     17  C   UNL     1       7.209   8.559  17.162  0.00  0.00    +0.000 A 
ATOM     18  C   UNL     1       6.480   7.367  17.221  0.00  0.00    +0.000 A 
ENDBRANCH   2  12
BRANCH  10  19
ATOM     19  C   UNL     1       1.835   7.300  20.024  0.00  0.00    +0.000 A 
ATOM     20  C   UNL     1       1.700   8.427  19.198  0.00  0.00    +0.000 A 
ATOM     21  C   UNL     1       0.981   9.556  19.600  0.00  0.00    +0.000 A 
ATOM     22  C   UNL     1       0.361   9.616  20.858  0.00  0.00    +0.000 A 
ATOM     23  C   UNL     1       0.545   8.521  21.713  0.00  0.00    +0.000 A 
ATOM     24  C   UNL     1       1.269   7.395  21.305  0.00  0.00    +0.000 A 
BRANCH  22  25
ATOM     25  C   UNL     1      -0.472  10.770  21.240  0.00  0.00    +0.000 A 
ATOM     26  C   UNL     1      -0.721  11.089  22.582  0.00  0.00    +0.000 A 
ATOM     27  C   UNL     1      -1.517  12.183  22.916  0.00  0.00    +0.000 A 
ATOM     28  C   UNL     1      -2.051  12.942  21.893  0.00  0.00    +0.000 A 
ATOM     29  N   UNL     1      -1.834  12.690  20.583  0.00  0.00    +0.000 NA
ATOM     30  C   UNL     1      -1.058  11.616  20.295  0.00  0.00    +0.000 A 
ENDBRANCH  22  25
ENDBRANCH  10  19
BRANCH  11  31
ATOM     31  C   UNL     1       1.541   4.009  20.864  0.00  0.00    +0.000 C 
BRANCH  31  32
ATOM     32  O   UNL     1       0.672   2.894  20.868  0.00  0.00    +0.000 OA
ATOM     33  H   UNL     1       0.736   2.499  21.766  0.00  0.00    +0.000 HD
ENDBRANCH  31  32
ENDBRANCH  11  31
TORSDOF 5
ENDMDL
MODEL 6
REMARK VINA RESULT:      -8.4      4.343      9.397
REMARK  Name = 
REMARK  5 active torsions:
REMARK  status: ('A' for Active; 'I' for Inactive)
REMARK    1  A    between atoms: C_2  and  C_3
REMARK    2  A    between atoms: C_17  and  C_18
REMARK    3  A    between atoms: C_21  and  C_22
REMARK    4  A    between atoms: C_30  and  C_31
REMARK    5  A    between atoms: C_31  and  O_32
REMARK                            x       y       z     vdW  Elec       q    Type
REMARK                         _______ _______ _______ _____ _____    ______ ____
ROOT
ATOM      1  O   UNL     1       7.159   3.985  18.307  0.00  0.00    +0.000 OA
ATOM      2  C   UNL     1       6.424   4.940  18.055  0.00  0.00    +0.000 C 
ATOM      3  N   UNL     1       5.071   4.774  17.738  0.00  0.00    +0.000 N 
ATOM      4  C   UNL     1       4.575   3.391  17.567  0.00  0.00    +0.000 C 
ATOM      5  C   UNL     1       3.242   3.175  18.289  0.00  0.00    +0.000 C 
ATOM      6  O   UNL     1       2.853   2.081  18.690  0.00  0.00    +0.000 OA
ATOM      7  N   UNL     1       2.443   4.293  18.320  0.00  0.00    +0.000 N 
ATOM      8  C   UNL     1       2.803   5.663  17.899  0.00  0.00    +0.000 C 
ATOM      9  C   UNL     1       4.163   5.800  17.222  0.00  0.00    +0.000 C 
ATOM     10  C   UNL     1       2.599   6.023  19.393  0.00  0.00    +0.000 C 
ATOM     11  C   UNL     1       1.620   4.801  19.428  0.00  0.00    +0.000 C 
ENDROOT
BRANCH   2  12
ATOM     12  C   UNL     1       7.068   6.285  18.024  0.00  0.00    +0.000 A 
ATOM     13  C   UNL     1       6.544   7.237  17.134  0.00  0.00    +0.000 A 
ATOM     14  C   UNL     1       7.028   8.548  17.137  0.00  0.00    +0.000 A 
ATOM     15  C   UNL     1       8.033   8.900  18.028  0.00  0.00    +0.000 A 
ATOM     16  F   UNL     1       8.450  10.171  18.088  0.00  0.00    +0.000 F 
ATOM     17  C   UNL     1       8.617   7.950  18.859  0.00  0.00    +0.000 A 
ATOM     18  C   UNL     1       8.165   6.628  18.823  0.00  0.00    +0.000 A 
ENDBRANCH   2  12
BRANCH  10  19
ATOM     19  C   UNL     1       1.981   7.399  19.852  0.00  0.00    +0.000 A 
ATOM     20  C   UNL     1       1.734   8.447  18.951  0.00  0.00    +0.000 A 
ATOM     21  C   UNL     1       1.025   9.591  19.325  0.00  0.00    +0.000 A 
ATOM     22  C   UNL     1       0.526   9.747  20.627  0.00  0.00    +0.000 A 
ATOM     23  C   UNL     1       0.823   8.735  21.550  0.00  0.00    +0.000 A 
ATOM     24  C   UNL     1       1.537   7.592  21.170  0.00  0.00    +0.000 A 
BRANCH  22  25
ATOM     25  C   UNL     1      -0.301  10.912  20.990  0.00  0.00    +0.000 A 
ATOM     26  C   UNL     1      -0.942  11.694  20.021  0.00  0.00    +0.000 A 
ATOM     27  C   UNL     1      -1.714  12.794  20.391  0.00  0.00    +0.000 A 
ATOM     28  C   UNL     1      -1.829  13.090  21.736  0.00  0.00    +0.000 A 
ATOM     29  N   UNL     1      -1.245  12.364  22.715  0.00  0.00    +0.000 NA
ATOM     30  C   UNL     1      -0.499  11.303  22.317  0.00  0.00    +0.000 A 
ENDBRANCH  22  25
ENDBRANCH  10  19
BRANCH  11  31
ATOM     31  C   UNL     1       1.616   4.142  20.794  0.00  0.00    +0.000 C 
BRANCH  31  32
ATOM     32  O   UNL     1       0.701   3.064  20.827  0.00  0.00    +0.000 OA
ATOM     33  H   UNL     1       0.291   3.026  19.935  0.00  0.00    +0.000 HD
ENDBRANCH  31  32
ENDBRANCH  11  31
TORSDOF 5
ENDMDL
MODEL 7
REMARK VINA RESULT:      -8.4      4.386      9.558
REMARK  Name = 
REMARK  5 active torsions:
REMARK  status: ('A' for Active; 'I' for Inactive)
REMARK    1  A    between atoms: C_2  and  C_3
REMARK    2  A    between atoms: C_17  and  C_18
REMARK    3  A    between atoms: C_21  and  C_22
REMARK    4  A    between atoms: C_30  and  C_31
REMARK    5  A    between atoms: C_31  and  O_32
REMARK                            x       y       z     vdW  Elec       q    Type
REMARK                         _______ _______ _______ _____ _____    ______ ____
ROOT
ATOM      1  O   UNL     1       7.513   4.403  18.030  0.00  0.00    +0.000 OA
ATOM      2  C   UNL     1       6.729   5.336  17.859  0.00  0.00    +0.000 C 
ATOM      3  N   UNL     1       5.401   5.130  17.467  0.00  0.00    +0.000 N 
ATOM      4  C   UNL     1       5.000   3.751  17.114  0.00  0.00    +0.000 C 
ATOM      5  C   UNL     1       3.657   3.374  17.747  0.00  0.00    +0.000 C 
ATOM      6  O   UNL     1       3.324   2.218  18.001  0.00  0.00    +0.000 OA
ATOM      7  N   UNL     1       2.789   4.431  17.873  0.00  0.00    +0.000 N 
ATOM      8  C   UNL     1       3.077   5.860  17.631  0.00  0.00    +0.000 C 
ATOM      9  C   UNL     1       4.450   6.155  17.034  0.00  0.00    +0.000 C 
ATOM     10  C   UNL     1       2.796   6.027  19.147  0.00  0.00    +0.000 C 
ATOM     11  C   UNL     1       1.897   4.754  18.996  0.00  0.00    +0.000 C 
ENDROOT
BRANCH   2  12
ATOM     12  C   UNL     1       7.287   6.710  18.013  0.00  0.00    +0.000 A 
ATOM     13  C   UNL     1       8.257   6.911  19.010  0.00  0.00    +0.000 A 
ATOM     14  C   UNL     1       8.900   8.146  19.130  0.00  0.00    +0.000 A 
ATOM     15  C   UNL     1       8.572   9.173  18.255  0.00  0.00    +0.000 A 
ATOM     16  F   UNL     1       9.238  10.333  18.316  0.00  0.00    +0.000 F 
ATOM     17  C   UNL     1       7.560   9.015  17.315  0.00  0.00    +0.000 A 
ATOM     18  C   UNL     1       6.883   7.794  17.225  0.00  0.00    +0.000 A 
ENDBRANCH   2  12
BRANCH  10  19
ATOM     19  C   UNL     1       2.077   7.300  19.736  0.00  0.00    +0.000 A 
ATOM     20  C   UNL     1       1.822   8.442  18.960  0.00  0.00    +0.000 A 
ATOM     21  C   UNL     1       1.029   9.492  19.429  0.00  0.00    +0.000 A 
ATOM     22  C   UNL     1       0.449   9.453  20.707  0.00  0.00    +0.000 A 
ATOM     23  C   UNL     1       0.751   8.347  21.512  0.00  0.00    +0.000 A 
ATOM     24  C   UNL     1       1.549   7.299  21.037  0.00  0.00    +0.000 A 
BRANCH  22  25
ATOM     25  C   UNL     1      -0.461  10.520  21.161  0.00  0.00    +0.000 A 
ATOM     26  C   UNL     1      -1.135  11.352  20.257  0.00  0.00    +0.000 A 
ATOM     27  C   UNL     1      -1.986  12.356  20.714  0.00  0.00    +0.000 A 
ATOM     28  C   UNL     1      -2.148  12.508  22.078  0.00  0.00    +0.000 A 
ATOM     29  N   UNL     1      -1.535  11.727  22.995  0.00  0.00    +0.000 NA
ATOM     30  C   UNL     1      -0.712  10.763  22.514  0.00  0.00    +0.000 A 
ENDBRANCH  22  25
ENDBRANCH  10  19
BRANCH  11  31
ATOM     31  C   UNL     1       1.884   3.939  20.274  0.00  0.00    +0.000 C 
BRANCH  31  32
ATOM     32  O   UNL     1       0.622   3.331  20.469  0.00  0.00    +0.000 OA
ATOM     33  H   UNL     1       0.223   3.773  21.252  0.00  0.00    +0.000 HD
ENDBRANCH  31  32
ENDBRANCH  11  31
TORSDOF 5
ENDMDL
MODEL 8
REMARK VINA RESULT:      -8.3      4.647      9.518
REMARK  Name = 
REMARK  5 active torsions:
REMARK  status: ('A' for Active; 'I' for Inactive)
REMARK    1  A    between atoms: C_2  and  C_3
REMARK    2  A    between atoms: C_17  and  C_18
REMARK    3  A    between atoms: C_21  and  C_22
REMARK    4  A    between atoms: C_30  and  C_31
REMARK    5  A    between atoms: C_31  and  O_32
REMARK                            x       y       z     vdW  Elec       q    Type
REMARK                         _______ _______ _______ _____ _____    ______ ____
ROOT
ATOM      1  O   UNL     1       7.659   4.371  18.091  0.00  0.00    +0.000 OA
ATOM      2  C   UNL     1       6.829   5.254  17.872  0.00  0.00    +0.000 C 
ATOM      3  N   UNL     1       5.528   4.963  17.447  0.00  0.00    +0.000 N 
ATOM      4  C   UNL     1       5.215   3.555  17.121  0.00  0.00    +0.000 C 
ATOM      5  C   UNL     1       3.877   3.119  17.724  0.00  0.00    +0.000 C 
ATOM      6  O   UNL     1       3.602   1.953  18.000  0.00  0.00    +0.000 OA
ATOM      7  N   UNL     1       2.948   4.128  17.796  0.00  0.00    +0.000 N 
ATOM      8  C   UNL     1       3.162   5.564  17.523  0.00  0.00    +0.000 C 
ATOM      9  C   UNL     1       4.534   5.922  16.959  0.00  0.00    +0.000 C 
ATOM     10  C   UNL     1       2.827   5.755  19.025  0.00  0.00    +0.000 C 
ATOM     11  C   UNL     1       2.005   4.429  18.883  0.00  0.00    +0.000 C 
ENDROOT
BRANCH   2  12
ATOM     12  C   UNL     1       7.305   6.661  18.004  0.00  0.00    +0.000 A 
ATOM     13  C   UNL     1       8.276   6.931  18.983  0.00  0.00    +0.000 A 
ATOM     14  C   UNL     1       8.845   8.203  19.082  0.00  0.00    +0.000 A 
ATOM     15  C   UNL     1       8.442   9.200  18.202  0.00  0.00    +0.000 A 
ATOM     16  F   UNL     1       9.036  10.399  18.243  0.00  0.00    +0.000 F 
ATOM     17  C   UNL     1       7.426   8.971  17.281  0.00  0.00    +0.000 A 
ATOM     18  C   UNL     1       6.823   7.711  17.213  0.00  0.00    +0.000 A 
ENDBRANCH   2  12
BRANCH  10  19
ATOM     19  C   UNL     1       2.020   6.999  19.558  0.00  0.00    +0.000 A 
ATOM     20  C   UNL     1       1.499   7.052  20.861  0.00  0.00    +0.000 A 
ATOM     21  C   UNL     1       0.944   8.221  21.387  0.00  0.00    +0.000 A 
ATOM     22  C   UNL     1       0.880   9.403  20.633  0.00  0.00    +0.000 A 
ATOM     23  C   UNL     1       1.340   9.341  19.311  0.00  0.00    +0.000 A 
ATOM     24  C   UNL     1       1.892   8.166  18.788  0.00  0.00    +0.000 A 
BRANCH  22  25
ATOM     25  C   UNL     1       0.380  10.656  21.224  0.00  0.00    +0.000 A 
ATOM     26  C   UNL     1       0.563  11.895  20.595  0.00  0.00    +0.000 A 
ATOM     27  C   UNL     1       0.084  13.067  21.179  0.00  0.00    +0.000 A 
ATOM     28  C   UNL     1      -0.576  12.973  22.390  0.00  0.00    +0.000 A 
ATOM     29  N   UNL     1      -0.793  11.806  23.035  0.00  0.00    +0.000 NA
ATOM     30  C   UNL     1      -0.310  10.687  22.439  0.00  0.00    +0.000 A 
ENDBRANCH  22  25
ENDBRANCH  10  19
BRANCH  11  31
ATOM     31  C   UNL     1       1.998   3.648  20.183  0.00  0.00    +0.000 C 
BRANCH  31  32
ATOM     32  O   UNL     1       0.678   3.310  20.558  0.00  0.00    +0.000 OA
ATOM     33  H   UNL     1       0.101   3.590  19.812  0.00  0.00    +0.000 HD
ENDBRANCH  31  32
ENDBRANCH  11  31
TORSDOF 5
ENDMDL
MODEL 9
REMARK VINA RESULT:      -8.2      3.438      5.074
REMARK  Name = 
REMARK  5 active torsions:
REMARK  status: ('A' for Active; 'I' for Inactive)
REMARK    1  A    between atoms: C_2  and  C_3
REMARK    2  A    between atoms: C_17  and  C_18
REMARK    3  A    between atoms: C_21  and  C_22
REMARK    4  A    between atoms: C_30  and  C_31
REMARK    5  A    between atoms: C_31  and  O_32
REMARK                            x       y       z     vdW  Elec       q    Type
REMARK                         _______ _______ _______ _____ _____    ______ ____
ROOT
ATOM      1  O   UNL     1      -0.258  15.683  18.732  0.00  0.00    +0.000 OA
ATOM      2  C   UNL     1       0.367  14.774  19.278  0.00  0.00    +0.000 C 
ATOM      3  N   UNL     1      -0.276  13.692  19.891  0.00  0.00    +0.000 N 
ATOM      4  C   UNL     1      -1.750  13.746  19.997  0.00  0.00    +0.000 C 
ATOM      5  C   UNL     1      -2.394  12.414  19.601  0.00  0.00    +0.000 C 
ATOM      6  O   UNL     1      -3.540  12.313  19.168  0.00  0.00    +0.000 OA
ATOM      7  N   UNL     1      -1.628  11.316  19.911  0.00  0.00    +0.000 N 
ATOM      8  C   UNL     1      -0.236  11.306  20.406  0.00  0.00    +0.000 C 
ATOM      9  C   UNL     1       0.345  12.676  20.742  0.00  0.00    +0.000 C 
ATOM     10  C   UNL     1       0.085  10.594  19.066  0.00  0.00    +0.000 C 
ATOM     11  C   UNL     1      -1.402  10.102  19.113  0.00  0.00    +0.000 C 
ENDROOT
BRANCH   2  12
ATOM     12  C   UNL     1       1.850  14.922  19.325  0.00  0.00    +0.000 A 
ATOM     13  C   UNL     1       2.603  14.254  18.345  0.00  0.00    +0.000 A 
ATOM     14  C   UNL     1       3.985  14.443  18.266  0.00  0.00    +0.000 A 
ATOM     15  C   UNL     1       4.609  15.298  19.166  0.00  0.00    +0.000 A 
ATOM     16  F   UNL     1       5.920  15.541  19.049  0.00  0.00    +0.000 F 
ATOM     17  C   UNL     1       3.890  15.904  20.190  0.00  0.00    +0.000 A 
ATOM     18  C   UNL     1       2.514  15.678  20.298  0.00  0.00    +0.000 A 
ENDBRANCH   2  12
BRANCH  10  19
ATOM     19  C   UNL     1       1.171   9.458  18.954  0.00  0.00    +0.000 A 
ATOM     20  C   UNL     1       1.380   8.518  19.977  0.00  0.00    +0.000 A 
ATOM     21  C   UNL     1       2.212   7.409  19.802  0.00  0.00    +0.000 A 
ATOM     22  C   UNL     1       2.883   7.184  18.591  0.00  0.00    +0.000 A 
ATOM     23  C   UNL     1       2.731   8.151  17.587  0.00  0.00    +0.000 A 
ATOM     24  C   UNL     1       1.898   9.261  17.769  0.00  0.00    +0.000 A 
BRANCH  22  25
ATOM     25  C   UNL     1       3.686   5.966  18.381  0.00  0.00    +0.000 A 
ATOM     26  C   UNL     1       4.147   5.595  17.110  0.00  0.00    +0.000 A 
ATOM     27  C   UNL     1       4.900   4.434  16.939  0.00  0.00    +0.000 A 
ATOM     28  C   UNL     1       5.178   3.664  18.052  0.00  0.00    +0.000 A 
ATOM     29  N   UNL     1       4.772   3.979  19.301  0.00  0.00    +0.000 NA
ATOM     30  C   UNL     1       4.039   5.113  19.429  0.00  0.00    +0.000 A 
ENDBRANCH  22  25
ENDBRANCH  10  19
BRANCH  11  31
ATOM     31  C   UNL     1      -1.969   9.940  17.716  0.00  0.00    +0.000 C 
BRANCH  31  32
ATOM     32  O   UNL     1      -3.347   9.631  17.767  0.00  0.00    +0.000 OA
ATOM     33  H   UNL     1      -3.405   8.677  17.998  0.00  0.00    +0.000 HD
ENDBRANCH  31  32
ENDBRANCH  11  31
TORSDOF 5
ENDMDL
