MODEL 1
REMARK VINA RESULT:      -8.1      0.000      0.000
REMARK  Name = 
REMARK  8 active torsions:
REMARK  status: ('A' for Active; 'I' for Inactive)
REMARK    1  A    between atoms: C_1  and  S_2
REMARK    2  A    between atoms: S_2  and  N_5
REMARK    3  A    between atoms: N_5  and  C_6
REMARK    4  A    between atoms: N_5  and  C_16
REMARK    5  A    between atoms: C_6  and  C_7
REMARK    6  A    between atoms: N_9  and  C_10
REMARK    7  A    between atoms: C_10  and  C_11
REMARK    8  A    between atoms: C_21  and  C_22
REMARK                            x       y       z     vdW  Elec       q    Type
REMARK                         _______ _______ _______ _____ _____    ______ ____
ROOT
ATOM      1  N   UNL     1       6.422   5.878  17.449  0.00  0.00    +0.000 N 
ENDROOT
BRANCH   1   2
ATOM      2  C   UNL     1       5.121   5.457  17.888  0.00  0.00    +0.000 A 
ATOM      3  C   UNL     1       3.958   6.153  17.560  0.00  0.00    +0.000 A 
ATOM      4  C   UNL     1       2.725   5.684  18.019  0.00  0.00    +0.000 A 
ATOM      5  C   UNL     1       2.648   4.517  18.796  0.00  0.00    +0.000 A 
ATOM      6 CL   UNL     1       1.074   4.044  19.321  0.00  0.00    +0.000 Cl
ATOM      7  C   UNL     1       3.807   3.801  19.113  0.00  0.00    +0.000 A 
ATOM      8  C   UNL     1       5.045   4.298  18.653  0.00  0.00    +0.000 A 
BRANCH   7   9
ATOM      9  C   UNL     1       3.850   2.519  19.898  0.00  0.00    +0.000 C 
ATOM     10  F   UNL     1       3.193   2.506  21.084  0.00  0.00    +0.000 F 
ATOM     11  F   UNL     1       3.340   1.475  19.184  0.00  0.00    +0.000 F 
ATOM     12  F   UNL     1       5.135   2.159  20.191  0.00  0.00    +0.000 F 
ENDBRANCH   7   9
ENDBRANCH   1   2
BRANCH   1  14
ATOM     13  C   UNL     1       5.723   3.844  15.713  0.00  0.00    +0.000 C 
ATOM     14  S   UNL     1       7.087   4.867  16.234  0.00  0.00    +0.000 S 
ATOM     15  O   UNL     1       8.107   4.040  16.840  0.00  0.00    +0.000 OA
ATOM     16  O   UNL     1       7.403   5.700  15.087  0.00  0.00    +0.000 OA
ENDBRANCH   1  14
BRANCH   1  17
ATOM     17  C   UNL     1       6.587   7.354  17.301  0.00  0.00    +0.000 C 
BRANCH  17  18
ATOM     18  C   UNL     1       7.757   7.890  18.106  0.00  0.00    +0.000 C 
ATOM     19  O   UNL     1       8.436   7.169  18.833  0.00  0.00    +0.000 OA
ATOM     20  N   UNL     1       8.026   9.241  17.994  0.00  0.00    +0.000 N 
ATOM     21  H   UNL     1       7.636   9.785  17.233  0.00  0.00    +0.000 HD
BRANCH  20  22
ATOM     22  C   UNL     1       9.213   9.761  18.644  0.00  0.00    +0.000 C 
BRANCH  22  23
ATOM     23  C   UNL     1       9.520  11.139  18.194  0.00  0.00    +0.000 A 
ATOM     24  C   UNL     1      10.701  11.781  17.878  0.00  0.00    +0.000 A 
ATOM     25  C   UNL     1      10.347  13.068  17.409  0.00  0.00    +0.000 A 
ATOM     26  C   UNL     1       8.975  13.134  17.472  0.00  0.00    +0.000 A 
ATOM     27  O   UNL     1       8.462  11.971  17.955  0.00  0.00    +0.000 OA
ENDBRANCH  22  23
ENDBRANCH  20  22
ENDBRANCH  17  18
ENDBRANCH   1  17
TORSDOF 7
ENDMDL
MODEL 2
REMARK VINA RESULT:      -8.0      5.136      6.959
REMARK  Name = 
REMARK  8 active torsions:
REMARK  status: ('A' for Active; 'I' for Inactive)
REMARK    1  A    between atoms: C_1  and  S_2
REMARK    2  A    between atoms: S_2  and  N_5
REMARK    3  A    between atoms: N_5  and  C_6
REMARK    4  A    between atoms: N_5  and  C_16
REMARK    5  A    between atoms: C_6  and  C_7
REMARK    6  A    between atoms: N_9  and  C_10
REMARK    7  A    between atoms: C_10  and  C_11
REMARK    8  A    between atoms: C_21  and  C_22
REMARK                            x       y       z     vdW  Elec       q    Type
REMARK                         _______ _______ _______ _____ _____    ______ ____
ROOT
ATOM      1  N   UNL     1       2.749   4.441  19.338  0.00  0.00    +0.000 N 
ENDROOT
BRANCH   1   2
ATOM      2  C   UNL     1       3.831   4.481  18.393  0.00  0.00    +0.000 A 
ATOM      3  C   UNL     1       3.665   4.151  17.049  0.00  0.00    +0.000 A 
ATOM      4  C   UNL     1       4.762   4.215  16.187  0.00  0.00    +0.000 A 
ATOM      5  C   UNL     1       6.020   4.618  16.658  0.00  0.00    +0.000 A 
ATOM      6 CL   UNL     1       7.303   4.642  15.506  0.00  0.00    +0.000 Cl
ATOM      7  C   UNL     1       6.192   4.971  18.001  0.00  0.00    +0.000 A 
ATOM      8  C   UNL     1       5.077   4.886  18.862  0.00  0.00    +0.000 A 
BRANCH   7   9
ATOM      9  C   UNL     1       7.476   5.458  18.615  0.00  0.00    +0.000 C 
ATOM     10  F   UNL     1       7.988   6.614  18.124  0.00  0.00    +0.000 F 
ATOM     11  F   UNL     1       7.348   5.654  19.958  0.00  0.00    +0.000 F 
ATOM     12  F   UNL     1       8.472   4.534  18.481  0.00  0.00    +0.000 F 
ENDBRANCH   7   9
ENDBRANCH   1   2
BRANCH   1  14
ATOM     13  C   UNL     1       0.938   2.413  18.840  0.00  0.00    +0.000 C 
ATOM     14  S   UNL     1       2.347   2.852  19.840  0.00  0.00    +0.000 S 
ATOM     15  O   UNL     1       1.954   2.901  21.232  0.00  0.00    +0.000 OA
ATOM     16  O   UNL     1       3.415   1.967  19.410  0.00  0.00    +0.000 OA
ENDBRANCH   1  14
BRANCH   1  17
ATOM     17  C   UNL     1       2.779   5.517  20.371  0.00  0.00    +0.000 C 
BRANCH  17  18
ATOM     18  C   UNL     1       2.248   6.839  19.846  0.00  0.00    +0.000 C 
ATOM     19  O   UNL     1       2.248   7.115  18.648  0.00  0.00    +0.000 OA
ATOM     20  N   UNL     1       1.768   7.736  20.781  0.00  0.00    +0.000 N 
ATOM     21  H   UNL     1       1.546   7.432  21.722  0.00  0.00    +0.000 HD
BRANCH  20  22
ATOM     22  C   UNL     1       1.135   8.950  20.307  0.00  0.00    +0.000 C 
BRANCH  22  23
ATOM     23  C   UNL     1       0.285   9.565  21.354  0.00  0.00    +0.000 A 
ATOM     24  C   UNL     1      -0.018   9.199  22.650  0.00  0.00    +0.000 A 
ATOM     25  C   UNL     1      -0.802  10.245  23.191  0.00  0.00    +0.000 A 
ATOM     26  C   UNL     1      -0.932  11.181  22.193  0.00  0.00    +0.000 A 
ATOM     27  O   UNL     1      -0.282  10.776  21.069  0.00  0.00    +0.000 OA
ENDBRANCH  22  23
ENDBRANCH  20  22
ENDBRANCH  17  18
ENDBRANCH   1  17
TORSDOF 7
ENDMDL
MODEL 3
REMARK VINA RESULT:      -8.0      0.639      1.093
REMARK  Name = 
REMARK  8 active torsions:
REMARK  status: ('A' for Active; 'I' for Inactive)
REMARK    1  A    between atoms: C_1  and  S_2
REMARK    2  A    between atoms: S_2  and  N_5
REMARK    3  A    between atoms: N_5  and  C_6
REMARK    4  A    between atoms: N_5  and  C_16
REMARK    5  A    between atoms: C_6  and  C_7
REMARK    6  A    between atoms: N_9  and  C_10
REMARK    7  A    between atoms: C_10  and  C_11
REMARK    8  A    between atoms: C_21  and  C_22
REMARK                            x       y       z     vdW  Elec       q    Type
REMARK                         _______ _______ _______ _____ _____    ______ ____
ROOT
ATOM      1  N   UNL     1       6.445   5.970  17.474  0.00  0.00    +0.000 N 
ENDROOT
BRANCH   1   2
ATOM      2  C   UNL     1       5.144   5.561  17.925  0.00  0.00    +0.000 A 
ATOM      3  C   UNL     1       3.986   6.274  17.619  0.00  0.00    +0.000 A 
ATOM      4  C   UNL     1       2.754   5.816  18.089  0.00  0.00    +0.000 A 
ATOM      5  C   UNL     1       2.671   4.642  18.854  0.00  0.00    +0.000 A 
ATOM      6 CL   UNL     1       1.098   4.183  19.394  0.00  0.00    +0.000 Cl
ATOM      7  C   UNL     1       3.824   3.907  19.148  0.00  0.00    +0.000 A 
ATOM      8  C   UNL     1       5.063   4.394  18.678  0.00  0.00    +0.000 A 
BRANCH   7   9
ATOM      9  C   UNL     1       3.861   2.616  19.918  0.00  0.00    +0.000 C 
ATOM     10  F   UNL     1       5.082   2.065  20.130  0.00  0.00    +0.000 F 
ATOM     11  F   UNL     1       3.299   2.751  21.153  0.00  0.00    +0.000 F 
ATOM     12  F   UNL     1       3.127   1.646  19.296  0.00  0.00    +0.000 F 
ENDBRANCH   7   9
ENDBRANCH   1   2
BRANCH   1  14
ATOM     13  C   UNL     1       5.768   3.881  15.795  0.00  0.00    +0.000 C 
ATOM     14  S   UNL     1       7.133   4.896  16.327  0.00  0.00    +0.000 S 
ATOM     15  O   UNL     1       8.111   4.074  17.006  0.00  0.00    +0.000 OA
ATOM     16  O   UNL     1       7.510   5.675  15.161  0.00  0.00    +0.000 OA
ENDBRANCH   1  14
BRANCH   1  17
ATOM     17  C   UNL     1       6.595   7.436  17.240  0.00  0.00    +0.000 C 
BRANCH  17  18
ATOM     18  C   UNL     1       7.751   8.032  18.022  0.00  0.00    +0.000 C 
ATOM     19  O   UNL     1       8.482   7.347  18.735  0.00  0.00    +0.000 OA
ATOM     20  N   UNL     1       7.947   9.395  17.908  0.00  0.00    +0.000 N 
ATOM     21  H   UNL     1       7.513   9.919  17.156  0.00  0.00    +0.000 HD
BRANCH  20  22
ATOM     22  C   UNL     1       9.117   9.977  18.535  0.00  0.00    +0.000 C 
BRANCH  22  23
ATOM     23  C   UNL     1       9.151  11.448  18.365  0.00  0.00    +0.000 A 
ATOM     24  C   UNL     1       8.421  12.318  17.579  0.00  0.00    +0.000 A 
ATOM     25  C   UNL     1       8.838  13.624  17.930  0.00  0.00    +0.000 A 
ATOM     26  C   UNL     1       9.798  13.470  18.902  0.00  0.00    +0.000 A 
ATOM     27  O   UNL     1      10.003  12.153  19.169  0.00  0.00    +0.000 OA
ENDBRANCH  22  23
ENDBRANCH  20  22
ENDBRANCH  17  18
ENDBRANCH   1  17
TORSDOF 7
ENDMDL
MODEL 4
REMARK VINA RESULT:      -8.0      5.154      6.955
REMARK  Name = 
REMARK  8 active torsions:
REMARK  status: ('A' for Active; 'I' for Inactive)
REMARK    1  A    between atoms: C_1  and  S_2
REMARK    2  A    between atoms: S_2  and  N_5
REMARK    3  A    between atoms: N_5  and  C_6
REMARK    4  A    between atoms: N_5  and  C_16
REMARK    5  A    between atoms: C_6  and  C_7
REMARK    6  A    between atoms: N_9  and  C_10
REMARK    7  A    between atoms: C_10  and  C_11
REMARK    8  A    between atoms: C_21  and  C_22
REMARK                            x       y       z     vdW  Elec       q    Type
REMARK                         _______ _______ _______ _____ _____    ______ ____
ROOT
ATOM      1  N   UNL     1       2.750   4.360  19.229  0.00  0.00    +0.000 N 
ENDROOT
BRANCH   1   2
ATOM      2  C   UNL     1       3.842   4.406  18.296  0.00  0.00    +0.000 A 
ATOM      3  C   UNL     1       3.686   4.095  16.946  0.00  0.00    +0.000 A 
ATOM      4  C   UNL     1       4.791   4.164  16.095  0.00  0.00    +0.000 A 
ATOM      5  C   UNL     1       6.048   4.553  16.583  0.00  0.00    +0.000 A 
ATOM      6 CL   UNL     1       7.342   4.584  15.443  0.00  0.00    +0.000 Cl
ATOM      7  C   UNL     1       6.209   4.887  17.932  0.00  0.00    +0.000 A 
ATOM      8  C   UNL     1       5.085   4.797  18.781  0.00  0.00    +0.000 A 
BRANCH   7   9
ATOM      9  C   UNL     1       7.490   5.359  18.564  0.00  0.00    +0.000 C 
ATOM     10  F   UNL     1       8.547   4.511  18.508  0.00  0.00    +0.000 F 
ATOM     11  F   UNL     1       7.925   6.527  18.010  0.00  0.00    +0.000 F 
ATOM     12  F   UNL     1       7.316   5.635  19.891  0.00  0.00    +0.000 F 
ENDBRANCH   7   9
ENDBRANCH   1   2
BRANCH   1  14
ATOM     13  C   UNL     1       2.348   2.832  21.497  0.00  0.00    +0.000 C 
ATOM     14  S   UNL     1       2.342   2.768  19.715  0.00  0.00    +0.000 S 
ATOM     15  O   UNL     1       3.384   1.872  19.260  0.00  0.00    +0.000 OA
ATOM     16  O   UNL     1       0.958   2.532  19.344  0.00  0.00    +0.000 OA
ENDBRANCH   1  14
BRANCH   1  17
ATOM     17  C   UNL     1       2.771   5.428  20.271  0.00  0.00    +0.000 C 
BRANCH  17  18
ATOM     18  C   UNL     1       2.253   6.756  19.750  0.00  0.00    +0.000 C 
ATOM     19  O   UNL     1       2.201   7.013  18.549  0.00  0.00    +0.000 OA
ATOM     20  N   UNL     1       1.844   7.681  20.692  0.00  0.00    +0.000 N 
ATOM     21  H   UNL     1       1.661   7.399  21.648  0.00  0.00    +0.000 HD
BRANCH  20  22
ATOM     22  C   UNL     1       1.223   8.906  20.229  0.00  0.00    +0.000 C 
BRANCH  22  23
ATOM     23  C   UNL     1       0.487   9.589  21.318  0.00  0.00    +0.000 A 
ATOM     24  C   UNL     1      -0.318  10.710  21.346  0.00  0.00    +0.000 A 
ATOM     25  C   UNL     1      -0.826  10.808  22.663  0.00  0.00    +0.000 A 
ATOM     26  C   UNL     1      -0.298   9.746  23.357  0.00  0.00    +0.000 A 
ATOM     27  O   UNL     1       0.508   9.003  22.553  0.00  0.00    +0.000 OA
ENDBRANCH  22  23
ENDBRANCH  20  22
ENDBRANCH  17  18
ENDBRANCH   1  17
TORSDOF 7
ENDMDL
MODEL 5
REMARK VINA RESULT:      -7.9      4.942      7.447
REMARK  Name = 
REMARK  8 active torsions:
REMARK  status: ('A' for Active; 'I' for Inactive)
REMARK    1  A    between atoms: C_1  and  S_2
REMARK    2  A    between atoms: S_2  and  N_5
REMARK    3  A    between atoms: N_5  and  C_6
REMARK    4  A    between atoms: N_5  and  C_16
REMARK    5  A    between atoms: C_6  and  C_7
REMARK    6  A    between atoms: N_9  and  C_10
REMARK    7  A    between atoms: C_10  and  C_11
REMARK    8  A    between atoms: C_21  and  C_22
REMARK                            x       y       z     vdW  Elec       q    Type
REMARK                         _______ _______ _______ _____ _____    ______ ____
ROOT
ATOM      1  N   UNL     1       4.941   5.696  17.246  0.00  0.00    +0.000 N 
ENDROOT
BRANCH   1   2
ATOM      2  C   UNL     1       3.971   6.224  18.165  0.00  0.00    +0.000 A 
ATOM      3  C   UNL     1       3.712   5.635  19.402  0.00  0.00    +0.000 A 
ATOM      4  C   UNL     1       2.757   6.206  20.246  0.00  0.00    +0.000 A 
ATOM      5  C   UNL     1       2.067   7.367  19.866  0.00  0.00    +0.000 A 
ATOM      6 CL   UNL     1       0.899   7.970  20.983  0.00  0.00    +0.000 Cl
ATOM      7  C   UNL     1       2.335   7.978  18.636  0.00  0.00    +0.000 A 
ATOM      8  C   UNL     1       3.293   7.379  17.789  0.00  0.00    +0.000 A 
BRANCH   7   9
ATOM      9  C   UNL     1       1.697   9.244  18.136  0.00  0.00    +0.000 C 
ATOM     10  F   UNL     1       1.557  10.253  19.031  0.00  0.00    +0.000 F 
ATOM     11  F   UNL     1       2.389   9.776  17.088  0.00  0.00    +0.000 F 
ATOM     12  F   UNL     1       0.441   9.010  17.653  0.00  0.00    +0.000 F 
ENDBRANCH   7   9
ENDBRANCH   1   2
BRANCH   1  14
ATOM     13  C   UNL     1       7.417   4.594  16.706  0.00  0.00    +0.000 C 
ATOM     14  S   UNL     1       6.487   5.467  17.951  0.00  0.00    +0.000 S 
ATOM     15  O   UNL     1       6.334   4.625  19.118  0.00  0.00    +0.000 OA
ATOM     16  O   UNL     1       7.120   6.769  18.063  0.00  0.00    +0.000 OA
ENDBRANCH   1  14
BRANCH   1  17
ATOM     17  C   UNL     1       4.424   4.638  16.329  0.00  0.00    +0.000 C 
BRANCH  17  18
ATOM     18  C   UNL     1       3.545   3.629  17.045  0.00  0.00    +0.000 C 
ATOM     19  O   UNL     1       2.326   3.594  16.886  0.00  0.00    +0.000 OA
ATOM     20  N   UNL     1       4.175   2.747  17.902  0.00  0.00    +0.000 N 
ATOM     21  H   UNL     1       5.178   2.613  17.860  0.00  0.00    +0.000 HD
BRANCH  20  22
ATOM     22  C   UNL     1       3.386   1.689  18.501  0.00  0.00    +0.000 C 
BRANCH  22  23
ATOM     23  C   UNL     1       2.632   2.172  19.681  0.00  0.00    +0.000 A 
ATOM     24  C   UNL     1       1.285   2.357  19.921  0.00  0.00    +0.000 A 
ATOM     25  C   UNL     1       1.167   2.742  21.278  0.00  0.00    +0.000 A 
ATOM     26  C   UNL     1       2.447   2.772  21.779  0.00  0.00    +0.000 A 
ATOM     27  O   UNL     1       3.346   2.436  20.817  0.00  0.00    +0.000 OA
ENDBRANCH  22  23
ENDBRANCH  20  22
ENDBRANCH  17  18
ENDBRANCH   1  17
TORSDOF 7
ENDMDL
MODEL 6
REMARK VINA RESULT:      -7.9      5.001      6.153
REMARK  Name = 
REMARK  8 active torsions:
REMARK  status: ('A' for Active; 'I' for Inactive)
REMARK    1  A    between atoms: C_1  and  S_2
REMARK    2  A    between atoms: S_2  and  N_5
REMARK    3  A    between atoms: N_5  and  C_6
REMARK    4  A    between atoms: N_5  and  C_16
REMARK    5  A    between atoms: C_6  and  C_7
REMARK    6  A    between atoms: N_9  and  C_10
REMARK    7  A    between atoms: C_10  and  C_11
REMARK    8  A    between atoms: C_21  and  C_22
REMARK                            x       y       z     vdW  Elec       q    Type
REMARK                         _______ _______ _______ _____ _____    ______ ____
ROOT
ATOM      1  N   UNL     1       2.982   4.385  19.353  0.00  0.00    +0.000 N 
ENDROOT
BRANCH   1   2
ATOM      2  C   UNL     1       2.726   5.768  19.058  0.00  0.00    +0.000 A 
ATOM      3  C   UNL     1       3.078   6.352  17.843  0.00  0.00    +0.000 A 
ATOM      4  C   UNL     1       2.796   7.702  17.624  0.00  0.00    +0.000 A 
ATOM      5  C   UNL     1       2.153   8.468  18.608  0.00  0.00    +0.000 A 
ATOM      6 CL   UNL     1       1.872  10.128  18.232  0.00  0.00    +0.000 Cl
ATOM      7  C   UNL     1       1.776   7.885  19.823  0.00  0.00    +0.000 A 
ATOM      8  C   UNL     1       2.083   6.524  20.033  0.00  0.00    +0.000 A 
BRANCH   7   9
ATOM      9  C   UNL     1       1.046   8.587  20.935  0.00  0.00    +0.000 C 
ATOM     10  F   UNL     1      -0.063   7.974  21.420  0.00  0.00    +0.000 F 
ATOM     11  F   UNL     1       1.853   8.794  22.014  0.00  0.00    +0.000 F 
ATOM     12  F   UNL     1       0.635   9.831  20.552  0.00  0.00    +0.000 F 
ENDBRANCH   7   9
ENDBRANCH   1   2
BRANCH   1  14
ATOM     13  C   UNL     1       1.660   1.975  19.069  0.00  0.00    +0.000 C 
ATOM     14  S   UNL     1       2.391   3.316  18.150  0.00  0.00    +0.000 S 
ATOM     15  O   UNL     1       3.518   2.821  17.389  0.00  0.00    +0.000 OA
ATOM     16  O   UNL     1       1.283   3.972  17.479  0.00  0.00    +0.000 OA
ENDBRANCH   1  14
BRANCH   1  17
ATOM     17  C   UNL     1       4.325   4.108  19.940  0.00  0.00    +0.000 C 
BRANCH  17  18
ATOM     18  C   UNL     1       5.449   4.745  19.142  0.00  0.00    +0.000 C 
ATOM     19  O   UNL     1       5.894   5.858  19.413  0.00  0.00    +0.000 OA
ATOM     20  N   UNL     1       5.951   4.018  18.080  0.00  0.00    +0.000 N 
ATOM     21  H   UNL     1       5.763   3.025  17.997  0.00  0.00    +0.000 HD
BRANCH  20  22
ATOM     22  C   UNL     1       7.109   4.536  17.379  0.00  0.00    +0.000 C 
BRANCH  22  23
ATOM     23  C   UNL     1       6.936   4.457  15.909  0.00  0.00    +0.000 A 
ATOM     24  C   UNL     1       6.055   3.763  15.106  0.00  0.00    +0.000 A 
ATOM     25  C   UNL     1       6.311   4.175  13.777  0.00  0.00    +0.000 A 
ATOM     26  C   UNL     1       7.334   5.090  13.851  0.00  0.00    +0.000 A 
ATOM     27  O   UNL     1       7.728   5.264  15.141  0.00  0.00    +0.000 OA
ENDBRANCH  22  23
ENDBRANCH  20  22
ENDBRANCH  17  18
ENDBRANCH   1  17
TORSDOF 7
ENDMDL
MODEL 7
REMARK VINA RESULT:      -7.8      0.931      1.156
REMARK  Name = 
REMARK  8 active torsions:
REMARK  status: ('A' for Active; 'I' for Inactive)
REMARK    1  A    between atoms: C_1  and  S_2
REMARK    2  A    between atoms: S_2  and  N_5
REMARK    3  A    between atoms: N_5  and  C_6
REMARK    4  A    between atoms: N_5  and  C_16
REMARK    5  A    between atoms: C_6  and  C_7
REMARK    6  A    between atoms: N_9  and  C_10
REMARK    7  A    between atoms: C_10  and  C_11
REMARK    8  A    between atoms: C_21  and  C_22
REMARK                            x       y       z     vdW  Elec       q    Type
REMARK                         _______ _______ _______ _____ _____    ______ ____
ROOT
ATOM      1  N   UNL     1       6.264   5.736  17.498  0.00  0.00    +0.000 N 
ENDROOT
BRANCH   1   2
ATOM      2  C   UNL     1       4.980   5.497  18.098  0.00  0.00    +0.000 A 
ATOM      3  C   UNL     1       3.900   6.361  17.925  0.00  0.00    +0.000 A 
ATOM      4  C   UNL     1       2.680   6.063  18.536  0.00  0.00    +0.000 A 
ATOM      5  C   UNL     1       2.531   4.902  19.311  0.00  0.00    +0.000 A 
ATOM      6 CL   UNL     1       0.985   4.649  20.031  0.00  0.00    +0.000 Cl
ATOM      7  C   UNL     1       3.604   4.019  19.473  0.00  0.00    +0.000 A 
ATOM      8  C   UNL     1       4.834   4.343  18.860  0.00  0.00    +0.000 A 
BRANCH   7   9
ATOM      9  C   UNL     1       3.558   2.726  20.239  0.00  0.00    +0.000 C 
ATOM     10  F   UNL     1       3.018   2.771  21.483  0.00  0.00    +0.000 F 
ATOM     11  F   UNL     1       2.857   1.768  19.568  0.00  0.00    +0.000 F 
ATOM     12  F   UNL     1       4.808   2.203  20.406  0.00  0.00    +0.000 F 
ENDBRANCH   7   9
ENDBRANCH   1   2
BRANCH   1  14
ATOM     13  C   UNL     1       6.834   5.432  14.810  0.00  0.00    +0.000 C 
ATOM     14  S   UNL     1       6.707   4.542  16.350  0.00  0.00    +0.000 S 
ATOM     15  O   UNL     1       5.634   3.576  16.262  0.00  0.00    +0.000 OA
ATOM     16  O   UNL     1       8.059   4.112  16.658  0.00  0.00    +0.000 OA
ENDBRANCH   1  14
BRANCH   1  17
ATOM     17  C   UNL     1       6.546   7.164  17.169  0.00  0.00    +0.000 C 
BRANCH  17  18
ATOM     18  C   UNL     1       7.661   7.745  18.019  0.00  0.00    +0.000 C 
ATOM     19  O   UNL     1       8.341   7.050  18.771  0.00  0.00    +0.000 OA
ATOM     20  N   UNL     1       7.880   9.106  17.920  0.00  0.00    +0.000 N 
ATOM     21  H   UNL     1       7.497   9.636  17.145  0.00  0.00    +0.000 HD
BRANCH  20  22
ATOM     22  C   UNL     1       9.018   9.672  18.615  0.00  0.00    +0.000 C 
BRANCH  22  23
ATOM     23  C   UNL     1       9.355  11.020  18.101  0.00  0.00    +0.000 A 
ATOM     24  C   UNL     1       8.598  12.152  17.873  0.00  0.00    +0.000 A 
ATOM     25  C   UNL     1       9.501  13.167  17.476  0.00  0.00    +0.000 A 
ATOM     26  C   UNL     1      10.749  12.591  17.481  0.00  0.00    +0.000 A 
ATOM     27  O   UNL     1      10.672  11.286  17.851  0.00  0.00    +0.000 OA
ENDBRANCH  22  23
ENDBRANCH  20  22
ENDBRANCH  17  18
ENDBRANCH   1  17
TORSDOF 7
ENDMDL
MODEL 8
REMARK VINA RESULT:      -7.7      5.347      6.624
REMARK  Name = 
REMARK  8 active torsions:
REMARK  status: ('A' for Active; 'I' for Inactive)
REMARK    1  A    between atoms: C_1  and  S_2
REMARK    2  A    between atoms: S_2  and  N_5
REMARK    3  A    between atoms: N_5  and  C_6
REMARK    4  A    between atoms: N_5  and  C_16
REMARK    5  A    between atoms: C_6  and  C_7
REMARK    6  A    between atoms: N_9  and  C_10
REMARK    7  A    between atoms: C_10  and  C_11
REMARK    8  A    between atoms: C_21  and  C_22
REMARK                            x       y       z     vdW  Elec       q    Type
REMARK                         _______ _______ _______ _____ _____    ______ ____
ROOT
ATOM      1  N   UNL     1       2.756   4.135  19.037  0.00  0.00    +0.000 N 
ENDROOT
BRANCH   1   2
ATOM      2  C   UNL     1       3.836   4.272  18.099  0.00  0.00    +0.000 A 
ATOM      3  C   UNL     1       3.674   4.051  16.733  0.00  0.00    +0.000 A 
ATOM      4  C   UNL     1       4.768   4.206  15.879  0.00  0.00    +0.000 A 
ATOM      5  C   UNL     1       6.020   4.591  16.382  0.00  0.00    +0.000 A 
ATOM      6 CL   UNL     1       7.301   4.733  15.236  0.00  0.00    +0.000 Cl
ATOM      7  C   UNL     1       6.187   4.836  17.749  0.00  0.00    +0.000 A 
ATOM      8  C   UNL     1       5.075   4.660  18.600  0.00  0.00    +0.000 A 
BRANCH   7   9
ATOM      9  C   UNL     1       7.463   5.295  18.401  0.00  0.00    +0.000 C 
ATOM     10  F   UNL     1       7.415   5.533  19.736  0.00  0.00    +0.000 F 
ATOM     11  F   UNL     1       8.470   4.393  18.224  0.00  0.00    +0.000 F 
ATOM     12  F   UNL     1       7.918   6.454  17.841  0.00  0.00    +0.000 F 
ENDBRANCH   7   9
ENDBRANCH   1   2
BRANCH   1  14
ATOM     13  C   UNL     1       1.653   2.327  20.813  0.00  0.00    +0.000 C 
ATOM     14  S   UNL     1       2.116   2.546  19.106  0.00  0.00    +0.000 S 
ATOM     15  O   UNL     1       3.173   1.616  18.770  0.00  0.00    +0.000 OA
ATOM     16  O   UNL     1       0.868   2.538  18.364  0.00  0.00    +0.000 OA
ENDBRANCH   1  14
BRANCH   1  17
ATOM     17  C   UNL     1       2.943   4.872  20.321  0.00  0.00    +0.000 C 
BRANCH  17  18
ATOM     18  C   UNL     1       1.852   5.899  20.564  0.00  0.00    +0.000 C 
ATOM     19  O   UNL     1       0.663   5.591  20.615  0.00  0.00    +0.000 OA
ATOM     20  N   UNL     1       2.252   7.213  20.717  0.00  0.00    +0.000 N 
ATOM     21  H   UNL     1       3.220   7.439  20.912  0.00  0.00    +0.000 HD
BRANCH  20  22
ATOM     22  C   UNL     1       1.253   8.198  21.080  0.00  0.00    +0.000 C 
BRANCH  22  23
ATOM     23  C   UNL     1       0.874   9.042  19.922  0.00  0.00    +0.000 A 
ATOM     24  C   UNL     1       1.425   9.212  18.667  0.00  0.00    +0.000 A 
ATOM     25  C   UNL     1       0.554  10.075  17.960  0.00  0.00    +0.000 A 
ATOM     26  C   UNL     1      -0.469  10.381  18.826  0.00  0.00    +0.000 A 
ATOM     27  O   UNL     1      -0.281   9.765  20.024  0.00  0.00    +0.000 OA
ENDBRANCH  22  23
ENDBRANCH  20  22
ENDBRANCH  17  18
ENDBRANCH   1  17
TORSDOF 7
ENDMDL
MODEL 9
REMARK VINA RESULT:      -7.7      3.075      6.230
REMARK  Name = 
REMARK  8 active torsions:
REMARK  status: ('A' for Active; 'I' for Inactive)
REMARK    1  A    between atoms: C_1  and  S_2
REMARK    2  A    between atoms: S_2  and  N_5
REMARK    3  A    between atoms: N_5  and  C_6
REMARK    4  A    between atoms: N_5  and  C_16
REMARK    5  A    between atoms: C_6  and  C_7
REMARK    6  A    between atoms: N_9  and  C_10
REMARK    7  A    between atoms: C_10  and  C_11
REMARK    8  A    between atoms: C_21  and  C_22
REMARK                            x       y       z     vdW  Elec       q    Type
REMARK                         _______ _______ _______ _____ _____    ______ ____
ROOT
ATOM      1  N   UNL     1       5.963   5.046  17.546  0.00  0.00    +0.000 N 
ENDROOT
BRANCH   1   2
ATOM      2  C   UNL     1       4.727   5.129  18.273  0.00  0.00    +0.000 A 
ATOM      3  C   UNL     1       3.887   6.240  18.200  0.00  0.00    +0.000 A 
ATOM      4  C   UNL     1       2.698   6.250  18.932  0.00  0.00    +0.000 A 
ATOM      5  C   UNL     1       2.338   5.152  19.728  0.00  0.00    +0.000 A 
ATOM      6 CL   UNL     1       0.856   5.286  20.600  0.00  0.00    +0.000 Cl
ATOM      7  C   UNL     1       3.163   4.024  19.792  0.00  0.00    +0.000 A 
ATOM      8  C   UNL     1       4.369   4.037  19.057  0.00  0.00    +0.000 A 
BRANCH   7   9
ATOM      9  C   UNL     1       2.867   2.772  20.571  0.00  0.00    +0.000 C 
ATOM     10  F   UNL     1       2.089   2.908  21.674  0.00  0.00    +0.000 F 
ATOM     11  F   UNL     1       2.250   1.833  19.799  0.00  0.00    +0.000 F 
ATOM     12  F   UNL     1       4.016   2.177  21.008  0.00  0.00    +0.000 F 
ENDBRANCH   7   9
ENDBRANCH   1   2
BRANCH   1  14
ATOM     13  C   UNL     1       7.818   7.031  18.056  0.00  0.00    +0.000 C 
ATOM     14  S   UNL     1       7.340   5.376  18.513  0.00  0.00    +0.000 S 
ATOM     15  O   UNL     1       8.388   4.450  18.141  0.00  0.00    +0.000 OA
ATOM     16  O   UNL     1       6.900   5.470  19.894  0.00  0.00    +0.000 OA
ENDBRANCH   1  14
BRANCH   1  17
ATOM     17  C   UNL     1       6.043   3.919  16.572  0.00  0.00    +0.000 C 
BRANCH  17  18
ATOM     18  C   UNL     1       6.478   4.376  15.191  0.00  0.00    +0.000 C 
ATOM     19  O   UNL     1       7.544   4.956  15.000  0.00  0.00    +0.000 OA
ATOM     20  N   UNL     1       5.611   4.120  14.146  0.00  0.00    +0.000 N 
ATOM     21  H   UNL     1       4.859   3.448  14.250  0.00  0.00    +0.000 HD
BRANCH  20  22
ATOM     22  C   UNL     1       6.049   4.424  12.799  0.00  0.00    +0.000 C 
BRANCH  22  23
ATOM     23  C   UNL     1       6.308   3.191  12.019  0.00  0.00    +0.000 A 
ATOM     24  C   UNL     1       7.459   2.642  11.489  0.00  0.00    +0.000 A 
ATOM     25  C   UNL     1       7.091   1.392  10.939  0.00  0.00    +0.000 A 
ATOM     26  C   UNL     1       5.741   1.257  11.163  0.00  0.00    +0.000 A 
ATOM     27  O   UNL     1       5.253   2.348  11.811  0.00  0.00    +0.000 OA
ENDBRANCH  22  23
ENDBRANCH  20  22
ENDBRANCH  17  18
ENDBRANCH   1  17
TORSDOF 7
ENDMDL
