MODEL 1
REMARK VINA RESULT:      -7.2      0.000      0.000
REMARK  Name = 
REMARK  12 active torsions:
REMARK  status: ('A' for Active; 'I' for Inactive)
REMARK    1  A    between atoms: C_1  and  O_2
REMARK    2  A    between atoms: O_2  and  C_3
REMARK    3  A    between atoms: C_6  and  C_7
REMARK    4  A    between atoms: C_9  and  C_10
REMARK    5  A    between atoms: C_12  and  O_13
REMARK    6  A    between atoms: O_13  and  C_14
REMARK    7  A    between atoms: C_15  and  O_16
REMARK    8  A    between atoms: O_16  and  C_17
REMARK    9  A    between atoms: C_18  and  O_19
REMARK   10  A    between atoms: O_19  and  C_20
REMARK   11  A    between atoms: N_23  and  C_24
REMARK   12  A    between atoms: C_26  and  N_27
REMARK                            x       y       z     vdW  Elec       q    Type
REMARK                         _______ _______ _______ _____ _____    ______ ____
ROOT
ATOM      1  C   UNL     1      -0.431  10.925  19.550  0.00  0.00    +0.000 C 
ATOM      2  C   UNL     1       0.037   9.535  19.988  0.00  0.00    +0.000 C 
ATOM      3  C   UNL     1       1.367   9.456  19.269  0.00  0.00    +0.000 C 
ATOM      4  N   UNL     1       1.822  10.593  18.845  0.00  0.00    +0.000 NA
ATOM      5  N   UNL     1       0.829  11.473  19.069  0.00  0.00    +0.000 N 
ATOM      6  C   UNL     1       0.998  12.902  19.009  0.00  0.00    +0.000 C 
ENDROOT
BRANCH   1  10
ATOM      7  C   UNL     1      -3.475  10.687  16.449  0.00  0.00    +0.000 A 
ATOM      8  C   UNL     1      -2.296   9.930  16.362  0.00  0.00    +0.000 A 
ATOM      9  C   UNL     1      -1.314   9.996  17.356  0.00  0.00    +0.000 A 
ATOM     10  C   UNL     1      -1.493  10.827  18.464  0.00  0.00    +0.000 A 
ATOM     11  C   UNL     1      -2.676  11.586  18.536  0.00  0.00    +0.000 A 
ATOM     12  C   UNL     1      -3.693  11.495  17.575  0.00  0.00    +0.000 A 
BRANCH  12  13
ATOM     13  N   UNL     1      -4.828  12.310  17.750  0.00  0.00    +0.000 N 
ATOM     14  H   UNL     1      -4.646  13.119  18.337  0.00  0.00    +0.000 HD
ATOM     15  H   UNL     1      -5.602  11.770  18.126  0.00  0.00    +0.000 HD
ENDBRANCH  12  13
BRANCH   7  17
ATOM     16  C   UNL     1      -3.793  10.055  14.173  0.00  0.00    +0.000 C 
ATOM     17  O   UNL     1      -4.350  10.466  15.416  0.00  0.00    +0.000 OA
ENDBRANCH   7  17
ENDBRANCH   1  10
BRANCH   3  18
ATOM     18  C   UNL     1       2.082   8.174  19.087  0.00  0.00    +0.000 A 
ATOM     19  C   UNL     1       1.920   7.140  20.000  0.00  0.00    +0.000 A 
ATOM     20  C   UNL     1       2.557   5.915  19.800  0.00  0.00    +0.000 A 
ATOM     21  C   UNL     1       3.415   5.735  18.690  0.00  0.00    +0.000 A 
ATOM     22  C   UNL     1       3.590   6.790  17.767  0.00  0.00    +0.000 A 
ATOM     23  C   UNL     1       2.898   7.993  17.967  0.00  0.00    +0.000 A 
BRANCH  20  24
ATOM     24  O   UNL     1       2.399   4.856  20.667  0.00  0.00    +0.000 OA
ATOM     25  C   UNL     1       1.163   4.151  20.571  0.00  0.00    +0.000 C 
ENDBRANCH  20  24
BRANCH  21  26
ATOM     26  O   UNL     1       4.070   4.525  18.661  0.00  0.00    +0.000 OA
ATOM     27  C   UNL     1       3.605   3.544  17.743  0.00  0.00    +0.000 C 
ENDBRANCH  21  26
BRANCH  22  28
ATOM     28  O   UNL     1       4.459   6.604  16.723  0.00  0.00    +0.000 OA
ATOM     29  C   UNL     1       5.843   6.854  16.944  0.00  0.00    +0.000 C 
ENDBRANCH  22  28
ENDBRANCH   3  18
TORSDOF 7
ENDMDL
MODEL 2
REMARK VINA RESULT:      -7.1      0.603      2.464
REMARK  Name = 
REMARK  12 active torsions:
REMARK  status: ('A' for Active; 'I' for Inactive)
REMARK    1  A    between atoms: C_1  and  O_2
REMARK    2  A    between atoms: O_2  and  C_3
REMARK    3  A    between atoms: C_6  and  C_7
REMARK    4  A    between atoms: C_9  and  C_10
REMARK    5  A    between atoms: C_12  and  O_13
REMARK    6  A    between atoms: O_13  and  C_14
REMARK    7  A    between atoms: C_15  and  O_16
REMARK    8  A    between atoms: O_16  and  C_17
REMARK    9  A    between atoms: C_18  and  O_19
REMARK   10  A    between atoms: O_19  and  C_20
REMARK   11  A    between atoms: N_23  and  C_24
REMARK   12  A    between atoms: C_26  and  N_27
REMARK                            x       y       z     vdW  Elec       q    Type
REMARK                         _______ _______ _______ _____ _____    ______ ____
ROOT
ATOM      1  C   UNL     1      -0.226  10.825  19.770  0.00  0.00    +0.000 C 
ATOM      2  C   UNL     1       0.121   9.406  20.225  0.00  0.00    +0.000 C 
ATOM      3  C   UNL     1       1.416   9.188  19.470  0.00  0.00    +0.000 C 
ATOM      4  N   UNL     1       1.963  10.268  19.010  0.00  0.00    +0.000 NA
ATOM      5  N   UNL     1       1.065  11.243  19.243  0.00  0.00    +0.000 N 
ATOM      6  C   UNL     1       1.367  12.647  19.149  0.00  0.00    +0.000 C 
ENDROOT
BRANCH   1  10
ATOM      7  C   UNL     1      -3.374  10.821  16.765  0.00  0.00    +0.000 A 
ATOM      8  C   UNL     1      -2.212  10.053  16.594  0.00  0.00    +0.000 A 
ATOM      9  C   UNL     1      -1.196  10.044  17.557  0.00  0.00    +0.000 A 
ATOM     10  C   UNL     1      -1.325  10.809  18.717  0.00  0.00    +0.000 A 
ATOM     11  C   UNL     1      -2.492  11.580  18.874  0.00  0.00    +0.000 A 
ATOM     12  C   UNL     1      -3.541  11.563  17.944  0.00  0.00    +0.000 A 
BRANCH  12  13
ATOM     13  N   UNL     1      -4.655  12.383  18.205  0.00  0.00    +0.000 N 
ATOM     14  H   UNL     1      -5.519  12.011  17.819  0.00  0.00    +0.000 HD
ATOM     15  H   UNL     1      -4.495  13.326  17.863  0.00  0.00    +0.000 HD
ENDBRANCH  12  13
BRANCH   7  17
ATOM     16  C   UNL     1      -3.804  10.155  14.518  0.00  0.00    +0.000 C 
ATOM     17  O   UNL     1      -4.286  10.676  15.751  0.00  0.00    +0.000 OA
ENDBRANCH   7  17
ENDBRANCH   1  10
BRANCH   3  18
ATOM     18  C   UNL     1       2.000   7.840  19.295  0.00  0.00    +0.000 A 
ATOM     19  C   UNL     1       2.759   7.540  18.172  0.00  0.00    +0.000 A 
ATOM     20  C   UNL     1       3.349   6.283  18.033  0.00  0.00    +0.000 A 
ATOM     21  C   UNL     1       3.135   5.288  19.014  0.00  0.00    +0.000 A 
ATOM     22  C   UNL     1       2.353   5.588  20.152  0.00  0.00    +0.000 A 
ATOM     23  C   UNL     1       1.814   6.874  20.289  0.00  0.00    +0.000 A 
BRANCH  20  24
ATOM     24  O   UNL     1       4.132   5.957  16.948  0.00  0.00    +0.000 OA
ATOM     25  C   UNL     1       5.247   6.812  16.703  0.00  0.00    +0.000 C 
ENDBRANCH  20  24
BRANCH  21  26
ATOM     26  O   UNL     1       3.676   4.058  18.711  0.00  0.00    +0.000 OA
ATOM     27  C   UNL     1       4.936   3.733  19.284  0.00  0.00    +0.000 C 
ENDBRANCH  21  26
BRANCH  22  28
ATOM     28  O   UNL     1       2.126   4.592  21.066  0.00  0.00    +0.000 OA
ATOM     29  C   UNL     1       1.153   3.600  20.758  0.00  0.00    +0.000 C 
ENDBRANCH  22  28
ENDBRANCH   3  18
TORSDOF 7
ENDMDL
MODEL 3
REMARK VINA RESULT:      -7.1      4.023      8.440
REMARK  Name = 
REMARK  12 active torsions:
REMARK  status: ('A' for Active; 'I' for Inactive)
REMARK    1  A    between atoms: C_1  and  O_2
REMARK    2  A    between atoms: O_2  and  C_3
REMARK    3  A    between atoms: C_6  and  C_7
REMARK    4  A    between atoms: C_9  and  C_10
REMARK    5  A    between atoms: C_12  and  O_13
REMARK    6  A    between atoms: O_13  and  C_14
REMARK    7  A    between atoms: C_15  and  O_16
REMARK    8  A    between atoms: O_16  and  C_17
REMARK    9  A    between atoms: C_18  and  O_19
REMARK   10  A    between atoms: O_19  and  C_20
REMARK   11  A    between atoms: N_23  and  C_24
REMARK   12  A    between atoms: C_26  and  N_27
REMARK                            x       y       z     vdW  Elec       q    Type
REMARK                         _______ _______ _______ _____ _____    ______ ____
ROOT
ATOM      1  C   UNL     1       4.063   4.319  18.747  0.00  0.00    +0.000 C 
ATOM      2  C   UNL     1       3.887   5.526  19.670  0.00  0.00    +0.000 C 
ATOM      3  C   UNL     1       2.536   6.028  19.208  0.00  0.00    +0.000 C 
ATOM      4  N   UNL     1       1.853   5.179  18.507  0.00  0.00    +0.000 NA
ATOM      5  N   UNL     1       2.690   4.146  18.295  0.00  0.00    +0.000 N 
ATOM      6  C   UNL     1       2.267   2.862  17.802  0.00  0.00    +0.000 C 
ENDROOT
BRANCH   1  10
ATOM      7  C   UNL     1       6.857   5.225  15.535  0.00  0.00    +0.000 A 
ATOM      8  C   UNL     1       5.963   4.149  15.431  0.00  0.00    +0.000 A 
ATOM      9  C   UNL     1       5.058   3.853  16.456  0.00  0.00    +0.000 A 
ATOM     10  C   UNL     1       5.030   4.633  17.614  0.00  0.00    +0.000 A 
ATOM     11  C   UNL     1       5.936   5.706  17.709  0.00  0.00    +0.000 A 
ATOM     12  C   UNL     1       6.816   6.048  16.672  0.00  0.00    +0.000 A 
BRANCH  12  13
ATOM     13  N   UNL     1       7.682   7.137  16.886  0.00  0.00    +0.000 N 
ATOM     14  H   UNL     1       8.609   6.851  17.190  0.00  0.00    +0.000 HD
ATOM     15  H   UNL     1       7.280   7.789  17.553  0.00  0.00    +0.000 HD
ENDBRANCH  12  13
BRANCH   7  17
ATOM     16  C   UNL     1       7.239   4.726  13.237  0.00  0.00    +0.000 C 
ATOM     17  O   UNL     1       7.638   5.404  14.422  0.00  0.00    +0.000 OA
ENDBRANCH   7  17
ENDBRANCH   1  10
BRANCH   3  18
ATOM     18  C   UNL     1       2.046   7.381  19.550  0.00  0.00    +0.000 A 
ATOM     19  C   UNL     1       1.978   8.374  18.581  0.00  0.00    +0.000 A 
ATOM     20  C   UNL     1       1.470   9.634  18.896  0.00  0.00    +0.000 A 
ATOM     21  C   UNL     1       1.069   9.926  20.220  0.00  0.00    +0.000 A 
ATOM     22  C   UNL     1       1.148   8.921  21.210  0.00  0.00    +0.000 A 
ATOM     23  C   UNL     1       1.616   7.649  20.853  0.00  0.00    +0.000 A 
BRANCH  20  24
ATOM     24  O   UNL     1       1.359  10.636  17.957  0.00  0.00    +0.000 OA
ATOM     25  C   UNL     1       2.458  11.542  17.879  0.00  0.00    +0.000 C 
ENDBRANCH  20  24
BRANCH  21  26
ATOM     26  O   UNL     1       0.690  11.233  20.430  0.00  0.00    +0.000 OA
ATOM     27  C   UNL     1      -0.692  11.547  20.320  0.00  0.00    +0.000 C 
ENDBRANCH  21  26
BRANCH  22  28
ATOM     28  O   UNL     1       0.793   9.243  22.494  0.00  0.00    +0.000 OA
ATOM     29  C   UNL     1      -0.572   9.101  22.874  0.00  0.00    +0.000 C 
ENDBRANCH  22  28
ENDBRANCH   3  18
TORSDOF 7
ENDMDL
MODEL 4
REMARK VINA RESULT:      -7.0      3.938      8.183
REMARK  Name = 
REMARK  12 active torsions:
REMARK  status: ('A' for Active; 'I' for Inactive)
REMARK    1  A    between atoms: C_1  and  O_2
REMARK    2  A    between atoms: O_2  and  C_3
REMARK    3  A    between atoms: C_6  and  C_7
REMARK    4  A    between atoms: C_9  and  C_10
REMARK    5  A    between atoms: C_12  and  O_13
REMARK    6  A    between atoms: O_13  and  C_14
REMARK    7  A    between atoms: C_15  and  O_16
REMARK    8  A    between atoms: O_16  and  C_17
REMARK    9  A    between atoms: C_18  and  O_19
REMARK   10  A    between atoms: O_19  and  C_20
REMARK   11  A    between atoms: N_23  and  C_24
REMARK   12  A    between atoms: C_26  and  N_27
REMARK                            x       y       z     vdW  Elec       q    Type
REMARK                         _______ _______ _______ _____ _____    ______ ____
ROOT
ATOM      1  C   UNL     1       4.264   4.180  18.689  0.00  0.00    +0.000 C 
ATOM      2  C   UNL     1       3.985   5.395  19.575  0.00  0.00    +0.000 C 
ATOM      3  C   UNL     1       2.606   5.781  19.084  0.00  0.00    +0.000 C 
ATOM      4  N   UNL     1       1.999   4.864  18.400  0.00  0.00    +0.000 NA
ATOM      5  N   UNL     1       2.913   3.892  18.227  0.00  0.00    +0.000 N 
ATOM      6  C   UNL     1       2.594   2.566  17.766  0.00  0.00    +0.000 C 
ENDROOT
BRANCH   1  10
ATOM      7  C   UNL     1       7.024   5.204  15.484  0.00  0.00    +0.000 A 
ATOM      8  C   UNL     1       6.196   4.076  15.389  0.00  0.00    +0.000 A 
ATOM      9  C   UNL     1       5.301   3.741  16.412  0.00  0.00    +0.000 A 
ATOM     10  C   UNL     1       5.219   4.534  17.558  0.00  0.00    +0.000 A 
ATOM     11  C   UNL     1       6.061   5.659  17.644  0.00  0.00    +0.000 A 
ATOM     12  C   UNL     1       6.927   6.038  16.609  0.00  0.00    +0.000 A 
BRANCH  12  13
ATOM     13  N   UNL     1       7.725   7.179  16.813  0.00  0.00    +0.000 N 
ATOM     14  H   UNL     1       8.497   7.244  16.155  0.00  0.00    +0.000 HD
ATOM     15  H   UNL     1       8.075   7.206  17.767  0.00  0.00    +0.000 HD
ENDBRANCH  12  13
BRANCH   7  17
ATOM     16  C   UNL     1       7.342   4.858  13.148  0.00  0.00    +0.000 C 
ATOM     17  O   UNL     1       7.803   5.413  14.374  0.00  0.00    +0.000 OA
ENDBRANCH   7  17
ENDBRANCH   1  10
BRANCH   3  18
ATOM     18  C   UNL     1       2.012   7.103  19.382  0.00  0.00    +0.000 A 
ATOM     19  C   UNL     1       1.373   7.331  20.594  0.00  0.00    +0.000 A 
ATOM     20  C   UNL     1       0.857   8.593  20.892  0.00  0.00    +0.000 A 
ATOM     21  C   UNL     1       0.935   9.635  19.940  0.00  0.00    +0.000 A 
ATOM     22  C   UNL     1       1.575   9.400  18.702  0.00  0.00    +0.000 A 
ATOM     23  C   UNL     1       2.129   8.137  18.449  0.00  0.00    +0.000 A 
BRANCH  20  24
ATOM     24  O   UNL     1       0.241   8.868  22.094  0.00  0.00    +0.000 OA
ATOM     25  C   UNL     1       1.097   9.309  23.146  0.00  0.00    +0.000 C 
ENDBRANCH  20  24
BRANCH  21  26
ATOM     26  O   UNL     1       0.294  10.797  20.305  0.00  0.00    +0.000 OA
ATOM     27  C   UNL     1      -1.020  11.011  19.808  0.00  0.00    +0.000 C 
ENDBRANCH  21  26
BRANCH  22  28
ATOM     28  O   UNL     1       1.601  10.414  17.780  0.00  0.00    +0.000 OA
ATOM     29  C   UNL     1       2.478  11.512  18.006  0.00  0.00    +0.000 C 
ENDBRANCH  22  28
ENDBRANCH   3  18
TORSDOF 7
ENDMDL
MODEL 5
REMARK VINA RESULT:      -6.9      3.608      8.183
REMARK  Name = 
REMARK  12 active torsions:
REMARK  status: ('A' for Active; 'I' for Inactive)
REMARK    1  A    between atoms: C_1  and  O_2
REMARK    2  A    between atoms: O_2  and  C_3
REMARK    3  A    between atoms: C_6  and  C_7
REMARK    4  A    between atoms: C_9  and  C_10
REMARK    5  A    between atoms: C_12  and  O_13
REMARK    6  A    between atoms: O_13  and  C_14
REMARK    7  A    between atoms: C_15  and  O_16
REMARK    8  A    between atoms: O_16  and  C_17
REMARK    9  A    between atoms: C_18  and  O_19
REMARK   10  A    between atoms: O_19  and  C_20
REMARK   11  A    between atoms: N_23  and  C_24
REMARK   12  A    between atoms: C_26  and  N_27
REMARK                            x       y       z     vdW  Elec       q    Type
REMARK                         _______ _______ _______ _____ _____    ______ ____
ROOT
ATOM      1  C   UNL     1       4.066   4.257  18.845  0.00  0.00    +0.000 C 
ATOM      2  C   UNL     1       3.848   5.462  19.762  0.00  0.00    +0.000 C 
ATOM      3  C   UNL     1       2.485   5.921  19.289  0.00  0.00    +0.000 C 
ATOM      4  N   UNL     1       1.833   5.049  18.588  0.00  0.00    +0.000 NA
ATOM      5  N   UNL     1       2.701   4.041  18.385  0.00  0.00    +0.000 N 
ATOM      6  C   UNL     1       2.319   2.743  17.896  0.00  0.00    +0.000 C 
ENDROOT
BRANCH   1  10
ATOM      7  C   UNL     1       6.852   5.232  15.647  0.00  0.00    +0.000 A 
ATOM      8  C   UNL     1       5.985   4.134  15.538  0.00  0.00    +0.000 A 
ATOM      9  C   UNL     1       5.082   3.815  16.559  0.00  0.00    +0.000 A 
ATOM     10  C   UNL     1       5.030   4.594  17.716  0.00  0.00    +0.000 A 
ATOM     11  C   UNL     1       5.909   5.689  17.816  0.00  0.00    +0.000 A 
ATOM     12  C   UNL     1       6.785   6.052  16.783  0.00  0.00    +0.000 A 
BRANCH  12  13
ATOM     13  N   UNL     1       7.623   7.162  17.002  0.00  0.00    +0.000 N 
ATOM     14  H   UNL     1       7.961   7.578  16.138  0.00  0.00    +0.000 HD
ATOM     15  H   UNL     1       8.405   6.910  17.599  0.00  0.00    +0.000 HD
ENDBRANCH  12  13
BRANCH   7  17
ATOM     16  C   UNL     1       7.204   4.820  13.326  0.00  0.00    +0.000 C 
ATOM     17  O   UNL     1       7.634   5.430  14.538  0.00  0.00    +0.000 OA
ENDBRANCH   7  17
ENDBRANCH   1  10
BRANCH   3  18
ATOM     18  C   UNL     1       1.953   7.261  19.623  0.00  0.00    +0.000 A 
ATOM     19  C   UNL     1       1.884   7.683  20.944  0.00  0.00    +0.000 A 
ATOM     20  C   UNL     1       1.427   8.966  21.251  0.00  0.00    +0.000 A 
ATOM     21  C   UNL     1       0.983   9.826  20.222  0.00  0.00    +0.000 A 
ATOM     22  C   UNL     1       1.042   9.393  18.878  0.00  0.00    +0.000 A 
ATOM     23  C   UNL     1       1.552   8.118  18.594  0.00  0.00    +0.000 A 
BRANCH  20  24
ATOM     24  O   UNL     1       1.370   9.432  22.547  0.00  0.00    +0.000 OA
ATOM     25  C   UNL     1       0.102   9.330  23.191  0.00  0.00    +0.000 C 
ENDBRANCH  20  24
BRANCH  21  26
ATOM     26  O   UNL     1       0.454  11.020  20.659  0.00  0.00    +0.000 OA
ATOM     27  C   UNL     1       1.270  12.179  20.560  0.00  0.00    +0.000 C 
ENDBRANCH  21  26
BRANCH  22  28
ATOM     28  O   UNL     1       0.566  10.231  17.903  0.00  0.00    +0.000 OA
ATOM     29  C   UNL     1      -0.829  10.216  17.620  0.00  0.00    +0.000 C 
ENDBRANCH  22  28
ENDBRANCH   3  18
TORSDOF 7
ENDMDL
MODEL 6
REMARK VINA RESULT:      -6.7      1.116      2.633
REMARK  Name = 
REMARK  12 active torsions:
REMARK  status: ('A' for Active; 'I' for Inactive)
REMARK    1  A    between atoms: C_1  and  O_2
REMARK    2  A    between atoms: O_2  and  C_3
REMARK    3  A    between atoms: C_6  and  C_7
REMARK    4  A    between atoms: C_9  and  C_10
REMARK    5  A    between atoms: C_12  and  O_13
REMARK    6  A    between atoms: O_13  and  C_14
REMARK    7  A    between atoms: C_15  and  O_16
REMARK    8  A    between atoms: O_16  and  C_17
REMARK    9  A    between atoms: C_18  and  O_19
REMARK   10  A    between atoms: O_19  and  C_20
REMARK   11  A    between atoms: N_23  and  C_24
REMARK   12  A    between atoms: C_26  and  N_27
REMARK                            x       y       z     vdW  Elec       q    Type
REMARK                         _______ _______ _______ _____ _____    ______ ____
ROOT
ATOM      1  C   UNL     1       0.723  10.565  19.407  0.00  0.00    +0.000 C 
ATOM      2  C   UNL     1       0.995   9.155  19.934  0.00  0.00    +0.000 C 
ATOM      3  C   UNL     1       2.025   8.683  18.930  0.00  0.00    +0.000 C 
ATOM      4  N   UNL     1       2.569   9.626  18.228  0.00  0.00    +0.000 NA
ATOM      5  N   UNL     1       1.884  10.740  18.547  0.00  0.00    +0.000 N 
ATOM      6  C   UNL     1       2.323  12.071  18.217  0.00  0.00    +0.000 C 
ENDROOT
BRANCH   1  10
ATOM      7  C   UNL     1      -3.050  10.768  17.247  0.00  0.00    +0.000 A 
ATOM      8  C   UNL     1      -2.029   9.898  16.836  0.00  0.00    +0.000 A 
ATOM      9  C   UNL     1      -0.814   9.822  17.527  0.00  0.00    +0.000 A 
ATOM     10  C   UNL     1      -0.596  10.622  18.650  0.00  0.00    +0.000 A 
ATOM     11  C   UNL     1      -1.625  11.495  19.049  0.00  0.00    +0.000 A 
ATOM     12  C   UNL     1      -2.867  11.549  18.399  0.00  0.00    +0.000 A 
BRANCH  12  13
ATOM     13  N   UNL     1      -3.816  12.468  18.884  0.00  0.00    +0.000 N 
ATOM     14  H   UNL     1      -3.690  13.403  18.506  0.00  0.00    +0.000 HD
ATOM     15  H   UNL     1      -3.801  12.496  19.900  0.00  0.00    +0.000 HD
ENDBRANCH  12  13
BRANCH   7  17
ATOM     16  C   UNL     1      -4.021  10.541  15.083  0.00  0.00    +0.000 C 
ATOM     17  O   UNL     1      -4.189  10.680  16.489  0.00  0.00    +0.000 OA
ENDBRANCH   7  17
ENDBRANCH   1  10
BRANCH   3  18
ATOM     18  C   UNL     1       2.378   7.254  18.785  0.00  0.00    +0.000 A 
ATOM     19  C   UNL     1       3.248   6.839  17.786  0.00  0.00    +0.000 A 
ATOM     20  C   UNL     1       3.616   5.497  17.683  0.00  0.00    +0.000 A 
ATOM     21  C   UNL     1       3.065   4.540  18.566  0.00  0.00    +0.000 A 
ATOM     22  C   UNL     1       2.171   4.960  19.576  0.00  0.00    +0.000 A 
ATOM     23  C   UNL     1       1.857   6.322  19.687  0.00  0.00    +0.000 A 
BRANCH  20  24
ATOM     24  O   UNL     1       4.499   5.050  16.723  0.00  0.00    +0.000 OA
ATOM     25  C   UNL     1       5.776   5.684  16.707  0.00  0.00    +0.000 C 
ENDBRANCH  20  24
BRANCH  21  26
ATOM     26  O   UNL     1       3.419   3.238  18.295  0.00  0.00    +0.000 OA
ATOM     27  C   UNL     1       2.438   2.397  17.701  0.00  0.00    +0.000 C 
ENDBRANCH  21  26
BRANCH  22  28
ATOM     28  O   UNL     1       1.618   4.006  20.392  0.00  0.00    +0.000 OA
ATOM     29  C   UNL     1       2.270   3.709  21.622  0.00  0.00    +0.000 C 
ENDBRANCH  22  28
ENDBRANCH   3  18
TORSDOF 7
ENDMDL
MODEL 7
REMARK VINA RESULT:      -6.7      1.277      2.913
REMARK  Name = 
REMARK  12 active torsions:
REMARK  status: ('A' for Active; 'I' for Inactive)
REMARK    1  A    between atoms: C_1  and  O_2
REMARK    2  A    between atoms: O_2  and  C_3
REMARK    3  A    between atoms: C_6  and  C_7
REMARK    4  A    between atoms: C_9  and  C_10
REMARK    5  A    between atoms: C_12  and  O_13
REMARK    6  A    between atoms: O_13  and  C_14
REMARK    7  A    between atoms: C_15  and  O_16
REMARK    8  A    between atoms: O_16  and  C_17
REMARK    9  A    between atoms: C_18  and  O_19
REMARK   10  A    between atoms: O_19  and  C_20
REMARK   11  A    between atoms: N_23  and  C_24
REMARK   12  A    between atoms: C_26  and  N_27
REMARK                            x       y       z     vdW  Elec       q    Type
REMARK                         _______ _______ _______ _____ _____    ______ ____
ROOT
ATOM      1  C   UNL     1       0.318  11.195  19.554  0.00  0.00    +0.000 C 
ATOM      2  C   UNL     1       0.721   9.834  20.127  0.00  0.00    +0.000 C 
ATOM      3  C   UNL     1       1.742   9.397  19.098  0.00  0.00    +0.000 C 
ATOM      4  N   UNL     1       2.181  10.347  18.334  0.00  0.00    +0.000 NA
ATOM      5  N   UNL     1       1.425  11.419  18.636  0.00  0.00    +0.000 N 
ATOM      6  C   UNL     1       1.745  12.763  18.232  0.00  0.00    +0.000 C 
ENDROOT
BRANCH   1  10
ATOM      7  C   UNL     1      -3.535  10.931  17.547  0.00  0.00    +0.000 A 
ATOM      8  C   UNL     1      -3.375  11.713  18.701  0.00  0.00    +0.000 A 
ATOM      9  C   UNL     1      -2.139  11.808  19.351  0.00  0.00    +0.000 A 
ATOM     10  C   UNL     1      -1.032  11.116  18.855  0.00  0.00    +0.000 A 
ATOM     11  C   UNL     1      -1.207  10.330  17.701  0.00  0.00    +0.000 A 
ATOM     12  C   UNL     1      -2.425  10.262  17.008  0.00  0.00    +0.000 A 
BRANCH  12  13
ATOM     13  N   UNL     1      -2.481   9.436  15.870  0.00  0.00    +0.000 N 
ATOM     14  H   UNL     1      -2.686   8.466  16.096  0.00  0.00    +0.000 HD
ATOM     15  H   UNL     1      -1.617   9.498  15.339  0.00  0.00    +0.000 HD
ENDBRANCH  12  13
BRANCH   7  17
ATOM     16  C   UNL     1      -5.558  12.161  17.275  0.00  0.00    +0.000 C 
ATOM     17  O   UNL     1      -4.796  10.988  17.012  0.00  0.00    +0.000 OA
ENDBRANCH   7  17
ENDBRANCH   1  10
BRANCH   3  18
ATOM     18  C   UNL     1       2.199   7.994  18.998  0.00  0.00    +0.000 A 
ATOM     19  C   UNL     1       2.960   7.575  17.915  0.00  0.00    +0.000 A 
ATOM     20  C   UNL     1       3.431   6.263  17.848  0.00  0.00    +0.000 A 
ATOM     21  C   UNL     1       3.091   5.336  18.859  0.00  0.00    +0.000 A 
ATOM     22  C   UNL     1       2.306   5.758  19.956  0.00  0.00    +0.000 A 
ATOM     23  C   UNL     1       1.889   7.095  20.022  0.00  0.00    +0.000 A 
BRANCH  20  24
ATOM     24  O   UNL     1       4.213   5.817  16.804  0.00  0.00    +0.000 OA
ATOM     25  C   UNL     1       5.272   6.685  16.404  0.00  0.00    +0.000 C 
ENDBRANCH  20  24
BRANCH  21  26
ATOM     26  O   UNL     1       3.520   4.049  18.626  0.00  0.00    +0.000 OA
ATOM     27  C   UNL     1       4.685   3.607  19.311  0.00  0.00    +0.000 C 
ENDBRANCH  21  26
BRANCH  22  28
ATOM     28  O   UNL     1       1.956   4.828  20.901  0.00  0.00    +0.000 OA
ATOM     29  C   UNL     1       0.993   3.839  20.552  0.00  0.00    +0.000 C 
ENDBRANCH  22  28
ENDBRANCH   3  18
TORSDOF 7
ENDMDL
MODEL 8
REMARK VINA RESULT:      -6.6      3.559      4.581
REMARK  Name = 
REMARK  12 active torsions:
REMARK  status: ('A' for Active; 'I' for Inactive)
REMARK    1  A    between atoms: C_1  and  O_2
REMARK    2  A    between atoms: O_2  and  C_3
REMARK    3  A    between atoms: C_6  and  C_7
REMARK    4  A    between atoms: C_9  and  C_10
REMARK    5  A    between atoms: C_12  and  O_13
REMARK    6  A    between atoms: O_13  and  C_14
REMARK    7  A    between atoms: C_15  and  O_16
REMARK    8  A    between atoms: O_16  and  C_17
REMARK    9  A    between atoms: C_18  and  O_19
REMARK   10  A    between atoms: O_19  and  C_20
REMARK   11  A    between atoms: N_23  and  C_24
REMARK   12  A    between atoms: C_26  and  N_27
REMARK                            x       y       z     vdW  Elec       q    Type
REMARK                         _______ _______ _______ _____ _____    ______ ____
ROOT
ATOM      1  C   UNL     1       0.681   9.744  19.165  0.00  0.00    +0.000 C 
ATOM      2  C   UNL     1       1.146   8.797  18.057  0.00  0.00    +0.000 C 
ATOM      3  C   UNL     1       2.050   7.875  18.847  0.00  0.00    +0.000 C 
ATOM      4  N   UNL     1       1.894   7.934  20.131  0.00  0.00    +0.000 NA
ATOM      5  N   UNL     1       1.044   8.957  20.335  0.00  0.00    +0.000 N 
ATOM      6  C   UNL     1       0.375   9.204  21.586  0.00  0.00    +0.000 C 
ENDROOT
BRANCH   1  10
ATOM      7  C   UNL     1       2.786  13.549  18.991  0.00  0.00    +0.000 A 
ATOM      8  C   UNL     1       2.863  12.633  17.931  0.00  0.00    +0.000 A 
ATOM      9  C   UNL     1       2.186  11.409  17.976  0.00  0.00    +0.000 A 
ATOM     10  C   UNL     1       1.414  11.076  19.090  0.00  0.00    +0.000 A 
ATOM     11  C   UNL     1       1.350  12.000  20.149  0.00  0.00    +0.000 A 
ATOM     12  C   UNL     1       1.981  13.252  20.101  0.00  0.00    +0.000 A 
BRANCH  12  13
ATOM     13  N   UNL     1       1.852  14.089  21.225  0.00  0.00    +0.000 N 
ATOM     14  H   UNL     1       0.883  14.300  21.451  0.00  0.00    +0.000 HD
ATOM     15  H   UNL     1       2.377  14.949  21.095  0.00  0.00    +0.000 HD
ENDBRANCH  12  13
BRANCH   7  17
ATOM     16  C   UNL     1       4.756  14.607  18.168  0.00  0.00    +0.000 C 
ATOM     17  O   UNL     1       3.468  14.717  18.762  0.00  0.00    +0.000 OA
ENDBRANCH   7  17
ENDBRANCH   1  10
BRANCH   3  18
ATOM     18  C   UNL     1       3.021   6.977  18.184  0.00  0.00    +0.000 A 
ATOM     19  C   UNL     1       2.757   5.618  18.064  0.00  0.00    +0.000 A 
ATOM     20  C   UNL     1       3.651   4.782  17.396  0.00  0.00    +0.000 A 
ATOM     21  C   UNL     1       4.860   5.304  16.880  0.00  0.00    +0.000 A 
ATOM     22  C   UNL     1       5.135   6.683  17.011  0.00  0.00    +0.000 A 
ATOM     23  C   UNL     1       4.195   7.509  17.644  0.00  0.00    +0.000 A 
BRANCH  20  24
ATOM     24  O   UNL     1       3.412   3.435  17.231  0.00  0.00    +0.000 OA
ATOM     25  C   UNL     1       3.399   2.654  18.424  0.00  0.00    +0.000 C 
ENDBRANCH  20  24
BRANCH  21  26
ATOM     26  O   UNL     1       5.708   4.363  16.341  0.00  0.00    +0.000 OA
ATOM     27  C   UNL     1       5.755   4.250  14.925  0.00  0.00    +0.000 C 
ENDBRANCH  21  26
BRANCH  22  28
ATOM     28  O   UNL     1       6.332   7.156  16.539  0.00  0.00    +0.000 OA
ATOM     29  C   UNL     1       7.403   7.325  17.461  0.00  0.00    +0.000 C 
ENDBRANCH  22  28
ENDBRANCH   3  18
TORSDOF 7
ENDMDL
MODEL 9
REMARK VINA RESULT:      -6.6      1.472      1.673
REMARK  Name = 
REMARK  12 active torsions:
REMARK  status: ('A' for Active; 'I' for Inactive)
REMARK    1  A    between atoms: C_1  and  O_2
REMARK    2  A    between atoms: O_2  and  C_3
REMARK    3  A    between atoms: C_6  and  C_7
REMARK    4  A    between atoms: C_9  and  C_10
REMARK    5  A    between atoms: C_12  and  O_13
REMARK    6  A    between atoms: O_13  and  C_14
REMARK    7  A    between atoms: C_15  and  O_16
REMARK    8  A    between atoms: O_16  and  C_17
REMARK    9  A    between atoms: C_18  and  O_19
REMARK   10  A    between atoms: O_19  and  C_20
REMARK   11  A    between atoms: N_23  and  C_24
REMARK   12  A    between atoms: C_26  and  N_27
REMARK                            x       y       z     vdW  Elec       q    Type
REMARK                         _______ _______ _______ _____ _____    ______ ____
ROOT
ATOM      1  C   UNL     1       1.083  10.535  19.295  0.00  0.00    +0.000 C 
ATOM      2  C   UNL     1       1.461   9.104  19.680  0.00  0.00    +0.000 C 
ATOM      3  C   UNL     1       2.289   8.707  18.476  0.00  0.00    +0.000 C 
ATOM      4  N   UNL     1       2.684   9.697  17.741  0.00  0.00    +0.000 NA
ATOM      5  N   UNL     1       2.061  10.778  18.244  0.00  0.00    +0.000 N 
ATOM      6  C   UNL     1       2.419  12.133  17.915  0.00  0.00    +0.000 C 
ENDROOT
BRANCH   1  10
ATOM      7  C   UNL     1      -3.027  10.783  17.885  0.00  0.00    +0.000 A 
ATOM      8  C   UNL     1      -2.135   9.844  17.346  0.00  0.00    +0.000 A 
ATOM      9  C   UNL     1      -0.813   9.753  17.796  0.00  0.00    +0.000 A 
ATOM     10  C   UNL     1      -0.355  10.608  18.801  0.00  0.00    +0.000 A 
ATOM     11  C   UNL     1      -1.257  11.550  19.329  0.00  0.00    +0.000 A 
ATOM     12  C   UNL     1      -2.598  11.623  18.925  0.00  0.00    +0.000 A 
BRANCH  12  13
ATOM     13  N   UNL     1      -3.403  12.612  19.520  0.00  0.00    +0.000 N 
ATOM     14  H   UNL     1      -2.864  13.393  19.886  0.00  0.00    +0.000 HD
ATOM     15  H   UNL     1      -3.983  12.212  20.252  0.00  0.00    +0.000 HD
ENDBRANCH  12  13
BRANCH   7  17
ATOM     16  C   UNL     1      -4.555  11.447  16.182  0.00  0.00    +0.000 C 
ATOM     17  O   UNL     1      -4.294  10.704  17.366  0.00  0.00    +0.000 OA
ENDBRANCH   7  17
ENDBRANCH   1  10
BRANCH   3  18
ATOM     18  C   UNL     1       2.621   7.294  18.188  0.00  0.00    +0.000 A 
ATOM     19  C   UNL     1       1.755   6.275  18.563  0.00  0.00    +0.000 A 
ATOM     20  C   UNL     1       2.047   4.948  18.246  0.00  0.00    +0.000 A 
ATOM     21  C   UNL     1       3.255   4.627  17.586  0.00  0.00    +0.000 A 
ATOM     22  C   UNL     1       4.142   5.661  17.214  0.00  0.00    +0.000 A 
ATOM     23  C   UNL     1       3.799   6.990  17.501  0.00  0.00    +0.000 A 
BRANCH  20  24
ATOM     24  O   UNL     1       1.200   3.912  18.575  0.00  0.00    +0.000 OA
ATOM     25  C   UNL     1       0.908   3.763  19.963  0.00  0.00    +0.000 C 
ENDBRANCH  20  24
BRANCH  21  26
ATOM     26  O   UNL     1       3.481   3.278  17.427  0.00  0.00    +0.000 OA
ATOM     27  C   UNL     1       4.104   2.582  18.499  0.00  0.00    +0.000 C 
ENDBRANCH  21  26
BRANCH  22  28
ATOM     28  O   UNL     1       5.326   5.319  16.613  0.00  0.00    +0.000 OA
ATOM     29  C   UNL     1       6.497   5.243  17.419  0.00  0.00    +0.000 C 
ENDBRANCH  22  28
ENDBRANCH   3  18
TORSDOF 7
ENDMDL
