MODEL 1
REMARK VINA RESULT:      -8.4      0.000      0.000
REMARK  Name = 
REMARK  4 active torsions:
REMARK  status: ('A' for Active; 'I' for Inactive)
REMARK    1  A    between atoms: C_1  and  C_2
REMARK    2  A    between atoms: C_6  and  C_7
REMARK    3  A    between atoms: C_7  and  N_8
REMARK    4  A    between atoms: C_9  and  C_10
REMARK                            x       y       z     vdW  Elec       q    Type
REMARK                         _______ _______ _______ _____ _____    ______ ____
ROOT
ATOM      1  N   UNL     1       4.244   5.918  18.295  0.00  0.00    +0.000 N 
ATOM      2  C   UNL     1       4.205   4.773  19.083  0.00  0.00    +0.000 A 
ATOM      3  N   UNL     1       5.438   4.468  19.467  0.00  0.00    +0.000 NA
ATOM      4  C   UNL     1       6.272   5.426  18.942  0.00  0.00    +0.000 A 
ATOM      5  C   UNL     1       7.666   5.568  19.041  0.00  0.00    +0.000 A 
ATOM      6  C   UNL     1       8.288   6.640  18.385  0.00  0.00    +0.000 A 
ATOM      7  C   UNL     1       7.540   7.562  17.654  0.00  0.00    +0.000 A 
ATOM      8  C   UNL     1       6.152   7.440  17.553  0.00  0.00    +0.000 A 
ATOM      9  C   UNL     1       5.551   6.352  18.204  0.00  0.00    +0.000 A 
ENDROOT
BRANCH   2  10
ATOM     10  C   UNL     1       3.011   3.955  19.408  0.00  0.00    +0.000 A 
ATOM     11  C   UNL     1       2.499   3.067  18.450  0.00  0.00    +0.000 A 
ATOM     12  C   UNL     1       1.329   2.332  18.695  0.00  0.00    +0.000 A 
ATOM     13  C   UNL     1       0.651   2.467  19.903  0.00  0.00    +0.000 A 
ATOM     14  C   UNL     1       1.170   3.296  20.884  0.00  0.00    +0.000 A 
ATOM     15  C   UNL     1       2.347   4.005  20.640  0.00  0.00    +0.000 A 
ENDBRANCH   2  10
BRANCH   1  16
ATOM     16  C   UNL     1       3.143   6.554  17.582  0.00  0.00    +0.000 C 
BRANCH  16  22
ATOM     17  C   UNL     1       0.767   8.375  21.660  0.00  0.00    +0.000 C 
ATOM     18  C   UNL     1       1.298   8.595  20.273  0.00  0.00    +0.000 A 
ATOM     19  C   UNL     1       0.919   9.706  19.516  0.00  0.00    +0.000 A 
ATOM     20  C   UNL     1       1.342   9.834  18.193  0.00  0.00    +0.000 A 
ATOM     21  C   UNL     1       2.112   8.837  17.604  0.00  0.00    +0.000 A 
ATOM     22  C   UNL     1       2.490   7.699  18.333  0.00  0.00    +0.000 A 
ATOM     23  C   UNL     1       2.115   7.618  19.688  0.00  0.00    +0.000 A 
ENDBRANCH  16  22
ENDBRANCH   1  16
TORSDOF 3
ENDMDL
MODEL 2
REMARK VINA RESULT:      -8.3      1.771      4.961
REMARK  Name = 
REMARK  4 active torsions:
REMARK  status: ('A' for Active; 'I' for Inactive)
REMARK    1  A    between atoms: C_1  and  C_2
REMARK    2  A    between atoms: C_6  and  C_7
REMARK    3  A    between atoms: C_7  and  N_8
REMARK    4  A    between atoms: C_9  and  C_10
REMARK                            x       y       z     vdW  Elec       q    Type
REMARK                         _______ _______ _______ _____ _____    ______ ____
ROOT
ATOM      1  N   UNL     1       3.320   5.488  17.468  0.00  0.00    +0.000 N 
ATOM      2  C   UNL     1       3.474   6.831  17.800  0.00  0.00    +0.000 A 
ATOM      3  N   UNL     1       4.670   7.243  17.396  0.00  0.00    +0.000 NA
ATOM      4  C   UNL     1       5.281   6.173  16.788  0.00  0.00    +0.000 A 
ATOM      5  C   UNL     1       6.551   6.071  16.197  0.00  0.00    +0.000 A 
ATOM      6  C   UNL     1       6.950   4.841  15.653  0.00  0.00    +0.000 A 
ATOM      7  C   UNL     1       6.101   3.736  15.687  0.00  0.00    +0.000 A 
ATOM      8  C   UNL     1       4.832   3.823  16.264  0.00  0.00    +0.000 A 
ATOM      9  C   UNL     1       4.457   5.058  16.814  0.00  0.00    +0.000 A 
ENDROOT
BRANCH   2  10
ATOM     10  C   UNL     1       2.514   7.679  18.545  0.00  0.00    +0.000 A 
ATOM     11  C   UNL     1       1.873   8.740  17.889  0.00  0.00    +0.000 A 
ATOM     12  C   UNL     1       1.014   9.608  18.580  0.00  0.00    +0.000 A 
ATOM     13  C   UNL     1       0.776   9.430  19.940  0.00  0.00    +0.000 A 
ATOM     14  C   UNL     1       1.355   8.356  20.595  0.00  0.00    +0.000 A 
ATOM     15  C   UNL     1       2.189   7.484  19.894  0.00  0.00    +0.000 A 
ENDBRANCH   2  10
BRANCH   1  16
ATOM     16  C   UNL     1       2.212   4.603  17.802  0.00  0.00    +0.000 C 
BRANCH  16  22
ATOM     17  C   UNL     1       4.651   1.616  21.076  0.00  0.00    +0.000 C 
ATOM     18  C   UNL     1       3.459   2.469  20.752  0.00  0.00    +0.000 A 
ATOM     19  C   UNL     1       2.293   2.412  21.519  0.00  0.00    +0.000 A 
ATOM     20  C   UNL     1       1.163   3.134  21.136  0.00  0.00    +0.000 A 
ATOM     21  C   UNL     1       1.175   3.887  19.966  0.00  0.00    +0.000 A 
ATOM     22  C   UNL     1       2.325   3.945  19.164  0.00  0.00    +0.000 A 
ATOM     23  C   UNL     1       3.479   3.268  19.601  0.00  0.00    +0.000 A 
ENDBRANCH  16  22
ENDBRANCH   1  16
TORSDOF 3
ENDMDL
MODEL 3
REMARK VINA RESULT:      -8.3      0.106      1.000
REMARK  Name = 
REMARK  4 active torsions:
REMARK  status: ('A' for Active; 'I' for Inactive)
REMARK    1  A    between atoms: C_1  and  C_2
REMARK    2  A    between atoms: C_6  and  C_7
REMARK    3  A    between atoms: C_7  and  N_8
REMARK    4  A    between atoms: C_9  and  C_10
REMARK                            x       y       z     vdW  Elec       q    Type
REMARK                         _______ _______ _______ _____ _____    ______ ____
ROOT
ATOM      1  N   UNL     1       4.241   5.996  18.271  0.00  0.00    +0.000 N 
ATOM      2  C   UNL     1       4.171   4.847  19.052  0.00  0.00    +0.000 A 
ATOM      3  N   UNL     1       5.394   4.521  19.454  0.00  0.00    +0.000 NA
ATOM      4  C   UNL     1       6.251   5.468  18.946  0.00  0.00    +0.000 A 
ATOM      5  C   UNL     1       7.645   5.586  19.067  0.00  0.00    +0.000 A 
ATOM      6  C   UNL     1       8.295   6.651  18.427  0.00  0.00    +0.000 A 
ATOM      7  C   UNL     1       7.573   7.589  17.689  0.00  0.00    +0.000 A 
ATOM      8  C   UNL     1       6.185   7.490  17.566  0.00  0.00    +0.000 A 
ATOM      9  C   UNL     1       5.556   6.409  18.202  0.00  0.00    +0.000 A 
ENDROOT
BRANCH   2  10
ATOM     10  C   UNL     1       2.959   4.048  19.355  0.00  0.00    +0.000 A 
ATOM     11  C   UNL     1       2.404   4.092  20.642  0.00  0.00    +0.000 A 
ATOM     12  C   UNL     1       1.302   3.294  20.984  0.00  0.00    +0.000 A 
ATOM     13  C   UNL     1       0.732   2.439  20.046  0.00  0.00    +0.000 A 
ATOM     14  C   UNL     1       1.229   2.421  18.753  0.00  0.00    +0.000 A 
ATOM     15  C   UNL     1       2.310   3.237  18.415  0.00  0.00    +0.000 A 
ENDBRANCH   2  10
BRANCH   1  16
ATOM     16  C   UNL     1       3.162   6.654  17.544  0.00  0.00    +0.000 C 
BRANCH  16  22
ATOM     17  C   UNL     1       0.837   8.385  21.691  0.00  0.00    +0.000 C 
ATOM     18  C   UNL     1       1.312   8.622  20.286  0.00  0.00    +0.000 A 
ATOM     19  C   UNL     1       0.858   9.710  19.538  0.00  0.00    +0.000 A 
ATOM     20  C   UNL     1       1.232   9.850  18.201  0.00  0.00    +0.000 A 
ATOM     21  C   UNL     1       2.028   8.887  17.591  0.00  0.00    +0.000 A 
ATOM     22  C   UNL     1       2.481   7.771  18.313  0.00  0.00    +0.000 A 
ATOM     23  C   UNL     1       2.155   7.681  19.679  0.00  0.00    +0.000 A 
ENDBRANCH  16  22
ENDBRANCH   1  16
TORSDOF 3
ENDMDL
MODEL 4
REMARK VINA RESULT:      -8.2      1.748      5.015
REMARK  Name = 
REMARK  4 active torsions:
REMARK  status: ('A' for Active; 'I' for Inactive)
REMARK    1  A    between atoms: C_1  and  C_2
REMARK    2  A    between atoms: C_6  and  C_7
REMARK    3  A    between atoms: C_7  and  N_8
REMARK    4  A    between atoms: C_9  and  C_10
REMARK                            x       y       z     vdW  Elec       q    Type
REMARK                         _______ _______ _______ _____ _____    ______ ____
ROOT
ATOM      1  N   UNL     1       3.266   5.606  17.469  0.00  0.00    +0.000 N 
ATOM      2  C   UNL     1       3.449   6.952  17.769  0.00  0.00    +0.000 A 
ATOM      3  N   UNL     1       4.654   7.328  17.357  0.00  0.00    +0.000 NA
ATOM      4  C   UNL     1       5.243   6.230  16.776  0.00  0.00    +0.000 A 
ATOM      5  C   UNL     1       6.510   6.085  16.191  0.00  0.00    +0.000 A 
ATOM      6  C   UNL     1       6.883   4.834  15.678  0.00  0.00    +0.000 A 
ATOM      7  C   UNL     1       6.009   3.749  15.736  0.00  0.00    +0.000 A 
ATOM      8  C   UNL     1       4.742   3.879  16.308  0.00  0.00    +0.000 A 
ATOM      9  C   UNL     1       4.394   5.135  16.827  0.00  0.00    +0.000 A 
ENDROOT
BRANCH   2  10
ATOM     10  C   UNL     1       2.507   7.840  18.491  0.00  0.00    +0.000 A 
ATOM     11  C   UNL     1       2.222   7.594  19.842  0.00  0.00    +0.000 A 
ATOM     12  C   UNL     1       1.281   8.368  20.538  0.00  0.00    +0.000 A 
ATOM     13  C   UNL     1       0.608   9.405  19.897  0.00  0.00    +0.000 A 
ATOM     14  C   UNL     1       0.914   9.700  18.579  0.00  0.00    +0.000 A 
ATOM     15  C   UNL     1       1.870   8.940  17.902  0.00  0.00    +0.000 A 
ENDBRANCH   2  10
BRANCH   1  16
ATOM     16  C   UNL     1       2.138   4.754  17.821  0.00  0.00    +0.000 C 
BRANCH  16  22
ATOM     17  C   UNL     1       4.632   1.676  20.967  0.00  0.00    +0.000 C 
ATOM     18  C   UNL     1       3.435   2.537  20.688  0.00  0.00    +0.000 A 
ATOM     19  C   UNL     1       2.282   2.458  21.472  0.00  0.00    +0.000 A 
ATOM     20  C   UNL     1       1.146   3.191  21.130  0.00  0.00    +0.000 A 
ATOM     21  C   UNL     1       1.137   3.977  19.982  0.00  0.00    +0.000 A 
ATOM     22  C   UNL     1       2.274   4.058  19.162  0.00  0.00    +0.000 A 
ATOM     23  C   UNL     1       3.435   3.369  19.559  0.00  0.00    +0.000 A 
ENDBRANCH  16  22
ENDBRANCH   1  16
TORSDOF 3
ENDMDL
MODEL 5
REMARK VINA RESULT:      -8.1      1.580      5.843
REMARK  Name = 
REMARK  4 active torsions:
REMARK  status: ('A' for Active; 'I' for Inactive)
REMARK    1  A    between atoms: C_1  and  C_2
REMARK    2  A    between atoms: C_6  and  C_7
REMARK    3  A    between atoms: C_7  and  N_8
REMARK    4  A    between atoms: C_9  and  C_10
REMARK                            x       y       z     vdW  Elec       q    Type
REMARK                         _______ _______ _______ _____ _____    ______ ____
ROOT
ATOM      1  N   UNL     1       3.065   6.844  19.197  0.00  0.00    +0.000 N 
ATOM      2  C   UNL     1       3.596   6.936  17.915  0.00  0.00    +0.000 A 
ATOM      3  N   UNL     1       3.011   7.941  17.274  0.00  0.00    +0.000 NA
ATOM      4  C   UNL     1       2.115   8.509  18.148  0.00  0.00    +0.000 A 
ATOM      5  C   UNL     1       1.240   9.593  17.971  0.00  0.00    +0.000 A 
ATOM      6  C   UNL     1       0.401   9.969  19.031  0.00  0.00    +0.000 A 
ATOM      7  C   UNL     1       0.438   9.288  20.247  0.00  0.00    +0.000 A 
ATOM      8  C   UNL     1       1.309   8.213  20.442  0.00  0.00    +0.000 A 
ATOM      9  C   UNL     1       2.129   7.845  19.365  0.00  0.00    +0.000 A 
ENDROOT
BRANCH   2  10
ATOM     10  C   UNL     1       4.601   6.037  17.300  0.00  0.00    +0.000 A 
ATOM     11  C   UNL     1       5.967   6.318  17.452  0.00  0.00    +0.000 A 
ATOM     12  C   UNL     1       6.944   5.530  16.825  0.00  0.00    +0.000 A 
ATOM     13  C   UNL     1       6.575   4.445  16.036  0.00  0.00    +0.000 A 
ATOM     14  C   UNL     1       5.235   4.116  15.917  0.00  0.00    +0.000 A 
ATOM     15  C   UNL     1       4.272   4.891  16.565  0.00  0.00    +0.000 A 
ENDBRANCH   2  10
BRANCH   1  16
ATOM     16  C   UNL     1       3.340   5.835  20.211  0.00  0.00    +0.000 C 
BRANCH  16  22
ATOM     17  C   UNL     1       3.732   1.164  18.306  0.00  0.00    +0.000 C 
ATOM     18  C   UNL     1       2.891   2.223  18.958  0.00  0.00    +0.000 A 
ATOM     19  C   UNL     1       1.498   2.125  18.997  0.00  0.00    +0.000 A 
ATOM     20  C   UNL     1       0.733   3.171  19.514  0.00  0.00    +0.000 A 
ATOM     21  C   UNL     1       1.348   4.336  19.960  0.00  0.00    +0.000 A 
ATOM     22  C   UNL     1       2.745   4.471  19.913  0.00  0.00    +0.000 A 
ATOM     23  C   UNL     1       3.507   3.380  19.455  0.00  0.00    +0.000 A 
ENDBRANCH  16  22
ENDBRANCH   1  16
TORSDOF 3
ENDMDL
MODEL 6
REMARK VINA RESULT:      -8.1      1.512      5.763
REMARK  Name = 
REMARK  4 active torsions:
REMARK  status: ('A' for Active; 'I' for Inactive)
REMARK    1  A    between atoms: C_1  and  C_2
REMARK    2  A    between atoms: C_6  and  C_7
REMARK    3  A    between atoms: C_7  and  N_8
REMARK    4  A    between atoms: C_9  and  C_10
REMARK                            x       y       z     vdW  Elec       q    Type
REMARK                         _______ _______ _______ _____ _____    ______ ____
ROOT
ATOM      1  N   UNL     1       2.738   6.702  19.686  0.00  0.00    +0.000 N 
ATOM      2  C   UNL     1       3.353   6.844  18.446  0.00  0.00    +0.000 A 
ATOM      3  N   UNL     1       2.876   7.929  17.847  0.00  0.00    +0.000 NA
ATOM      4  C   UNL     1       1.966   8.497  18.707  0.00  0.00    +0.000 A 
ATOM      5  C   UNL     1       1.177   9.649  18.559  0.00  0.00    +0.000 A 
ATOM      6  C   UNL     1       0.301  10.010  19.593  0.00  0.00    +0.000 A 
ATOM      7  C   UNL     1       0.217   9.246  20.757  0.00  0.00    +0.000 A 
ATOM      8  C   UNL     1       1.002   8.102  20.923  0.00  0.00    +0.000 A 
ATOM      9  C   UNL     1       1.861   7.752  19.871  0.00  0.00    +0.000 A 
ENDROOT
BRANCH   2  10
ATOM     10  C   UNL     1       4.333   5.920  17.827  0.00  0.00    +0.000 A 
ATOM     11  C   UNL     1       3.913   5.039  16.819  0.00  0.00    +0.000 A 
ATOM     12  C   UNL     1       4.795   4.101  16.261  0.00  0.00    +0.000 A 
ATOM     13  C   UNL     1       6.115   4.027  16.699  0.00  0.00    +0.000 A 
ATOM     14  C   UNL     1       6.565   4.924  17.654  0.00  0.00    +0.000 A 
ATOM     15  C   UNL     1       5.686   5.870  18.184  0.00  0.00    +0.000 A 
ENDBRANCH   2  10
BRANCH   1  16
ATOM     16  C   UNL     1       2.882   5.609  20.638  0.00  0.00    +0.000 C 
BRANCH  16  22
ATOM     17  C   UNL     1       3.866   1.166  18.426  0.00  0.00    +0.000 C 
ATOM     18  C   UNL     1       2.864   2.123  19.005  0.00  0.00    +0.000 A 
ATOM     19  C   UNL     1       1.495   1.969  18.778  0.00  0.00    +0.000 A 
ATOM     20  C   UNL     1       0.593   2.929  19.238  0.00  0.00    +0.000 A 
ATOM     21  C   UNL     1       1.053   4.067  19.892  0.00  0.00    +0.000 A 
ATOM     22  C   UNL     1       2.426   4.259  20.115  0.00  0.00    +0.000 A 
ATOM     23  C   UNL     1       3.317   3.248  19.708  0.00  0.00    +0.000 A 
ENDBRANCH  16  22
ENDBRANCH   1  16
TORSDOF 3
ENDMDL
MODEL 7
REMARK VINA RESULT:      -8.0      0.989      4.955
REMARK  Name = 
REMARK  4 active torsions:
REMARK  status: ('A' for Active; 'I' for Inactive)
REMARK    1  A    between atoms: C_1  and  C_2
REMARK    2  A    between atoms: C_6  and  C_7
REMARK    3  A    between atoms: C_7  and  N_8
REMARK    4  A    between atoms: C_9  and  C_10
REMARK                            x       y       z     vdW  Elec       q    Type
REMARK                         _______ _______ _______ _____ _____    ______ ____
ROOT
ATOM      1  N   UNL     1       3.295   5.177  19.238  0.00  0.00    +0.000 N 
ATOM      2  C   UNL     1       4.371   4.887  18.406  0.00  0.00    +0.000 A 
ATOM      3  N   UNL     1       4.144   3.733  17.788  0.00  0.00    +0.000 NA
ATOM      4  C   UNL     1       2.914   3.287  18.208  0.00  0.00    +0.000 A 
ATOM      5  C   UNL     1       2.207   2.122  17.868  0.00  0.00    +0.000 A 
ATOM      6  C   UNL     1       0.957   1.887  18.460  0.00  0.00    +0.000 A 
ATOM      7  C   UNL     1       0.414   2.798  19.365  0.00  0.00    +0.000 A 
ATOM      8  C   UNL     1       1.100   3.966  19.708  0.00  0.00    +0.000 A 
ATOM      9  C   UNL     1       2.354   4.175  19.115  0.00  0.00    +0.000 A 
ENDROOT
BRANCH   2  10
ATOM     10  C   UNL     1       5.619   5.674  18.256  0.00  0.00    +0.000 A 
ATOM     11  C   UNL     1       6.710   5.407  19.095  0.00  0.00    +0.000 A 
ATOM     12  C   UNL     1       7.880   6.179  19.032  0.00  0.00    +0.000 A 
ATOM     13  C   UNL     1       7.982   7.231  18.125  0.00  0.00    +0.000 A 
ATOM     14  C   UNL     1       6.938   7.476  17.249  0.00  0.00    +0.000 A 
ATOM     15  C   UNL     1       5.788   6.687  17.303  0.00  0.00    +0.000 A 
ENDBRANCH   2  10
BRANCH   1  16
ATOM     16  C   UNL     1       3.157   6.286  20.172  0.00  0.00    +0.000 C 
BRANCH  16  22
ATOM     17  C   UNL     1      -0.277   9.980  20.573  0.00  0.00    +0.000 C 
ATOM     18  C   UNL     1       0.757   9.265  19.751  0.00  0.00    +0.000 A 
ATOM     19  C   UNL     1       0.849   9.456  18.370  0.00  0.00    +0.000 A 
ATOM     20  C   UNL     1       1.746   8.703  17.614  0.00  0.00    +0.000 A 
ATOM     21  C   UNL     1       2.530   7.727  18.222  0.00  0.00    +0.000 A 
ATOM     22  C   UNL     1       2.442   7.498  19.604  0.00  0.00    +0.000 A 
ATOM     23  C   UNL     1       1.584   8.315  20.364  0.00  0.00    +0.000 A 
ENDBRANCH  16  22
ENDBRANCH   1  16
TORSDOF 3
ENDMDL
MODEL 8
REMARK VINA RESULT:      -7.8      0.981      4.912
REMARK  Name = 
REMARK  4 active torsions:
REMARK  status: ('A' for Active; 'I' for Inactive)
REMARK    1  A    between atoms: C_1  and  C_2
REMARK    2  A    between atoms: C_6  and  C_7
REMARK    3  A    between atoms: C_7  and  N_8
REMARK    4  A    between atoms: C_9  and  C_10
REMARK                            x       y       z     vdW  Elec       q    Type
REMARK                         _______ _______ _______ _____ _____    ______ ____
ROOT
ATOM      1  N   UNL     1       3.241   5.162  19.333  0.00  0.00    +0.000 N 
ATOM      2  C   UNL     1       4.336   4.879  18.523  0.00  0.00    +0.000 A 
ATOM      3  N   UNL     1       4.130   3.723  17.904  0.00  0.00    +0.000 NA
ATOM      4  C   UNL     1       2.895   3.268  18.299  0.00  0.00    +0.000 A 
ATOM      5  C   UNL     1       2.206   2.097  17.947  0.00  0.00    +0.000 A 
ATOM      6  C   UNL     1       0.946   1.853  18.514  0.00  0.00    +0.000 A 
ATOM      7  C   UNL     1       0.377   2.761  19.406  0.00  0.00    +0.000 A 
ATOM      8  C   UNL     1       1.046   3.935  19.760  0.00  0.00    +0.000 A 
ATOM      9  C   UNL     1       2.310   4.152  19.193  0.00  0.00    +0.000 A 
ENDROOT
BRANCH   2  10
ATOM     10  C   UNL     1       5.580   5.675  18.397  0.00  0.00    +0.000 A 
ATOM     11  C   UNL     1       5.674   6.660  17.403  0.00  0.00    +0.000 A 
ATOM     12  C   UNL     1       6.861   7.383  17.207  0.00  0.00    +0.000 A 
ATOM     13  C   UNL     1       7.975   7.137  18.004  0.00  0.00    +0.000 A 
ATOM     14  C   UNL     1       7.887   6.209  19.028  0.00  0.00    +0.000 A 
ATOM     15  C   UNL     1       6.694   5.512  19.230  0.00  0.00    +0.000 A 
ENDBRANCH   2  10
BRANCH   1  16
ATOM     16  C   UNL     1       3.075   6.272  20.262  0.00  0.00    +0.000 C 
BRANCH  16  22
ATOM     17  C   UNL     1      -0.289  10.039  20.552  0.00  0.00    +0.000 C 
ATOM     18  C   UNL     1       0.745   9.294  19.758  0.00  0.00    +0.000 A 
ATOM     19  C   UNL     1       0.868   9.467  18.378  0.00  0.00    +0.000 A 
ATOM     20  C   UNL     1       1.764   8.686  17.648  0.00  0.00    +0.000 A 
ATOM     21  C   UNL     1       2.515   7.702  18.282  0.00  0.00    +0.000 A 
ATOM     22  C   UNL     1       2.397   7.491  19.665  0.00  0.00    +0.000 A 
ATOM     23  C   UNL     1       1.541   8.334  20.399  0.00  0.00    +0.000 A 
ENDBRANCH  16  22
ENDBRANCH   1  16
TORSDOF 3
ENDMDL
MODEL 9
REMARK VINA RESULT:      -7.8      0.435      1.374
REMARK  Name = 
REMARK  4 active torsions:
REMARK  status: ('A' for Active; 'I' for Inactive)
REMARK    1  A    between atoms: C_1  and  C_2
REMARK    2  A    between atoms: C_6  and  C_7
REMARK    3  A    between atoms: C_7  and  N_8
REMARK    4  A    between atoms: C_9  and  C_10
REMARK                            x       y       z     vdW  Elec       q    Type
REMARK                         _______ _______ _______ _____ _____    ______ ____
ROOT
ATOM      1  N   UNL     1       4.244   5.864  18.299  0.00  0.00    +0.000 N 
ATOM      2  C   UNL     1       4.232   4.702  19.063  0.00  0.00    +0.000 A 
ATOM      3  N   UNL     1       5.473   4.419  19.441  0.00  0.00    +0.000 NA
ATOM      4  C   UNL     1       6.284   5.407  18.935  0.00  0.00    +0.000 A 
ATOM      5  C   UNL     1       7.673   5.579  19.037  0.00  0.00    +0.000 A 
ATOM      6  C   UNL     1       8.270   6.679  18.404  0.00  0.00    +0.000 A 
ATOM      7  C   UNL     1       7.500   7.598  17.692  0.00  0.00    +0.000 A 
ATOM      8  C   UNL     1       6.115   7.446  17.589  0.00  0.00    +0.000 A 
ATOM      9  C   UNL     1       5.540   6.331  18.217  0.00  0.00    +0.000 A 
ENDROOT
BRANCH   2  10
ATOM     10  C   UNL     1       3.058   3.850  19.370  0.00  0.00    +0.000 A 
ATOM     11  C   UNL     1       2.407   3.168  18.332  0.00  0.00    +0.000 A 
ATOM     12  C   UNL     1       1.250   2.412  18.575  0.00  0.00    +0.000 A 
ATOM     13  C   UNL     1       0.724   2.320  19.860  0.00  0.00    +0.000 A 
ATOM     14  C   UNL     1       1.382   2.940  20.909  0.00  0.00    +0.000 A 
ATOM     15  C   UNL     1       2.546   3.670  20.662  0.00  0.00    +0.000 A 
ENDBRANCH   2  10
BRANCH   1  16
ATOM     16  C   UNL     1       3.128   6.489  17.600  0.00  0.00    +0.000 C 
BRANCH  16  22
ATOM     17  C   UNL     1       1.041  11.026  18.409  0.00  0.00    +0.000 C 
ATOM     18  C   UNL     1       1.325   9.634  18.894  0.00  0.00    +0.000 A 
ATOM     19  C   UNL     1       1.157   9.281  20.234  0.00  0.00    +0.000 A 
ATOM     20  C   UNL     1       1.527   8.013  20.680  0.00  0.00    +0.000 A 
ATOM     21  C   UNL     1       2.104   7.101  19.802  0.00  0.00    +0.000 A 
ATOM     22  C   UNL     1       2.306   7.436  18.454  0.00  0.00    +0.000 A 
ATOM     23  C   UNL     1       1.862   8.694  18.004  0.00  0.00    +0.000 A 
ENDBRANCH  16  22
ENDBRANCH   1  16
TORSDOF 3
ENDMDL
