MODEL 1
REMARK VINA RESULT:      -6.6      0.000      0.000
REMARK  Name = 
REMARK  5 active torsions:
REMARK  status: ('A' for Active; 'I' for Inactive)
REMARK    1  A    between atoms: C_2  and  C_3
REMARK    2  A    between atoms: C_3  and  N_4
REMARK    3  A    between atoms: N_11  and  C_12
REMARK    4  A    between atoms: C_12  and  C_13
REMARK    5  A    between atoms: C_13  and  C_14
REMARK                            x       y       z     vdW  Elec       q    Type
REMARK                         _______ _______ _______ _____ _____    ______ ____
ROOT
ATOM      1  O   UNL     1       5.476   5.283  19.724  0.00  0.00    +0.000 OA
ATOM      2  C   UNL     1       5.525   4.158  19.232  0.00  0.00    +0.000 C 
ATOM      3  N   UNL     1       6.217   3.854  18.076  0.00  0.00    +0.000 N 
ATOM      4  H   UNL     1       5.952   2.992  17.602  0.00  0.00    +0.000 HD
ENDROOT
BRANCH   2   5
ATOM      5  C   UNL     1       4.731   2.977  19.808  0.00  0.00    +0.000 C 
BRANCH   5   6
ATOM      6  N   UNL     1       3.293   3.181  19.659  0.00  0.00    +0.000 N 
ATOM      7  C   UNL     1       2.744   3.277  18.306  0.00  0.00    +0.000 C 
ATOM      8  C   UNL     1       1.285   3.728  18.302  0.00  0.00    +0.000 C 
ATOM      9  O   UNL     1       0.514   2.845  19.116  0.00  0.00    +0.000 OA
ATOM     10  C   UNL     1       0.956   2.905  20.467  0.00  0.00    +0.000 C 
ATOM     11  C   UNL     1       2.473   2.861  20.734  0.00  0.00    +0.000 C 
ATOM     12  O   UNL     1       2.928   2.592  21.849  0.00  0.00    +0.000 OA
ENDBRANCH   5   6
ENDBRANCH   2   5
BRANCH   3  13
ATOM     13  C   UNL     1       6.928   4.846  17.293  0.00  0.00    +0.000 C 
BRANCH  13  14
ATOM     14  C   UNL     1       6.154   5.112  15.984  0.00  0.00    +0.000 C 
ATOM     15  C   UNL     1       7.085   4.824  14.742  0.00  0.00    +0.000 C 
ATOM     16  C   UNL     1       5.882   4.142  14.067  0.00  0.00    +0.000 C 
ATOM     17  C   UNL     1       5.331   3.866  15.479  0.00  0.00    +0.000 C 
BRANCH  14  18
ATOM     18  C   UNL     1       5.374   6.441  16.005  0.00  0.00    +0.000 C 
ATOM     19  C   UNL     1       4.207   6.721  16.915  0.00  0.00    +0.000 C 
ATOM     20  C   UNL     1       5.482   7.496  17.078  0.00  0.00    +0.000 C 
ENDBRANCH  14  18
ENDBRANCH  13  14
ENDBRANCH   3  13
TORSDOF 5
ENDMDL
MODEL 2
REMARK VINA RESULT:      -6.6      1.990      2.985
REMARK  Name = 
REMARK  5 active torsions:
REMARK  status: ('A' for Active; 'I' for Inactive)
REMARK    1  A    between atoms: C_2  and  C_3
REMARK    2  A    between atoms: C_3  and  N_4
REMARK    3  A    between atoms: N_11  and  C_12
REMARK    4  A    between atoms: C_12  and  C_13
REMARK    5  A    between atoms: C_13  and  C_14
REMARK                            x       y       z     vdW  Elec       q    Type
REMARK                         _______ _______ _______ _____ _____    ______ ____
ROOT
ATOM      1  O   UNL     1       2.583   7.712  19.157  0.00  0.00    +0.000 OA
ATOM      2  C   UNL     1       2.875   6.529  19.003  0.00  0.00    +0.000 C 
ATOM      3  N   UNL     1       3.912   6.092  18.201  0.00  0.00    +0.000 N 
ATOM      4  H   UNL     1       3.879   5.116  17.908  0.00  0.00    +0.000 HD
ENDROOT
BRANCH   2   5
ATOM      5  C   UNL     1       2.046   5.393  19.617  0.00  0.00    +0.000 C 
BRANCH   5   6
ATOM      6  N   UNL     1       2.554   4.086  19.213  0.00  0.00    +0.000 N 
ATOM      7  C   UNL     1       3.282   3.289  20.201  0.00  0.00    +0.000 C 
ATOM      8  C   UNL     1       3.958   2.068  19.580  0.00  0.00    +0.000 C 
ATOM      9  O   UNL     1       2.983   1.285  18.894  0.00  0.00    +0.000 OA
ATOM     10  C   UNL     1       2.416   2.027  17.820  0.00  0.00    +0.000 C 
ATOM     11  C   UNL     1       1.990   3.482  18.095  0.00  0.00    +0.000 C 
ATOM     12  O   UNL     1       1.219   4.086  17.343  0.00  0.00    +0.000 OA
ENDBRANCH   5   6
ENDBRANCH   2   5
BRANCH   3  13
ATOM     13  C   UNL     1       4.742   6.987  17.420  0.00  0.00    +0.000 C 
BRANCH  13  14
ATOM     14  C   UNL     1       5.830   6.168  16.692  0.00  0.00    +0.000 C 
ATOM     15  C   UNL     1       5.541   4.625  16.857  0.00  0.00    +0.000 C 
ATOM     16  C   UNL     1       5.921   4.451  15.376  0.00  0.00    +0.000 C 
ATOM     17  C   UNL     1       5.515   5.923  15.167  0.00  0.00    +0.000 C 
BRANCH  14  18
ATOM     18  C   UNL     1       7.258   6.667  16.988  0.00  0.00    +0.000 C 
ATOM     19  C   UNL     1       7.578   8.018  17.573  0.00  0.00    +0.000 C 
ATOM     20  C   UNL     1       7.875   6.775  18.361  0.00  0.00    +0.000 C 
ENDBRANCH  14  18
ENDBRANCH  13  14
ENDBRANCH   3  13
TORSDOF 5
ENDMDL
MODEL 3
REMARK VINA RESULT:      -6.6      1.948      2.988
REMARK  Name = 
REMARK  5 active torsions:
REMARK  status: ('A' for Active; 'I' for Inactive)
REMARK    1  A    between atoms: C_2  and  C_3
REMARK    2  A    between atoms: C_3  and  N_4
REMARK    3  A    between atoms: N_11  and  C_12
REMARK    4  A    between atoms: C_12  and  C_13
REMARK    5  A    between atoms: C_13  and  C_14
REMARK                            x       y       z     vdW  Elec       q    Type
REMARK                         _______ _______ _______ _____ _____    ______ ____
ROOT
ATOM      1  O   UNL     1       2.481   7.720  18.427  0.00  0.00    +0.000 OA
ATOM      2  C   UNL     1       2.572   6.543  18.090  0.00  0.00    +0.000 C 
ATOM      3  N   UNL     1       3.684   6.003  17.473  0.00  0.00    +0.000 N 
ATOM      4  H   UNL     1       3.546   5.125  16.975  0.00  0.00    +0.000 HD
ENDROOT
BRANCH   2   5
ATOM      5  C   UNL     1       1.403   5.557  18.232  0.00  0.00    +0.000 C 
BRANCH   5   6
ATOM      6  N   UNL     1       1.732   4.473  19.153  0.00  0.00    +0.000 N 
ATOM      7  C   UNL     1       1.426   4.653  20.572  0.00  0.00    +0.000 C 
ATOM      8  C   UNL     1       2.038   3.557  21.442  0.00  0.00    +0.000 C 
ATOM      9  O   UNL     1       1.602   2.282  20.973  0.00  0.00    +0.000 OA
ATOM     10  C   UNL     1       2.067   2.057  19.647  0.00  0.00    +0.000 C 
ATOM     11  C   UNL     1       1.917   3.201  18.626  0.00  0.00    +0.000 C 
ATOM     12  O   UNL     1       1.992   3.000  17.411  0.00  0.00    +0.000 OA
ENDBRANCH   5   6
ENDBRANCH   2   5
BRANCH   3  13
ATOM     13  C   UNL     1       4.853   6.785  17.121  0.00  0.00    +0.000 C 
BRANCH  13  14
ATOM     14  C   UNL     1       5.974   5.837  16.644  0.00  0.00    +0.000 C 
ATOM     15  C   UNL     1       5.561   4.337  16.911  0.00  0.00    +0.000 C 
ATOM     16  C   UNL     1       6.134   3.990  15.526  0.00  0.00    +0.000 C 
ATOM     17  C   UNL     1       5.862   5.451  15.120  0.00  0.00    +0.000 C 
BRANCH  14  18
ATOM     18  C   UNL     1       7.377   6.287  17.098  0.00  0.00    +0.000 C 
ATOM     19  C   UNL     1       7.688   7.653  17.652  0.00  0.00    +0.000 C 
ATOM     20  C   UNL     1       7.818   6.444  18.533  0.00  0.00    +0.000 C 
ENDBRANCH  14  18
ENDBRANCH  13  14
ENDBRANCH   3  13
TORSDOF 5
ENDMDL
MODEL 4
REMARK VINA RESULT:      -6.5      2.328      5.687
REMARK  Name = 
REMARK  5 active torsions:
REMARK  status: ('A' for Active; 'I' for Inactive)
REMARK    1  A    between atoms: C_2  and  C_3
REMARK    2  A    between atoms: C_3  and  N_4
REMARK    3  A    between atoms: N_11  and  C_12
REMARK    4  A    between atoms: C_12  and  C_13
REMARK    5  A    between atoms: C_13  and  C_14
REMARK                            x       y       z     vdW  Elec       q    Type
REMARK                         _______ _______ _______ _____ _____    ______ ____
ROOT
ATOM      1  O   UNL     1       2.549   7.109  18.922  0.00  0.00    +0.000 OA
ATOM      2  C   UNL     1       3.146   6.518  18.026  0.00  0.00    +0.000 C 
ATOM      3  N   UNL     1       2.906   5.202  17.679  0.00  0.00    +0.000 N 
ATOM      4  H   UNL     1       3.639   4.730  17.151  0.00  0.00    +0.000 HD
ENDROOT
BRANCH   2   5
ATOM      5  C   UNL     1       4.307   7.160  17.253  0.00  0.00    +0.000 C 
BRANCH   5   6
ATOM      6  N   UNL     1       5.537   6.389  17.404  0.00  0.00    +0.000 N 
ATOM      7  C   UNL     1       5.946   5.995  18.752  0.00  0.00    +0.000 C 
ATOM      8  C   UNL     1       7.358   5.411  18.784  0.00  0.00    +0.000 C 
ATOM      9  O   UNL     1       7.438   4.316  17.873  0.00  0.00    +0.000 OA
ATOM     10  C   UNL     1       7.211   4.761  16.541  0.00  0.00    +0.000 C 
ATOM     11  C   UNL     1       6.028   5.716  16.291  0.00  0.00    +0.000 C 
ATOM     12  O   UNL     1       5.568   5.898  15.160  0.00  0.00    +0.000 OA
ENDBRANCH   5   6
ENDBRANCH   2   5
BRANCH   3  13
ATOM     13  C   UNL     1       1.945   4.363  18.368  0.00  0.00    +0.000 C 
BRANCH  13  14
ATOM     14  C   UNL     1       2.669   3.127  18.944  0.00  0.00    +0.000 C 
ATOM     15  C   UNL     1       2.273   1.840  18.120  0.00  0.00    +0.000 C 
ATOM     16  C   UNL     1       3.750   1.413  18.182  0.00  0.00    +0.000 C 
ATOM     17  C   UNL     1       4.107   2.904  18.337  0.00  0.00    +0.000 C 
BRANCH  14  18
ATOM     18  C   UNL     1       2.594   3.047  20.482  0.00  0.00    +0.000 C 
ATOM     19  C   UNL     1       2.048   4.143  21.359  0.00  0.00    +0.000 C 
ATOM     20  C   UNL     1       1.333   2.826  21.280  0.00  0.00    +0.000 C 
ENDBRANCH  14  18
ENDBRANCH  13  14
ENDBRANCH   3  13
TORSDOF 5
ENDMDL
MODEL 5
REMARK VINA RESULT:      -6.5      1.901      5.503
REMARK  Name = 
REMARK  5 active torsions:
REMARK  status: ('A' for Active; 'I' for Inactive)
REMARK    1  A    between atoms: C_2  and  C_3
REMARK    2  A    between atoms: C_3  and  N_4
REMARK    3  A    between atoms: N_11  and  C_12
REMARK    4  A    between atoms: C_12  and  C_13
REMARK    5  A    between atoms: C_13  and  C_14
REMARK                            x       y       z     vdW  Elec       q    Type
REMARK                         _______ _______ _______ _____ _____    ______ ____
ROOT
ATOM      1  O   UNL     1       3.173   6.157  19.762  0.00  0.00    +0.000 OA
ATOM      2  C   UNL     1       3.391   5.979  18.566  0.00  0.00    +0.000 C 
ATOM      3  N   UNL     1       2.694   5.080  17.783  0.00  0.00    +0.000 N 
ATOM      4  H   UNL     1       3.139   4.796  16.911  0.00  0.00    +0.000 HD
ENDROOT
BRANCH   2   5
ATOM      5  C   UNL     1       4.544   6.678  17.830  0.00  0.00    +0.000 C 
BRANCH   5   6
ATOM      6  N   UNL     1       5.564   5.722  17.412  0.00  0.00    +0.000 N 
ATOM      7  C   UNL     1       5.757   5.497  15.979  0.00  0.00    +0.000 C 
ATOM      8  C   UNL     1       6.674   4.309  15.696  0.00  0.00    +0.000 C 
ATOM      9  O   UNL     1       7.919   4.501  16.366  0.00  0.00    +0.000 OA
ATOM     10  C   UNL     1       7.722   4.537  17.775  0.00  0.00    +0.000 C 
ATOM     11  C   UNL     1       6.563   5.393  18.320  0.00  0.00    +0.000 C 
ATOM     12  O   UNL     1       6.510   5.735  19.505  0.00  0.00    +0.000 OA
ENDBRANCH   5   6
ENDBRANCH   2   5
BRANCH   3  13
ATOM     13  C   UNL     1       1.652   4.216  18.303  0.00  0.00    +0.000 C 
BRANCH  13  14
ATOM     14  C   UNL     1       2.291   2.925  18.857  0.00  0.00    +0.000 C 
ATOM     15  C   UNL     1       2.322   1.816  17.733  0.00  0.00    +0.000 C 
ATOM     16  C   UNL     1       3.742   1.457  18.204  0.00  0.00    +0.000 C 
ATOM     17  C   UNL     1       3.862   2.899  18.732  0.00  0.00    +0.000 C 
BRANCH  14  18
ATOM     18  C   UNL     1       1.743   2.527  20.242  0.00  0.00    +0.000 C 
ATOM     19  C   UNL     1       2.523   2.648  21.525  0.00  0.00    +0.000 C 
ATOM     20  C   UNL     1       1.302   3.495  21.313  0.00  0.00    +0.000 C 
ENDBRANCH  14  18
ENDBRANCH  13  14
ENDBRANCH   3  13
TORSDOF 5
ENDMDL
MODEL 6
REMARK VINA RESULT:      -6.5      1.817      3.281
REMARK  Name = 
REMARK  5 active torsions:
REMARK  status: ('A' for Active; 'I' for Inactive)
REMARK    1  A    between atoms: C_2  and  C_3
REMARK    2  A    between atoms: C_3  and  N_4
REMARK    3  A    between atoms: N_11  and  C_12
REMARK    4  A    between atoms: C_12  and  C_13
REMARK    5  A    between atoms: C_13  and  C_14
REMARK                            x       y       z     vdW  Elec       q    Type
REMARK                         _______ _______ _______ _____ _____    ______ ____
ROOT
ATOM      1  O   UNL     1       2.531   6.967  17.946  0.00  0.00    +0.000 OA
ATOM      2  C   UNL     1       2.875   5.794  17.821  0.00  0.00    +0.000 C 
ATOM      3  N   UNL     1       4.075   5.400  17.262  0.00  0.00    +0.000 N 
ATOM      4  H   UNL     1       4.129   4.436  16.935  0.00  0.00    +0.000 HD
ENDROOT
BRANCH   2   5
ATOM      5  C   UNL     1       1.950   4.625  18.190  0.00  0.00    +0.000 C 
BRANCH   5   6
ATOM      6  N   UNL     1       2.345   4.015  19.455  0.00  0.00    +0.000 N 
ATOM      7  C   UNL     1       1.521   4.272  20.636  0.00  0.00    +0.000 C 
ATOM      8  C   UNL     1       2.178   3.777  21.923  0.00  0.00    +0.000 C 
ATOM      9  O   UNL     1       2.487   2.390  21.795  0.00  0.00    +0.000 OA
ATOM     10  C   UNL     1       3.431   2.188  20.750  0.00  0.00    +0.000 C 
ATOM     11  C   UNL     1       3.198   2.918  19.414  0.00  0.00    +0.000 C 
ATOM     12  O   UNL     1       3.765   2.568  18.375  0.00  0.00    +0.000 OA
ENDBRANCH   5   6
ENDBRANCH   2   5
BRANCH   3  13
ATOM     13  C   UNL     1       5.043   6.334  16.722  0.00  0.00    +0.000 C 
BRANCH  13  14
ATOM     14  C   UNL     1       6.464   5.887  17.130  0.00  0.00    +0.000 C 
ATOM     15  C   UNL     1       7.346   7.150  17.474  0.00  0.00    +0.000 C 
ATOM     16  C   UNL     1       7.905   6.365  18.674  0.00  0.00    +0.000 C 
ATOM     17  C   UNL     1       6.598   5.548  18.663  0.00  0.00    +0.000 C 
BRANCH  14  18
ATOM     18  C   UNL     1       7.060   4.832  16.177  0.00  0.00    +0.000 C 
ATOM     19  C   UNL     1       6.238   3.855  15.378  0.00  0.00    +0.000 C 
ATOM     20  C   UNL     1       7.037   4.910  14.670  0.00  0.00    +0.000 C 
ENDBRANCH  14  18
ENDBRANCH  13  14
ENDBRANCH   3  13
TORSDOF 5
ENDMDL
MODEL 7
REMARK VINA RESULT:      -6.5      2.233      5.517
REMARK  Name = 
REMARK  5 active torsions:
REMARK  status: ('A' for Active; 'I' for Inactive)
REMARK    1  A    between atoms: C_2  and  C_3
REMARK    2  A    between atoms: C_3  and  N_4
REMARK    3  A    between atoms: N_11  and  C_12
REMARK    4  A    between atoms: C_12  and  C_13
REMARK    5  A    between atoms: C_13  and  C_14
REMARK                            x       y       z     vdW  Elec       q    Type
REMARK                         _______ _______ _______ _____ _____    ______ ____
ROOT
ATOM      1  O   UNL     1       6.965   5.050  20.074  0.00  0.00    +0.000 OA
ATOM      2  C   UNL     1       6.315   5.339  19.072  0.00  0.00    +0.000 C 
ATOM      3  N   UNL     1       5.115   4.745  18.736  0.00  0.00    +0.000 N 
ATOM      4  H   UNL     1       4.821   4.832  17.764  0.00  0.00    +0.000 HD
ENDROOT
BRANCH   2   5
ATOM      5  C   UNL     1       6.828   6.338  18.024  0.00  0.00    +0.000 C 
BRANCH   5   6
ATOM      6  N   UNL     1       6.572   5.861  16.668  0.00  0.00    +0.000 N 
ATOM      7  C   UNL     1       7.380   4.753  16.159  0.00  0.00    +0.000 C 
ATOM      8  C   UNL     1       7.174   4.523  14.663  0.00  0.00    +0.000 C 
ATOM      9  O   UNL     1       5.787   4.319  14.401  0.00  0.00    +0.000 OA
ATOM     10  C   UNL     1       5.043   5.484  14.741  0.00  0.00    +0.000 C 
ATOM     11  C   UNL     1       5.347   6.168  16.087  0.00  0.00    +0.000 C 
ATOM     12  O   UNL     1       4.561   6.969  16.601  0.00  0.00    +0.000 OA
ENDBRANCH   5   6
ENDBRANCH   2   5
BRANCH   3  13
ATOM     13  C   UNL     1       4.511   3.680  19.514  0.00  0.00    +0.000 C 
BRANCH  13  14
ATOM     14  C   UNL     1       3.021   3.553  19.132  0.00  0.00    +0.000 C 
ATOM     15  C   UNL     1       2.428   4.977  18.798  0.00  0.00    +0.000 C 
ATOM     16  C   UNL     1       1.692   4.332  17.611  0.00  0.00    +0.000 C 
ATOM     17  C   UNL     1       2.790   3.251  17.602  0.00  0.00    +0.000 C 
BRANCH  14  18
ATOM     18  C   UNL     1       2.226   2.653  20.099  0.00  0.00    +0.000 C 
ATOM     19  C   UNL     1       2.339   2.719  21.600  0.00  0.00    +0.000 C 
ATOM     20  C   UNL     1       1.049   3.098  20.932  0.00  0.00    +0.000 C 
ENDBRANCH  14  18
ENDBRANCH  13  14
ENDBRANCH   3  13
TORSDOF 5
ENDMDL
MODEL 8
REMARK VINA RESULT:      -6.4      2.119      3.274
REMARK  Name = 
REMARK  5 active torsions:
REMARK  status: ('A' for Active; 'I' for Inactive)
REMARK    1  A    between atoms: C_2  and  C_3
REMARK    2  A    between atoms: C_3  and  N_4
REMARK    3  A    between atoms: N_11  and  C_12
REMARK    4  A    between atoms: C_12  and  C_13
REMARK    5  A    between atoms: C_13  and  C_14
REMARK                            x       y       z     vdW  Elec       q    Type
REMARK                         _______ _______ _______ _____ _____    ______ ____
ROOT
ATOM      1  O   UNL     1       2.688   7.847  18.286  0.00  0.00    +0.000 OA
ATOM      2  C   UNL     1       3.117   6.722  18.531  0.00  0.00    +0.000 C 
ATOM      3  N   UNL     1       4.335   6.248  18.082  0.00  0.00    +0.000 N 
ATOM      4  H   UNL     1       4.456   5.236  18.081  0.00  0.00    +0.000 HD
ENDROOT
BRANCH   2   5
ATOM      5  C   UNL     1       2.289   5.677  19.293  0.00  0.00    +0.000 C 
BRANCH   5   6
ATOM      6  N   UNL     1       2.705   4.320  18.954  0.00  0.00    +0.000 N 
ATOM      7  C   UNL     1       3.519   3.583  19.921  0.00  0.00    +0.000 C 
ATOM      8  C   UNL     1       4.079   2.286  19.341  0.00  0.00    +0.000 C 
ATOM      9  O   UNL     1       3.007   1.486  18.845  0.00  0.00    +0.000 OA
ATOM     10  C   UNL     1       2.341   2.156  17.780  0.00  0.00    +0.000 C 
ATOM     11  C   UNL     1       1.996   3.645  17.968  0.00  0.00    +0.000 C 
ATOM     12  O   UNL     1       1.161   4.212  17.257  0.00  0.00    +0.000 OA
ENDBRANCH   5   6
ENDBRANCH   2   5
BRANCH   3  13
ATOM     13  C   UNL     1       5.222   7.020  17.233  0.00  0.00    +0.000 C 
BRANCH  13  14
ATOM     14  C   UNL     1       6.649   6.440  17.328  0.00  0.00    +0.000 C 
ATOM     15  C   UNL     1       6.715   5.360  18.477  0.00  0.00    +0.000 C 
ATOM     16  C   UNL     1       7.569   4.491  17.537  0.00  0.00    +0.000 C 
ATOM     17  C   UNL     1       6.897   5.222  16.359  0.00  0.00    +0.000 C 
BRANCH  14  18
ATOM     18  C   UNL     1       7.743   7.526  17.300  0.00  0.00    +0.000 C 
ATOM     19  C   UNL     1       7.513   8.968  17.669  0.00  0.00    +0.000 C 
ATOM     20  C   UNL     1       8.414   8.117  18.515  0.00  0.00    +0.000 C 
ENDBRANCH  14  18
ENDBRANCH  13  14
ENDBRANCH   3  13
TORSDOF 5
ENDMDL
MODEL 9
REMARK VINA RESULT:      -6.4      1.941      2.603
REMARK  Name = 
REMARK  5 active torsions:
REMARK  status: ('A' for Active; 'I' for Inactive)
REMARK    1  A    between atoms: C_2  and  C_3
REMARK    2  A    between atoms: C_3  and  N_4
REMARK    3  A    between atoms: N_11  and  C_12
REMARK    4  A    between atoms: C_12  and  C_13
REMARK    5  A    between atoms: C_13  and  C_14
REMARK                            x       y       z     vdW  Elec       q    Type
REMARK                         _______ _______ _______ _____ _____    ______ ____
ROOT
ATOM      1  O   UNL     1       2.076   6.941  18.081  0.00  0.00    +0.000 OA
ATOM      2  C   UNL     1       2.931   6.282  18.667  0.00  0.00    +0.000 C 
ATOM      3  N   UNL     1       4.247   6.192  18.257  0.00  0.00    +0.000 N 
ATOM      4  H   UNL     1       4.784   5.405  18.621  0.00  0.00    +0.000 HD
ENDROOT
BRANCH   2   5
ATOM      5  C   UNL     1       2.598   5.400  19.879  0.00  0.00    +0.000 C 
BRANCH   5   6
ATOM      6  N   UNL     1       2.435   4.003  19.490  0.00  0.00    +0.000 N 
ATOM      7  C   UNL     1       1.205   3.616  18.799  0.00  0.00    +0.000 C 
ATOM      8  C   UNL     1       1.062   2.100  18.671  0.00  0.00    +0.000 C 
ATOM      9  O   UNL     1       2.215   1.570  18.020  0.00  0.00    +0.000 OA
ATOM     10  C   UNL     1       3.379   1.805  18.804  0.00  0.00    +0.000 C 
ATOM     11  C   UNL     1       3.573   3.210  19.405  0.00  0.00    +0.000 C 
ATOM     12  O   UNL     1       4.671   3.594  19.817  0.00  0.00    +0.000 OA
ENDBRANCH   5   6
ENDBRANCH   2   5
BRANCH   3  13
ATOM     13  C   UNL     1       4.751   6.836  17.060  0.00  0.00    +0.000 C 
BRANCH  13  14
ATOM     14  C   UNL     1       5.810   5.928  16.400  0.00  0.00    +0.000 C 
ATOM     15  C   UNL     1       5.332   4.424  16.445  0.00  0.00    +0.000 C 
ATOM     16  C   UNL     1       5.845   4.274  15.003  0.00  0.00    +0.000 C 
ATOM     17  C   UNL     1       5.633   5.791  14.839  0.00  0.00    +0.000 C 
BRANCH  14  18
ATOM     18  C   UNL     1       7.246   6.239  16.865  0.00  0.00    +0.000 C 
ATOM     19  C   UNL     1       7.639   7.482  17.621  0.00  0.00    +0.000 C 
ATOM     20  C   UNL     1       7.739   6.141  18.288  0.00  0.00    +0.000 C 
ENDBRANCH  14  18
ENDBRANCH  13  14
ENDBRANCH   3  13
TORSDOF 5
ENDMDL
