MODEL 1
REMARK VINA RESULT:      -8.4      0.000      0.000
REMARK  Name = 
REMARK  9 active torsions:
REMARK  status: ('A' for Active; 'I' for Inactive)
REMARK    1  A    between atoms: C_1  and  C_2
REMARK    2  A    between atoms: C_7  and  C_8
REMARK    3  A    between atoms: C_8  and  C_9
REMARK    4  A    between atoms: C_11  and  C_12
REMARK    5  A    between atoms: C_15  and  C_16
REMARK    6  A    between atoms: C_18  and  C_19
REMARK    7  A    between atoms: C_19  and  O_21
REMARK    8  A    between atoms: C_23  and  C_24
REMARK    9  A    between atoms: C_24  and  O_26
REMARK                            x       y       z     vdW  Elec       q    Type
REMARK                         _______ _______ _______ _____ _____    ______ ____
ROOT
ATOM      1  C   UNL     1       1.148   9.798  19.494  0.00  0.00    +0.000 A 
ATOM      2  C   UNL     1       1.585   9.988  18.188  0.00  0.00    +0.000 A 
ATOM      3  C   UNL     1       2.206   8.788  17.746  0.00  0.00    +0.000 A 
ATOM      4  C   UNL     1       2.179   7.915  18.802  0.00  0.00    +0.000 A 
ATOM      5  O   UNL     1       1.530   8.515  19.837  0.00  0.00    +0.000 OA
ENDROOT
BRANCH   4   6
ATOM      6  C   UNL     1       2.693   6.564  19.041  0.00  0.00    +0.000 A 
ATOM      7  C   UNL     1       2.062   5.712  19.957  0.00  0.00    +0.000 A 
ATOM      8  C   UNL     1       2.508   4.395  20.151  0.00  0.00    +0.000 A 
ATOM      9  C   UNL     1       3.583   3.911  19.399  0.00  0.00    +0.000 A 
ATOM     10  C   UNL     1       4.255   4.754  18.498  0.00  0.00    +0.000 A 
ATOM     11  C   UNL     1       3.803   6.071  18.335  0.00  0.00    +0.000 A 
BRANCH   8  12
ATOM     12  C   UNL     1       1.764   3.554  21.124  0.00  0.00    +0.000 C 
ATOM     13  O   UNL     1       2.225   3.265  22.216  0.00  0.00    +0.000 OA
BRANCH  12  14
ATOM     14  O   UNL     1       0.577   3.089  20.683  0.00  0.00    +0.000 OA
ATOM     15  H   UNL     1       0.515   2.856  19.740  0.00  0.00    +0.000 HD
ENDBRANCH  12  14
ENDBRANCH   8  12
BRANCH  10  16
ATOM     16  C   UNL     1       5.418   4.180  17.759  0.00  0.00    +0.000 C 
ATOM     17  O   UNL     1       5.311   3.845  16.587  0.00  0.00    +0.000 OA
BRANCH  16  18
ATOM     18  O   UNL     1       6.568   4.021  18.439  0.00  0.00    +0.000 OA
ATOM     19  H   UNL     1       7.374   4.488  18.146  0.00  0.00    +0.000 HD
ENDBRANCH  16  18
ENDBRANCH  10  16
ENDBRANCH   4   6
BRANCH   1  21
ATOM     20  C   UNL     1      -0.830  11.140  20.102  0.00  0.00    +0.000 C 
ATOM     21  C   UNL     1       0.427  10.701  20.350  0.00  0.00    +0.000 C 
BRANCH  20  28
ATOM     22  C   UNL     1      -4.844  15.779  24.161  0.00  0.00    +0.000 C 
ATOM     23  C   UNL     1      -3.684  14.964  23.665  0.00  0.00    +0.000 A 
ATOM     24  C   UNL     1      -2.442  15.008  24.316  0.00  0.00    +0.000 A 
ATOM     25  C   UNL     1      -1.345  14.258  23.868  0.00  0.00    +0.000 A 
ATOM     26  C   UNL     1      -1.545  13.463  22.738  0.00  0.00    +0.000 A 
ATOM     27  N   UNL     1      -0.719  12.620  22.034  0.00  0.00    +0.000 N 
ATOM     28  C   UNL     1      -1.435  12.073  20.990  0.00  0.00    +0.000 A 
ATOM     29  N   UNL     1      -2.674  12.536  21.000  0.00  0.00    +0.000 NA
ATOM     30  C   UNL     1      -2.758  13.392  22.069  0.00  0.00    +0.000 A 
ATOM     31  C   UNL     1      -3.847  14.147  22.531  0.00  0.00    +0.000 A 
ATOM     32  H   UNL     1       0.248  12.439  22.262  0.00  0.00    +0.000 HD
ENDBRANCH  20  28
BRANCH  20  33
ATOM     33  C   UNL     1      -1.533  10.551  18.889  0.00  0.00    +0.000 C 
ATOM     34  N   UNL     1      -2.117  10.061  17.884  0.00  0.00    +0.000 NA
ENDBRANCH  20  33
ENDBRANCH   1  21
TORSDOF 8
ENDMDL
MODEL 2
REMARK VINA RESULT:      -8.4      0.112      2.782
REMARK  Name = 
REMARK  9 active torsions:
REMARK  status: ('A' for Active; 'I' for Inactive)
REMARK    1  A    between atoms: C_1  and  C_2
REMARK    2  A    between atoms: C_7  and  C_8
REMARK    3  A    between atoms: C_8  and  C_9
REMARK    4  A    between atoms: C_11  and  C_12
REMARK    5  A    between atoms: C_15  and  C_16
REMARK    6  A    between atoms: C_18  and  C_19
REMARK    7  A    between atoms: C_19  and  O_21
REMARK    8  A    between atoms: C_23  and  C_24
REMARK    9  A    between atoms: C_24  and  O_26
REMARK                            x       y       z     vdW  Elec       q    Type
REMARK                         _______ _______ _______ _____ _____    ______ ____
ROOT
ATOM      1  C   UNL     1       1.186   9.781  19.482  0.00  0.00    +0.000 A 
ATOM      2  C   UNL     1       1.682   9.982  18.199  0.00  0.00    +0.000 A 
ATOM      3  C   UNL     1       2.273   8.769  17.753  0.00  0.00    +0.000 A 
ATOM      4  C   UNL     1       2.172   7.875  18.787  0.00  0.00    +0.000 A 
ATOM      5  O   UNL     1       1.507   8.477  19.809  0.00  0.00    +0.000 OA
ENDROOT
BRANCH   4   6
ATOM      6  C   UNL     1       2.625   6.501  19.013  0.00  0.00    +0.000 A 
ATOM      7  C   UNL     1       3.722   5.986  18.308  0.00  0.00    +0.000 A 
ATOM      8  C   UNL     1       4.203   4.691  18.557  0.00  0.00    +0.000 A 
ATOM      9  C   UNL     1       3.600   3.907  19.545  0.00  0.00    +0.000 A 
ATOM     10  C   UNL     1       2.478   4.386  20.244  0.00  0.00    +0.000 A 
ATOM     11  C   UNL     1       2.004   5.675  19.964  0.00  0.00    +0.000 A 
BRANCH   8  12
ATOM     12  C   UNL     1       5.385   4.237  17.781  0.00  0.00    +0.000 C 
ATOM     13  O   UNL     1       5.331   4.026  16.580  0.00  0.00    +0.000 OA
BRANCH  12  14
ATOM     14  O   UNL     1       6.497   4.017  18.512  0.00  0.00    +0.000 OA
ATOM     15  H   UNL     1       7.205   3.495  18.096  0.00  0.00    +0.000 HD
ENDBRANCH  12  14
ENDBRANCH   8  12
BRANCH  10  16
ATOM     16  C   UNL     1       1.863   3.478  21.257  0.00  0.00    +0.000 C 
ATOM     17  O   UNL     1       2.440   3.232  22.308  0.00  0.00    +0.000 OA
BRANCH  16  18
ATOM     18  O   UNL     1       0.675   2.925  20.954  0.00  0.00    +0.000 OA
ATOM     19  H   UNL     1       0.196   2.406  21.628  0.00  0.00    +0.000 HD
ENDBRANCH  16  18
ENDBRANCH  10  16
ENDBRANCH   4   6
BRANCH   1  21
ATOM     20  C   UNL     1      -0.791  11.128  20.081  0.00  0.00    +0.000 C 
ATOM     21  C   UNL     1       0.467  10.692  20.331  0.00  0.00    +0.000 C 
BRANCH  20  28
ATOM     22  C   UNL     1      -4.797  15.811  24.098  0.00  0.00    +0.000 C 
ATOM     23  C   UNL     1      -3.639  14.988  23.611  0.00  0.00    +0.000 A 
ATOM     24  C   UNL     1      -2.399  15.030  24.266  0.00  0.00    +0.000 A 
ATOM     25  C   UNL     1      -1.304  14.272  23.826  0.00  0.00    +0.000 A 
ATOM     26  C   UNL     1      -1.504  13.470  22.700  0.00  0.00    +0.000 A 
ATOM     27  N   UNL     1      -0.679  12.620  22.005  0.00  0.00    +0.000 N 
ATOM     28  C   UNL     1      -1.394  12.069  20.962  0.00  0.00    +0.000 A 
ATOM     29  N   UNL     1      -2.631  12.537  20.965  0.00  0.00    +0.000 NA
ATOM     30  C   UNL     1      -2.715  13.401  22.028  0.00  0.00    +0.000 A 
ATOM     31  C   UNL     1      -3.802  14.164  22.481  0.00  0.00    +0.000 A 
ATOM     32  H   UNL     1       0.286  12.435  22.237  0.00  0.00    +0.000 HD
ENDBRANCH  20  28
BRANCH  20  33
ATOM     33  C   UNL     1      -1.497  10.526  18.876  0.00  0.00    +0.000 C 
ATOM     34  N   UNL     1      -2.082  10.028  17.876  0.00  0.00    +0.000 NA
ENDBRANCH  20  33
ENDBRANCH   1  21
TORSDOF 8
ENDMDL
MODEL 3
REMARK VINA RESULT:      -8.4      0.742      1.295
REMARK  Name = 
REMARK  9 active torsions:
REMARK  status: ('A' for Active; 'I' for Inactive)
REMARK    1  A    between atoms: C_1  and  C_2
REMARK    2  A    between atoms: C_7  and  C_8
REMARK    3  A    between atoms: C_8  and  C_9
REMARK    4  A    between atoms: C_11  and  C_12
REMARK    5  A    between atoms: C_15  and  C_16
REMARK    6  A    between atoms: C_18  and  C_19
REMARK    7  A    between atoms: C_19  and  O_21
REMARK    8  A    between atoms: C_23  and  C_24
REMARK    9  A    between atoms: C_24  and  O_26
REMARK                            x       y       z     vdW  Elec       q    Type
REMARK                         _______ _______ _______ _____ _____    ______ ____
ROOT
ATOM      1  C   UNL     1       1.227   9.648  19.888  0.00  0.00    +0.000 A 
ATOM      2  C   UNL     1       1.434   9.843  18.527  0.00  0.00    +0.000 A 
ATOM      3  C   UNL     1       1.975   8.647  17.982  0.00  0.00    +0.000 A 
ATOM      4  C   UNL     1       2.133   7.771  19.024  0.00  0.00    +0.000 A 
ATOM      5  O   UNL     1       1.668   8.365  20.155  0.00  0.00    +0.000 OA
ENDROOT
BRANCH   4   6
ATOM      6  C   UNL     1       2.686   6.423  19.165  0.00  0.00    +0.000 A 
ATOM      7  C   UNL     1       2.133   5.517  20.080  0.00  0.00    +0.000 A 
ATOM      8  C   UNL     1       2.615   4.203  20.184  0.00  0.00    +0.000 A 
ATOM      9  C   UNL     1       3.646   3.775  19.343  0.00  0.00    +0.000 A 
ATOM     10  C   UNL     1       4.242   4.672  18.440  0.00  0.00    +0.000 A 
ATOM     11  C   UNL     1       3.756   5.985  18.367  0.00  0.00    +0.000 A 
BRANCH   8  12
ATOM     12  C   UNL     1       1.952   3.304  21.164  0.00  0.00    +0.000 C 
ATOM     13  O   UNL     1       2.554   2.812  22.104  0.00  0.00    +0.000 OA
BRANCH  12  14
ATOM     14  O   UNL     1       0.659   3.027  20.898  0.00  0.00    +0.000 OA
ATOM     15  H   UNL     1       0.474   2.220  20.385  0.00  0.00    +0.000 HD
ENDBRANCH  12  14
ENDBRANCH   8  12
BRANCH  10  16
ATOM     16  C   UNL     1       5.364   4.156  17.601  0.00  0.00    +0.000 C 
ATOM     17  O   UNL     1       5.182   3.856  16.428  0.00  0.00    +0.000 OA
BRANCH  16  18
ATOM     18  O   UNL     1       6.564   4.008  18.192  0.00  0.00    +0.000 OA
ATOM     19  H   UNL     1       6.668   4.225  19.138  0.00  0.00    +0.000 HD
ENDBRANCH  16  18
ENDBRANCH  10  16
ENDBRANCH   4   6
BRANCH   1  21
ATOM     20  C   UNL     1      -0.528  11.178  20.701  0.00  0.00    +0.000 C 
ATOM     21  C   UNL     1       0.659  10.544  20.858  0.00  0.00    +0.000 C 
BRANCH  20  28
ATOM     22  C   UNL     1      -1.897  16.315  25.784  0.00  0.00    +0.000 C 
ATOM     23  C   UNL     1      -2.090  15.159  24.846  0.00  0.00    +0.000 A 
ATOM     24  C   UNL     1      -3.323  14.495  24.765  0.00  0.00    +0.000 A 
ATOM     25  C   UNL     1      -3.523  13.411  23.897  0.00  0.00    +0.000 A 
ATOM     26  C   UNL     1      -2.434  13.020  23.115  0.00  0.00    +0.000 A 
ATOM     27  N   UNL     1      -2.268  12.025  22.182  0.00  0.00    +0.000 N 
ATOM     28  C   UNL     1      -0.976  12.084  21.702  0.00  0.00    +0.000 A 
ATOM     29  N   UNL     1      -0.319  13.067  22.294  0.00  0.00    +0.000 NA
ATOM     30  C   UNL     1      -1.202  13.653  23.166  0.00  0.00    +0.000 A 
ATOM     31  C   UNL     1      -1.017  14.737  24.038  0.00  0.00    +0.000 A 
ATOM     32  H   UNL     1      -2.986  11.372  21.902  0.00  0.00    +0.000 HD
ENDBRANCH  20  28
BRANCH  20  33
ATOM     33  C   UNL     1      -1.333  10.825  19.460  0.00  0.00    +0.000 C 
ATOM     34  N   UNL     1      -2.000  10.531  18.431  0.00  0.00    +0.000 NA
ENDBRANCH  20  33
ENDBRANCH   1  21
TORSDOF 8
ENDMDL
MODEL 4
REMARK VINA RESULT:      -8.4      0.724      3.030
REMARK  Name = 
REMARK  9 active torsions:
REMARK  status: ('A' for Active; 'I' for Inactive)
REMARK    1  A    between atoms: C_1  and  C_2
REMARK    2  A    between atoms: C_7  and  C_8
REMARK    3  A    between atoms: C_8  and  C_9
REMARK    4  A    between atoms: C_11  and  C_12
REMARK    5  A    between atoms: C_15  and  C_16
REMARK    6  A    between atoms: C_18  and  C_19
REMARK    7  A    between atoms: C_19  and  O_21
REMARK    8  A    between atoms: C_23  and  C_24
REMARK    9  A    between atoms: C_24  and  O_26
REMARK                            x       y       z     vdW  Elec       q    Type
REMARK                         _______ _______ _______ _____ _____    ______ ____
ROOT
ATOM      1  C   UNL     1       1.109   9.647  19.256  0.00  0.00    +0.000 A 
ATOM      2  C   UNL     1       1.744   9.846  18.035  0.00  0.00    +0.000 A 
ATOM      3  C   UNL     1       2.441   8.656  17.695  0.00  0.00    +0.000 A 
ATOM      4  C   UNL     1       2.261   7.779  18.733  0.00  0.00    +0.000 A 
ATOM      5  O   UNL     1       1.450   8.367  19.653  0.00  0.00    +0.000 OA
ENDROOT
BRANCH   4   6
ATOM      6  C   UNL     1       2.749   6.435  19.047  0.00  0.00    +0.000 A 
ATOM      7  C   UNL     1       3.950   5.965  18.499  0.00  0.00    +0.000 A 
ATOM      8  C   UNL     1       4.459   4.702  18.838  0.00  0.00    +0.000 A 
ATOM      9  C   UNL     1       3.775   3.905  19.760  0.00  0.00    +0.000 A 
ATOM     10  C   UNL     1       2.551   4.336  20.300  0.00  0.00    +0.000 A 
ATOM     11  C   UNL     1       2.053   5.594  19.932  0.00  0.00    +0.000 A 
BRANCH   8  12
ATOM     12  C   UNL     1       5.752   4.296  18.228  0.00  0.00    +0.000 C 
ATOM     13  O   UNL     1       6.822   4.520  18.769  0.00  0.00    +0.000 OA
BRANCH  12  14
ATOM     14  O   UNL     1       5.652   3.722  17.012  0.00  0.00    +0.000 OA
ATOM     15  H   UNL     1       6.414   3.818  16.413  0.00  0.00    +0.000 HD
ENDBRANCH  12  14
ENDBRANCH   8  12
BRANCH  10  16
ATOM     16  C   UNL     1       1.857   3.416  21.248  0.00  0.00    +0.000 C 
ATOM     17  O   UNL     1       2.393   3.075  22.295  0.00  0.00    +0.000 OA
BRANCH  16  18
ATOM     18  O   UNL     1       0.643   2.958  20.893  0.00  0.00    +0.000 OA
ATOM     19  H   UNL     1      -0.064   3.589  20.658  0.00  0.00    +0.000 HD
ENDBRANCH  16  18
ENDBRANCH  10  16
ENDBRANCH   4   6
BRANCH   1  21
ATOM     20  C   UNL     1      -0.951  10.973  19.540  0.00  0.00    +0.000 C 
ATOM     21  C   UNL     1       0.251  10.537  19.989  0.00  0.00    +0.000 C 
BRANCH  20  28
ATOM     22  C   UNL     1      -4.115  15.545  24.356  0.00  0.00    +0.000 C 
ATOM     23  C   UNL     1      -3.828  14.796  23.086  0.00  0.00    +0.000 A 
ATOM     24  C   UNL     1      -4.613  14.992  21.940  0.00  0.00    +0.000 A 
ATOM     25  C   UNL     1      -4.364  14.300  20.746  0.00  0.00    +0.000 A 
ATOM     26  C   UNL     1      -3.295  13.402  20.749  0.00  0.00    +0.000 A 
ATOM     27  N   UNL     1      -2.774  12.571  19.787  0.00  0.00    +0.000 N 
ATOM     28  C   UNL     1      -1.700  11.894  20.325  0.00  0.00    +0.000 A 
ATOM     29  N   UNL     1      -1.523  12.256  21.584  0.00  0.00    +0.000 NA
ATOM     30  C   UNL     1      -2.495  13.183  21.861  0.00  0.00    +0.000 A 
ATOM     31  C   UNL     1      -2.757  13.884  23.049  0.00  0.00    +0.000 A 
ATOM     32  H   UNL     1      -3.128  12.488  18.844  0.00  0.00    +0.000 HD
ENDBRANCH  20  28
BRANCH  20  33
ATOM     33  C   UNL     1      -1.440  10.393  18.222  0.00  0.00    +0.000 C 
ATOM     34  N   UNL     1      -1.846   9.913  17.129  0.00  0.00    +0.000 NA
ENDBRANCH  20  33
ENDBRANCH   1  21
TORSDOF 8
ENDMDL
MODEL 5
REMARK VINA RESULT:      -8.4      1.373      1.858
REMARK  Name = 
REMARK  9 active torsions:
REMARK  status: ('A' for Active; 'I' for Inactive)
REMARK    1  A    between atoms: C_1  and  C_2
REMARK    2  A    between atoms: C_7  and  C_8
REMARK    3  A    between atoms: C_8  and  C_9
REMARK    4  A    between atoms: C_11  and  C_12
REMARK    5  A    between atoms: C_15  and  C_16
REMARK    6  A    between atoms: C_18  and  C_19
REMARK    7  A    between atoms: C_19  and  O_21
REMARK    8  A    between atoms: C_23  and  C_24
REMARK    9  A    between atoms: C_24  and  O_26
REMARK                            x       y       z     vdW  Elec       q    Type
REMARK                         _______ _______ _______ _____ _____    ______ ____
ROOT
ATOM      1  C   UNL     1       0.765   9.665  19.182  0.00  0.00    +0.000 A 
ATOM      2  C   UNL     1       1.503   9.877  18.023  0.00  0.00    +0.000 A 
ATOM      3  C   UNL     1       2.349   8.753  17.821  0.00  0.00    +0.000 A 
ATOM      4  C   UNL     1       2.148   7.909  18.881  0.00  0.00    +0.000 A 
ATOM      5  O   UNL     1       1.189   8.447  19.681  0.00  0.00    +0.000 OA
ENDROOT
BRANCH   4   6
ATOM      6  C   UNL     1       2.732   6.638  19.316  0.00  0.00    +0.000 A 
ATOM      7  C   UNL     1       1.953   5.687  19.988  0.00  0.00    +0.000 A 
ATOM      8  C   UNL     1       2.485   4.441  20.358  0.00  0.00    +0.000 A 
ATOM      9  C   UNL     1       3.806   4.127  20.028  0.00  0.00    +0.000 A 
ATOM     10  C   UNL     1       4.620   5.075  19.384  0.00  0.00    +0.000 A 
ATOM     11  C   UNL     1       4.073   6.319  19.041  0.00  0.00    +0.000 A 
BRANCH   8  12
ATOM     12  C   UNL     1       1.579   3.485  21.045  0.00  0.00    +0.000 C 
ATOM     13  O   UNL     1       1.895   2.922  22.080  0.00  0.00    +0.000 OA
BRANCH  12  14
ATOM     14  O   UNL     1       0.416   3.243  20.406  0.00  0.00    +0.000 OA
ATOM     15  H   UNL     1      -0.252   2.721  20.885  0.00  0.00    +0.000 HD
ENDBRANCH  12  14
ENDBRANCH   8  12
BRANCH  10  16
ATOM     16  C   UNL     1       6.032   4.684  19.097  0.00  0.00    +0.000 C 
ATOM     17  O   UNL     1       6.953   5.125  19.772  0.00  0.00    +0.000 OA
BRANCH  16  18
ATOM     18  O   UNL     1       6.249   3.858  18.057  0.00  0.00    +0.000 OA
ATOM     19  H   UNL     1       5.762   3.992  17.222  0.00  0.00    +0.000 HD
ENDBRANCH  16  18
ENDBRANCH  10  16
ENDBRANCH   4   6
BRANCH   1  21
ATOM     20  C   UNL     1      -0.394  10.678  21.110  0.00  0.00    +0.000 C 
ATOM     21  C   UNL     1      -0.251  10.492  19.775  0.00  0.00    +0.000 C 
BRANCH  20  28
ATOM     22  C   UNL     1      -6.069  15.109  22.612  0.00  0.00    +0.000 C 
ATOM     23  C   UNL     1      -4.960  14.112  22.789  0.00  0.00    +0.000 A 
ATOM     24  C   UNL     1      -4.700  13.538  24.042  0.00  0.00    +0.000 A 
ATOM     25  C   UNL     1      -3.667  12.607  24.229  0.00  0.00    +0.000 A 
ATOM     26  C   UNL     1      -2.906  12.278  23.107  0.00  0.00    +0.000 A 
ATOM     27  N   UNL     1      -1.841  11.429  22.921  0.00  0.00    +0.000 N 
ATOM     28  C   UNL     1      -1.466  11.478  21.594  0.00  0.00    +0.000 A 
ATOM     29  N   UNL     1      -2.243  12.322  20.936  0.00  0.00    +0.000 NA
ATOM     30  C   UNL     1      -3.134  12.822  21.852  0.00  0.00    +0.000 A 
ATOM     31  C   UNL     1      -4.172  13.751  21.680  0.00  0.00    +0.000 A 
ATOM     32  H   UNL     1      -1.419  10.866  23.646  0.00  0.00    +0.000 HD
ENDBRANCH  20  28
BRANCH  20  33
ATOM     33  C   UNL     1       0.657  10.041  22.005  0.00  0.00    +0.000 C 
ATOM     34  N   UNL     1       1.528   9.512  22.747  0.00  0.00    +0.000 NA
ENDBRANCH  20  33
ENDBRANCH   1  21
TORSDOF 8
ENDMDL
MODEL 6
REMARK VINA RESULT:      -8.4      0.532      1.295
REMARK  Name = 
REMARK  9 active torsions:
REMARK  status: ('A' for Active; 'I' for Inactive)
REMARK    1  A    between atoms: C_1  and  C_2
REMARK    2  A    between atoms: C_7  and  C_8
REMARK    3  A    between atoms: C_8  and  C_9
REMARK    4  A    between atoms: C_11  and  C_12
REMARK    5  A    between atoms: C_15  and  C_16
REMARK    6  A    between atoms: C_18  and  C_19
REMARK    7  A    between atoms: C_19  and  O_21
REMARK    8  A    between atoms: C_23  and  C_24
REMARK    9  A    between atoms: C_24  and  O_26
REMARK                            x       y       z     vdW  Elec       q    Type
REMARK                         _______ _______ _______ _____ _____    ______ ____
ROOT
ATOM      1  C   UNL     1       1.109   9.677  19.459  0.00  0.00    +0.000 A 
ATOM      2  C   UNL     1       1.570   9.844  18.158  0.00  0.00    +0.000 A 
ATOM      3  C   UNL     1       2.245   8.657  17.767  0.00  0.00    +0.000 A 
ATOM      4  C   UNL     1       2.226   7.815  18.848  0.00  0.00    +0.000 A 
ATOM      5  O   UNL     1       1.531   8.420  19.849  0.00  0.00    +0.000 OA
ENDROOT
BRANCH   4   6
ATOM      6  C   UNL     1       2.785   6.493  19.139  0.00  0.00    +0.000 A 
ATOM      7  C   UNL     1       2.145   5.630  20.039  0.00  0.00    +0.000 A 
ATOM      8  C   UNL     1       2.637   4.338  20.281  0.00  0.00    +0.000 A 
ATOM      9  C   UNL     1       3.768   3.888  19.596  0.00  0.00    +0.000 A 
ATOM     10  C   UNL     1       4.450   4.744  18.713  0.00  0.00    +0.000 A 
ATOM     11  C   UNL     1       3.950   6.037  18.501  0.00  0.00    +0.000 A 
BRANCH   8  12
ATOM     12  C   UNL     1       1.881   3.482  21.232  0.00  0.00    +0.000 C 
ATOM     13  O   UNL     1       2.362   3.102  22.286  0.00  0.00    +0.000 OA
BRANCH  12  14
ATOM     14  O   UNL     1       0.654   3.111  20.812  0.00  0.00    +0.000 OA
ATOM     15  H   UNL     1       0.598   2.312  20.258  0.00  0.00    +0.000 HD
ENDBRANCH  12  14
ENDBRANCH   8  12
BRANCH  10  16
ATOM     16  C   UNL     1       5.673   4.208  18.045  0.00  0.00    +0.000 C 
ATOM     17  O   UNL     1       6.783   4.410  18.520  0.00  0.00    +0.000 OA
BRANCH  16  18
ATOM     18  O   UNL     1       5.506   3.529  16.896  0.00  0.00    +0.000 OA
ATOM     19  H   UNL     1       4.800   2.858  16.828  0.00  0.00    +0.000 HD
ENDBRANCH  16  18
ENDBRANCH  10  16
ENDBRANCH   4   6
BRANCH   1  21
ATOM     20  C   UNL     1      -0.901  11.024  19.939  0.00  0.00    +0.000 C 
ATOM     21  C   UNL     1       0.335  10.577  20.270  0.00  0.00    +0.000 C 
BRANCH  20  28
ATOM     22  C   UNL     1      -3.468  15.738  24.969  0.00  0.00    +0.000 C 
ATOM     23  C   UNL     1      -3.362  14.916  23.717  0.00  0.00    +0.000 A 
ATOM     24  C   UNL     1      -4.354  14.977  22.727  0.00  0.00    +0.000 A 
ATOM     25  C   UNL     1      -4.275  14.215  21.552  0.00  0.00    +0.000 A 
ATOM     26  C   UNL     1      -3.160  13.387  21.412  0.00  0.00    +0.000 A 
ATOM     27  N   UNL     1      -2.762  12.520  20.422  0.00  0.00    +0.000 N 
ATOM     28  C   UNL     1      -1.561  11.952  20.792  0.00  0.00    +0.000 A 
ATOM     29  N   UNL     1      -1.185  12.418  21.971  0.00  0.00    +0.000 NA
ATOM     30  C   UNL     1      -2.158  13.301  22.367  0.00  0.00    +0.000 A 
ATOM     31  C   UNL     1      -2.250  14.071  23.536  0.00  0.00    +0.000 A 
ATOM     32  H   UNL     1      -3.275  12.346  19.569  0.00  0.00    +0.000 HD
ENDBRANCH  20  28
BRANCH  20  33
ATOM     33  C   UNL     1      -1.521  10.448  18.676  0.00  0.00    +0.000 C 
ATOM     34  N   UNL     1      -2.035   9.969  17.629  0.00  0.00    +0.000 NA
ENDBRANCH  20  33
ENDBRANCH   1  21
TORSDOF 8
ENDMDL
MODEL 7
REMARK VINA RESULT:      -8.3      0.420      3.032
REMARK  Name = 
REMARK  9 active torsions:
REMARK  status: ('A' for Active; 'I' for Inactive)
REMARK    1  A    between atoms: C_1  and  C_2
REMARK    2  A    between atoms: C_7  and  C_8
REMARK    3  A    between atoms: C_8  and  C_9
REMARK    4  A    between atoms: C_11  and  C_12
REMARK    5  A    between atoms: C_15  and  C_16
REMARK    6  A    between atoms: C_18  and  C_19
REMARK    7  A    between atoms: C_19  and  O_21
REMARK    8  A    between atoms: C_23  and  C_24
REMARK    9  A    between atoms: C_24  and  O_26
REMARK                            x       y       z     vdW  Elec       q    Type
REMARK                         _______ _______ _______ _____ _____    ______ ____
ROOT
ATOM      1  C   UNL     1       1.307   9.733  19.674  0.00  0.00    +0.000 A 
ATOM      2  C   UNL     1       1.688   9.925  18.351  0.00  0.00    +0.000 A 
ATOM      3  C   UNL     1       2.210   8.700  17.854  0.00  0.00    +0.000 A 
ATOM      4  C   UNL     1       2.184   7.807  18.893  0.00  0.00    +0.000 A 
ATOM      5  O   UNL     1       1.627   8.422  19.971  0.00  0.00    +0.000 OA
ENDROOT
BRANCH   4   6
ATOM      6  C   UNL     1       2.626   6.423  19.078  0.00  0.00    +0.000 A 
ATOM      7  C   UNL     1       3.711   5.917  18.349  0.00  0.00    +0.000 A 
ATOM      8  C   UNL     1       4.182   4.612  18.559  0.00  0.00    +0.000 A 
ATOM      9  C   UNL     1       3.581   3.807  19.531  0.00  0.00    +0.000 A 
ATOM     10  C   UNL     1       2.471   4.277  20.254  0.00  0.00    +0.000 A 
ATOM     11  C   UNL     1       2.006   5.578  20.013  0.00  0.00    +0.000 A 
BRANCH   8  12
ATOM     12  C   UNL     1       5.353   4.167  17.759  0.00  0.00    +0.000 C 
ATOM     13  O   UNL     1       5.264   3.905  16.571  0.00  0.00    +0.000 OA
BRANCH  12  14
ATOM     14  O   UNL     1       6.496   4.018  18.458  0.00  0.00    +0.000 OA
ATOM     15  H   UNL     1       6.687   3.131  18.813  0.00  0.00    +0.000 HD
ENDBRANCH  12  14
ENDBRANCH   8  12
BRANCH  10  16
ATOM     16  C   UNL     1       1.857   3.348  21.248  0.00  0.00    +0.000 C 
ATOM     17  O   UNL     1       2.464   3.026  22.261  0.00  0.00    +0.000 OA
BRANCH  16  18
ATOM     18  O   UNL     1       0.633   2.863  20.971  0.00  0.00    +0.000 OA
ATOM     19  H   UNL     1      -0.154   3.427  21.102  0.00  0.00    +0.000 HD
ENDBRANCH  16  18
ENDBRANCH  10  16
ENDBRANCH   4   6
BRANCH   1  21
ATOM     20  C   UNL     1      -0.558  11.165  20.419  0.00  0.00    +0.000 C 
ATOM     21  C   UNL     1       0.688  10.658  20.584  0.00  0.00    +0.000 C 
BRANCH  20  28
ATOM     22  C   UNL     1      -2.142  16.170  25.572  0.00  0.00    +0.000 C 
ATOM     23  C   UNL     1      -2.302  15.204  24.433  0.00  0.00    +0.000 A 
ATOM     24  C   UNL     1      -3.550  15.011  23.822  0.00  0.00    +0.000 A 
ATOM     25  C   UNL     1      -3.722  14.112  22.759  0.00  0.00    +0.000 A 
ATOM     26  C   UNL     1      -2.590  13.414  22.335  0.00  0.00    +0.000 A 
ATOM     27  N   UNL     1      -2.389  12.476  21.351  0.00  0.00    +0.000 N 
ATOM     28  C   UNL     1      -1.058  12.113  21.355  0.00  0.00    +0.000 A 
ATOM     29  N   UNL     1      -0.412  12.775  22.299  0.00  0.00    +0.000 NA
ATOM     30  C   UNL     1      -1.339  13.580  22.912  0.00  0.00    +0.000 A 
ATOM     31  C   UNL     1      -1.183  14.484  23.974  0.00  0.00    +0.000 A 
ATOM     32  H   UNL     1      -3.107  12.127  20.732  0.00  0.00    +0.000 HD
ENDBRANCH  20  28
BRANCH  20  33
ATOM     33  C   UNL     1      -1.364  10.630  19.245  0.00  0.00    +0.000 C 
ATOM     34  N   UNL     1      -2.031  10.188  18.272  0.00  0.00    +0.000 NA
ENDBRANCH  20  33
ENDBRANCH   1  21
TORSDOF 8
ENDMDL
MODEL 8
REMARK VINA RESULT:      -8.3      1.291      3.218
REMARK  Name = 
REMARK  9 active torsions:
REMARK  status: ('A' for Active; 'I' for Inactive)
REMARK    1  A    between atoms: C_1  and  C_2
REMARK    2  A    between atoms: C_7  and  C_8
REMARK    3  A    between atoms: C_8  and  C_9
REMARK    4  A    between atoms: C_11  and  C_12
REMARK    5  A    between atoms: C_15  and  C_16
REMARK    6  A    between atoms: C_18  and  C_19
REMARK    7  A    between atoms: C_19  and  O_21
REMARK    8  A    between atoms: C_23  and  C_24
REMARK    9  A    between atoms: C_24  and  O_26
REMARK                            x       y       z     vdW  Elec       q    Type
REMARK                         _______ _______ _______ _____ _____    ______ ____
ROOT
ATOM      1  C   UNL     1       1.298   9.921  19.436  0.00  0.00    +0.000 A 
ATOM      2  C   UNL     1       1.595  10.017  18.081  0.00  0.00    +0.000 A 
ATOM      3  C   UNL     1       2.109   8.766  17.646  0.00  0.00    +0.000 A 
ATOM      4  C   UNL     1       2.162   7.954  18.749  0.00  0.00    +0.000 A 
ATOM      5  O   UNL     1       1.660   8.640  19.810  0.00  0.00    +0.000 OA
ENDROOT
BRANCH   4   6
ATOM      6  C   UNL     1       2.640   6.594  19.009  0.00  0.00    +0.000 A 
ATOM      7  C   UNL     1       3.777   6.100  18.355  0.00  0.00    +0.000 A 
ATOM      8  C   UNL     1       4.280   4.821  18.639  0.00  0.00    +0.000 A 
ATOM      9  C   UNL     1       3.658   4.032  19.611  0.00  0.00    +0.000 A 
ATOM     10  C   UNL     1       2.497   4.489  20.258  0.00  0.00    +0.000 A 
ATOM     11  C   UNL     1       2.002   5.763  19.944  0.00  0.00    +0.000 A 
BRANCH   8  12
ATOM     12  C   UNL     1       5.504   4.388  17.917  0.00  0.00    +0.000 C 
ATOM     13  O   UNL     1       5.542   4.298  16.701  0.00  0.00    +0.000 OA
BRANCH  12  14
ATOM     14  O   UNL     1       6.542   4.047  18.708  0.00  0.00    +0.000 OA
ATOM     15  H   UNL     1       7.236   4.716  18.842  0.00  0.00    +0.000 HD
ENDBRANCH  12  14
ENDBRANCH   8  12
BRANCH  10  16
ATOM     16  C   UNL     1       1.864   3.577  21.256  0.00  0.00    +0.000 C 
ATOM     17  O   UNL     1       2.431   3.308  22.306  0.00  0.00    +0.000 OA
BRANCH  16  18
ATOM     18  O   UNL     1       0.669   3.045  20.940  0.00  0.00    +0.000 OA
ATOM     19  H   UNL     1      -0.126   3.303  21.445  0.00  0.00    +0.000 HD
ENDBRANCH  16  18
ENDBRANCH  10  16
ENDBRANCH   4   6
BRANCH   1  21
ATOM     20  C   UNL     1      -0.141  10.610  21.317  0.00  0.00    +0.000 C 
ATOM     21  C   UNL     1       0.718  10.904  20.310  0.00  0.00    +0.000 C 
BRANCH  20  28
ATOM     22  C   UNL     1      -2.150  16.609  25.069  0.00  0.00    +0.000 C 
ATOM     23  C   UNL     1      -2.187  15.239  24.456  0.00  0.00    +0.000 A 
ATOM     24  C   UNL     1      -3.304  14.406  24.619  0.00  0.00    +0.000 A 
ATOM     25  C   UNL     1      -3.358  13.122  24.057  0.00  0.00    +0.000 A 
ATOM     26  C   UNL     1      -2.243  12.707  23.326  0.00  0.00    +0.000 A 
ATOM     27  N   UNL     1      -1.950  11.544  22.655  0.00  0.00    +0.000 N 
ATOM     28  C   UNL     1      -0.696  11.665  22.093  0.00  0.00    +0.000 A 
ATOM     29  N   UNL     1      -0.183  12.849  22.383  0.00  0.00    +0.000 NA
ATOM     30  C   UNL     1      -1.122  13.503  23.141  0.00  0.00    +0.000 A 
ATOM     31  C   UNL     1      -1.084  14.786  23.708  0.00  0.00    +0.000 A 
ATOM     32  H   UNL     1      -2.566  10.746  22.589  0.00  0.00    +0.000 HD
ENDBRANCH  20  28
BRANCH  20  33
ATOM     33  C   UNL     1      -0.412   9.137  21.576  0.00  0.00    +0.000 C 
ATOM     34  N   UNL     1      -0.637   7.915  21.790  0.00  0.00    +0.000 NA
ENDBRANCH  20  33
ENDBRANCH   1  21
TORSDOF 8
ENDMDL
MODEL 9
REMARK VINA RESULT:      -8.2      1.303      3.168
REMARK  Name = 
REMARK  9 active torsions:
REMARK  status: ('A' for Active; 'I' for Inactive)
REMARK    1  A    between atoms: C_1  and  C_2
REMARK    2  A    between atoms: C_7  and  C_8
REMARK    3  A    between atoms: C_8  and  C_9
REMARK    4  A    between atoms: C_11  and  C_12
REMARK    5  A    between atoms: C_15  and  C_16
REMARK    6  A    between atoms: C_18  and  C_19
REMARK    7  A    between atoms: C_19  and  O_21
REMARK    8  A    between atoms: C_23  and  C_24
REMARK    9  A    between atoms: C_24  and  O_26
REMARK                            x       y       z     vdW  Elec       q    Type
REMARK                         _______ _______ _______ _____ _____    ______ ____
ROOT
ATOM      1  C   UNL     1       1.004   9.604  19.083  0.00  0.00    +0.000 A 
ATOM      2  C   UNL     1       1.863   9.914  18.034  0.00  0.00    +0.000 A 
ATOM      3  C   UNL     1       2.668   8.774  17.764  0.00  0.00    +0.000 A 
ATOM      4  C   UNL     1       2.321   7.817  18.681  0.00  0.00    +0.000 A 
ATOM      5  O   UNL     1       1.315   8.309  19.453  0.00  0.00    +0.000 OA
ENDROOT
BRANCH   4   6
ATOM      6  C   UNL     1       2.795   6.467  18.996  0.00  0.00    +0.000 A 
ATOM      7  C   UNL     1       4.006   5.996  18.473  0.00  0.00    +0.000 A 
ATOM      8  C   UNL     1       4.501   4.727  18.814  0.00  0.00    +0.000 A 
ATOM      9  C   UNL     1       3.792   3.927  19.714  0.00  0.00    +0.000 A 
ATOM     10  C   UNL     1       2.558   4.360  20.228  0.00  0.00    +0.000 A 
ATOM     11  C   UNL     1       2.074   5.623  19.858  0.00  0.00    +0.000 A 
BRANCH   8  12
ATOM     12  C   UNL     1       5.806   4.320  18.232  0.00  0.00    +0.000 C 
ATOM     13  O   UNL     1       6.869   4.616  18.752  0.00  0.00    +0.000 OA
BRANCH  12  14
ATOM     14  O   UNL     1       5.724   3.656  17.061  0.00  0.00    +0.000 OA
ATOM     15  H   UNL     1       4.836   3.533  16.682  0.00  0.00    +0.000 HD
ENDBRANCH  12  14
ENDBRANCH   8  12
BRANCH  10  16
ATOM     16  C   UNL     1       1.837   3.436  21.153  0.00  0.00    +0.000 C 
ATOM     17  O   UNL     1       0.787   2.905  20.816  0.00  0.00    +0.000 OA
BRANCH  16  18
ATOM     18  O   UNL     1       2.371   3.238  22.372  0.00  0.00    +0.000 OA
ATOM     19  H   UNL     1       3.240   2.802  22.456  0.00  0.00    +0.000 HD
ENDBRANCH  16  18
ENDBRANCH  10  16
ENDBRANCH   4   6
BRANCH   1  21
ATOM     20  C   UNL     1      -0.170  10.579  21.019  0.00  0.00    +0.000 C 
ATOM     21  C   UNL     1      -0.023  10.410  19.683  0.00  0.00    +0.000 C 
BRANCH  20  28
ATOM     22  C   UNL     1      -5.897  14.930  22.565  0.00  0.00    +0.000 C 
ATOM     23  C   UNL     1      -4.780  13.939  22.731  0.00  0.00    +0.000 A 
ATOM     24  C   UNL     1      -4.525  13.342  23.974  0.00  0.00    +0.000 A 
ATOM     25  C   UNL     1      -3.485  12.417  24.151  0.00  0.00    +0.000 A 
ATOM     26  C   UNL     1      -2.712  12.117  23.028  0.00  0.00    +0.000 A 
ATOM     27  N   UNL     1      -1.638  11.282  22.834  0.00  0.00    +0.000 N 
ATOM     28  C   UNL     1      -1.253  11.360  21.511  0.00  0.00    +0.000 A 
ATOM     29  N   UNL     1      -2.032  12.211  20.864  0.00  0.00    +0.000 NA
ATOM     30  C   UNL     1      -2.935  12.685  21.782  0.00  0.00    +0.000 A 
ATOM     31  C   UNL     1      -3.980  13.608  21.622  0.00  0.00    +0.000 A 
ATOM     32  H   UNL     1      -1.217  10.708  23.551  0.00  0.00    +0.000 HD
ENDBRANCH  20  28
BRANCH  20  33
ATOM     33  C   UNL     1       0.888   9.947  21.909  0.00  0.00    +0.000 C 
ATOM     34  N   UNL     1       1.765   9.422  22.647  0.00  0.00    +0.000 NA
ENDBRANCH  20  33
ENDBRANCH   1  21
TORSDOF 8
ENDMDL
