MODEL 1
REMARK VINA RESULT:      -6.7      0.000      0.000
REMARK  Name = 
REMARK  3 active torsions:
REMARK  status: ('A' for Active; 'I' for Inactive)
REMARK    1  A    between atoms: C_2  and  C_3
REMARK    2  A    between atoms: C_4  and  N_5
REMARK    3  A    between atoms: C_14  and  N_15
REMARK                            x       y       z     vdW  Elec       q    Type
REMARK                         _______ _______ _______ _____ _____    ______ ____
ROOT
ATOM      1  C   UNL     1      -3.765  12.715  20.206  0.00  0.00    +0.000 A 
ATOM      2  C   UNL     1      -2.805  12.515  21.151  0.00  0.00    +0.000 A 
ATOM      3  C   UNL     1      -1.696  11.562  20.816  0.00  0.00    +0.000 A 
ATOM      4  C   UNL     1      -0.737  11.187  21.761  0.00  0.00    +0.000 A 
ATOM      5  C   UNL     1       0.332  10.349  21.441  0.00  0.00    +0.000 A 
ATOM      6  C   UNL     1       0.476   9.792  20.170  0.00  0.00    +0.000 A 
ATOM      7  C   UNL     1      -0.521  10.112  19.234  0.00  0.00    +0.000 A 
ATOM      8  C   UNL     1      -1.590  10.978  19.547  0.00  0.00    +0.000 A 
ATOM      9  N   UNL     1      -2.629  11.265  18.629  0.00  0.00    +0.000 N 
ATOM     10  C   UNL     1      -3.704  12.097  18.928  0.00  0.00    +0.000 A 
ATOM     11  N   UNL     1      -4.544  12.194  17.910  0.00  0.00    +0.000 NA
ATOM     12  C   UNL     1      -4.017  11.403  16.927  0.00  0.00    +0.000 A 
ATOM     13  C   UNL     1      -4.489  11.123  15.639  0.00  0.00    +0.000 A 
ATOM     14  C   UNL     1      -3.731  10.257  14.851  0.00  0.00    +0.000 A 
ATOM     15  C   UNL     1      -2.560   9.723  15.371  0.00  0.00    +0.000 A 
ATOM     16  N   UNL     1      -2.062   9.967  16.605  0.00  0.00    +0.000 NA
ATOM     17  C   UNL     1      -2.828  10.809  17.336  0.00  0.00    +0.000 A 
ENDROOT
BRANCH   2  18
ATOM     18  N   UNL     1      -2.755  13.090  22.444  0.00  0.00    +0.000 N 
ATOM     19  C   UNL     1      -3.256  12.358  23.632  0.00  0.00    +0.000 C 
ATOM     20  C   UNL     1      -3.939  13.330  24.602  0.00  0.00    +0.000 C 
ATOM     21  C   UNL     1      -3.048  14.518  24.953  0.00  0.00    +0.000 C 
ATOM     22  C   UNL     1      -2.468  15.168  23.700  0.00  0.00    +0.000 C 
ATOM     23  C   UNL     1      -1.781  14.135  22.814  0.00  0.00    +0.000 C 
ENDBRANCH   2  18
BRANCH   6  24
ATOM     24  N   UNL     1       1.544   8.966  19.875  0.00  0.00    +0.000 N 
ATOM     25  C   UNL     1       2.263   9.034  18.601  0.00  0.00    +0.000 C 
ATOM     26  C   UNL     1       2.102   7.715  17.851  0.00  0.00    +0.000 C 
ATOM     27  C   UNL     1       2.530   6.531  18.722  0.00  0.00    +0.000 C 
ATOM     28  C   UNL     1       1.799   6.545  20.063  0.00  0.00    +0.000 C 
ATOM     29  C   UNL     1       1.958   7.887  20.776  0.00  0.00    +0.000 C 
ENDBRANCH   6  24
BRANCH   1  31
ATOM     30  N   UNL     1      -5.873  14.428  20.802  0.00  0.00    +0.000 NA
ATOM     31  C   UNL     1      -4.917  13.651  20.532  0.00  0.00    +0.000 C 
ENDBRANCH   1  31
TORSDOF 3
ENDMDL
MODEL 2
REMARK VINA RESULT:      -6.7      3.500      6.984
REMARK  Name = 
REMARK  3 active torsions:
REMARK  status: ('A' for Active; 'I' for Inactive)
REMARK    1  A    between atoms: C_2  and  C_3
REMARK    2  A    between atoms: C_4  and  N_5
REMARK    3  A    between atoms: C_14  and  N_15
REMARK                            x       y       z     vdW  Elec       q    Type
REMARK                         _______ _______ _______ _____ _____    ______ ____
ROOT
ATOM      1  C   UNL     1       0.799  15.268  21.870  0.00  0.00    +0.000 A 
ATOM      2  C   UNL     1       1.076  14.879  20.596  0.00  0.00    +0.000 A 
ATOM      3  C   UNL     1       0.143  13.891  19.958  0.00  0.00    +0.000 A 
ATOM      4  C   UNL     1       0.410  13.329  18.706  0.00  0.00    +0.000 A 
ATOM      5  C   UNL     1      -0.481  12.457  18.081  0.00  0.00    +0.000 A 
ATOM      6  C   UNL     1      -1.668  12.051  18.693  0.00  0.00    +0.000 A 
ATOM      7  C   UNL     1      -1.909  12.561  19.978  0.00  0.00    +0.000 A 
ATOM      8  C   UNL     1      -1.022  13.462  20.605  0.00  0.00    +0.000 A 
ATOM      9  N   UNL     1      -1.229  13.940  21.922  0.00  0.00    +0.000 N 
ATOM     10  C   UNL     1      -0.353  14.810  22.564  0.00  0.00    +0.000 A 
ATOM     11  N   UNL     1      -0.762  15.097  23.790  0.00  0.00    +0.000 NA
ATOM     12  C   UNL     1      -1.923  14.395  23.959  0.00  0.00    +0.000 A 
ATOM     13  C   UNL     1      -2.779  14.314  25.064  0.00  0.00    +0.000 A 
ATOM     14  C   UNL     1      -3.903  13.496  24.948  0.00  0.00    +0.000 A 
ATOM     15  C   UNL     1      -4.118  12.812  23.759  0.00  0.00    +0.000 A 
ATOM     16  N   UNL     1      -3.324  12.862  22.665  0.00  0.00    +0.000 NA
ATOM     17  C   UNL     1      -2.246  13.664  22.821  0.00  0.00    +0.000 A 
ENDROOT
BRANCH   2  18
ATOM     18  N   UNL     1       2.180  15.283  19.805  0.00  0.00    +0.000 N 
ATOM     19  C   UNL     1       2.225  16.625  19.175  0.00  0.00    +0.000 C 
ATOM     20  C   UNL     1       2.878  16.535  17.790  0.00  0.00    +0.000 C 
ATOM     21  C   UNL     1       4.236  15.839  17.835  0.00  0.00    +0.000 C 
ATOM     22  C   UNL     1       4.158  14.516  18.591  0.00  0.00    +0.000 C 
ATOM     23  C   UNL     1       3.529  14.706  19.966  0.00  0.00    +0.000 C 
ENDBRANCH   2  18
BRANCH   6  24
ATOM     24  N   UNL     1      -2.536  11.187  18.053  0.00  0.00    +0.000 N 
ATOM     25  C   UNL     1      -2.071  10.099  17.192  0.00  0.00    +0.000 C 
ATOM     26  C   UNL     1      -2.561  10.329  15.765  0.00  0.00    +0.000 C 
ATOM     27  C   UNL     1      -4.078  10.520  15.728  0.00  0.00    +0.000 C 
ATOM     28  C   UNL     1      -4.517  11.621  16.692  0.00  0.00    +0.000 C 
ATOM     29  C   UNL     1      -3.989  11.374  18.105  0.00  0.00    +0.000 C 
ENDBRANCH   6  24
BRANCH   1  31
ATOM     30  N   UNL     1       2.531  17.053  23.115  0.00  0.00    +0.000 NA
ATOM     31  C   UNL     1       1.746  16.244  22.551  0.00  0.00    +0.000 C 
ENDBRANCH   1  31
TORSDOF 3
ENDMDL
MODEL 3
REMARK VINA RESULT:      -6.7      0.681      1.125
REMARK  Name = 
REMARK  3 active torsions:
REMARK  status: ('A' for Active; 'I' for Inactive)
REMARK    1  A    between atoms: C_2  and  C_3
REMARK    2  A    between atoms: C_4  and  N_5
REMARK    3  A    between atoms: C_14  and  N_15
REMARK                            x       y       z     vdW  Elec       q    Type
REMARK                         _______ _______ _______ _____ _____    ______ ____
ROOT
ATOM      1  C   UNL     1      -4.326  12.762  19.736  0.00  0.00    +0.000 A 
ATOM      2  C   UNL     1      -3.435  12.673  20.762  0.00  0.00    +0.000 A 
ATOM      3  C   UNL     1      -2.235  11.796  20.559  0.00  0.00    +0.000 A 
ATOM      4  C   UNL     1      -1.332  11.532  21.594  0.00  0.00    +0.000 A 
ATOM      5  C   UNL     1      -0.182  10.767  21.397  0.00  0.00    +0.000 A 
ATOM      6  C   UNL     1       0.106  10.173  20.167  0.00  0.00    +0.000 A 
ATOM      7  C   UNL     1      -0.830  10.380  19.142  0.00  0.00    +0.000 A 
ATOM      8  C   UNL     1      -1.982  11.173  19.330  0.00  0.00    +0.000 A 
ATOM      9  N   UNL     1      -2.961  11.344  18.321  0.00  0.00    +0.000 N 
ATOM     10  C   UNL     1      -4.114  12.102  18.496  0.00  0.00    +0.000 A 
ATOM     11  N   UNL     1      -4.872  12.095  17.411  0.00  0.00    +0.000 NA
ATOM     12  C   UNL     1      -4.209  11.310  16.510  0.00  0.00    +0.000 A 
ATOM     13  C   UNL     1      -4.551  10.945  15.202  0.00  0.00    +0.000 A 
ATOM     14  C   UNL     1      -3.670  10.110  14.515  0.00  0.00    +0.000 A 
ATOM     15  C   UNL     1      -2.510   9.687  15.150  0.00  0.00    +0.000 A 
ATOM     16  N   UNL     1      -2.134  10.016  16.407  0.00  0.00    +0.000 NA
ATOM     17  C   UNL     1      -3.017  10.825  17.038  0.00  0.00    +0.000 A 
ENDROOT
BRANCH   2  18
ATOM     18  N   UNL     1      -3.534  13.299  22.028  0.00  0.00    +0.000 N 
ATOM     19  C   UNL     1      -3.045  14.682  22.245  0.00  0.00    +0.000 C 
ATOM     20  C   UNL     1      -2.413  14.807  23.637  0.00  0.00    +0.000 C 
ATOM     21  C   UNL     1      -3.344  14.313  24.741  0.00  0.00    +0.000 C 
ATOM     22  C   UNL     1      -3.908  12.933  24.417  0.00  0.00    +0.000 C 
ATOM     23  C   UNL     1      -4.545  12.911  23.032  0.00  0.00    +0.000 C 
ENDBRANCH   2  18
BRANCH   6  24
ATOM     24  N   UNL     1       1.253   9.421  19.995  0.00  0.00    +0.000 N 
ATOM     25  C   UNL     1       2.050   9.471  18.768  0.00  0.00    +0.000 C 
ATOM     26  C   UNL     1       2.043   8.100  18.097  0.00  0.00    +0.000 C 
ATOM     27  C   UNL     1       2.500   7.010  19.068  0.00  0.00    +0.000 C 
ATOM     28  C   UNL     1       1.680   7.044  20.357  0.00  0.00    +0.000 C 
ATOM     29  C   UNL     1       1.686   8.435  20.989  0.00  0.00    +0.000 C 
ENDBRANCH   6  24
BRANCH   1  31
ATOM     30  N   UNL     1      -6.595  14.331  20.086  0.00  0.00    +0.000 NA
ATOM     31  C   UNL     1      -5.566  13.620  19.927  0.00  0.00    +0.000 C 
ENDBRANCH   1  31
TORSDOF 3
ENDMDL
MODEL 4
REMARK VINA RESULT:      -6.5      2.955      5.976
REMARK  Name = 
REMARK  3 active torsions:
REMARK  status: ('A' for Active; 'I' for Inactive)
REMARK    1  A    between atoms: C_2  and  C_3
REMARK    2  A    between atoms: C_4  and  N_5
REMARK    3  A    between atoms: C_14  and  N_15
REMARK                            x       y       z     vdW  Elec       q    Type
REMARK                         _______ _______ _______ _____ _____    ______ ____
ROOT
ATOM      1  C   UNL     1      -2.624  15.367  22.784  0.00  0.00    +0.000 A 
ATOM      2  C   UNL     1      -1.754  15.061  21.782  0.00  0.00    +0.000 A 
ATOM      3  C   UNL     1      -2.154  13.974  20.829  0.00  0.00    +0.000 A 
ATOM      4  C   UNL     1      -1.279  13.495  19.850  0.00  0.00    +0.000 A 
ATOM      5  C   UNL     1      -1.663  12.526  18.921  0.00  0.00    +0.000 A 
ATOM      6  C   UNL     1      -2.929  11.939  18.951  0.00  0.00    +0.000 A 
ATOM      7  C   UNL     1      -3.790  12.369  19.973  0.00  0.00    +0.000 A 
ATOM      8  C   UNL     1      -3.413  13.365  20.899  0.00  0.00    +0.000 A 
ATOM      9  N   UNL     1      -4.253  13.767  21.966  0.00  0.00    +0.000 N 
ATOM     10  C   UNL     1      -3.889  14.730  22.903  0.00  0.00    +0.000 A 
ATOM     11  N   UNL     1      -4.839  14.917  23.804  0.00  0.00    +0.000 NA
ATOM     12  C   UNL     1      -5.842  14.054  23.460  0.00  0.00    +0.000 A 
ATOM     13  C   UNL     1      -7.082  13.819  24.066  0.00  0.00    +0.000 A 
ATOM     14  C   UNL     1      -7.909  12.855  23.487  0.00  0.00    +0.000 A 
ATOM     15  C   UNL     1      -7.470  12.186  22.352  0.00  0.00    +0.000 A 
ATOM     16  N   UNL     1      -6.286  12.382  21.729  0.00  0.00    +0.000 NA
ATOM     17  C   UNL     1      -5.515  13.322  22.323  0.00  0.00    +0.000 A 
ENDROOT
BRANCH   2  18
ATOM     18  N   UNL     1      -0.482  15.641  21.557  0.00  0.00    +0.000 N 
ATOM     19  C   UNL     1      -0.342  16.949  20.872  0.00  0.00    +0.000 C 
ATOM     20  C   UNL     1       0.899  16.943  19.971  0.00  0.00    +0.000 C 
ATOM     21  C   UNL     1       2.157  16.514  20.722  0.00  0.00    +0.000 C 
ATOM     22  C   UNL     1       1.926  15.221  21.501  0.00  0.00    +0.000 C 
ATOM     23  C   UNL     1       0.695  15.330  22.392  0.00  0.00    +0.000 C 
ENDBRANCH   2  18
BRANCH   6  24
ATOM     24  N   UNL     1      -3.289  10.983  18.019  0.00  0.00    +0.000 N 
ATOM     25  C   UNL     1      -2.563   9.721  17.867  0.00  0.00    +0.000 C 
ATOM     26  C   UNL     1      -1.942   9.652  16.474  0.00  0.00    +0.000 C 
ATOM     27  C   UNL     1      -2.998   9.875  15.390  0.00  0.00    +0.000 C 
ATOM     28  C   UNL     1      -3.771  11.170  15.633  0.00  0.00    +0.000 C 
ATOM     29  C   UNL     1      -4.357  11.219  17.044  0.00  0.00    +0.000 C 
ENDBRANCH   6  24
BRANCH   1  31
ATOM     30  N   UNL     1      -1.903  17.336  24.610  0.00  0.00    +0.000 NA
ATOM     31  C   UNL     1      -2.230  16.443  23.782  0.00  0.00    +0.000 C 
ENDBRANCH   1  31
TORSDOF 3
ENDMDL
MODEL 5
REMARK VINA RESULT:      -6.4      2.779      5.593
REMARK  Name = 
REMARK  3 active torsions:
REMARK  status: ('A' for Active; 'I' for Inactive)
REMARK    1  A    between atoms: C_2  and  C_3
REMARK    2  A    between atoms: C_4  and  N_5
REMARK    3  A    between atoms: C_14  and  N_15
REMARK                            x       y       z     vdW  Elec       q    Type
REMARK                         _______ _______ _______ _____ _____    ______ ____
ROOT
ATOM      1  C   UNL     1      -2.595  15.249  22.583  0.00  0.00    +0.000 A 
ATOM      2  C   UNL     1      -3.789  14.753  22.156  0.00  0.00    +0.000 A 
ATOM      3  C   UNL     1      -3.762  13.773  21.019  0.00  0.00    +0.000 A 
ATOM      4  C   UNL     1      -4.936  13.307  20.421  0.00  0.00    +0.000 A 
ATOM      5  C   UNL     1      -4.921  12.352  19.404  0.00  0.00    +0.000 A 
ATOM      6  C   UNL     1      -3.728  11.845  18.887  0.00  0.00    +0.000 A 
ATOM      7  C   UNL     1      -2.544  12.358  19.439  0.00  0.00    +0.000 A 
ATOM      8  C   UNL     1      -2.555  13.307  20.483  0.00  0.00    +0.000 A 
ATOM      9  N   UNL     1      -1.367  13.871  21.010  0.00  0.00    +0.000 N 
ATOM     10  C   UNL     1      -1.360  14.825  22.023  0.00  0.00    +0.000 A 
ATOM     11  N   UNL     1      -0.129  15.202  22.329  0.00  0.00    +0.000 NA
ATOM     12  C   UNL     1       0.687  14.490  21.495  0.00  0.00    +0.000 A 
ATOM     13  C   UNL     1       2.082  14.493  21.372  0.00  0.00    +0.000 A 
ATOM     14  C   UNL     1       2.645  13.654  20.410  0.00  0.00    +0.000 A 
ATOM     15  C   UNL     1       1.809  12.864  19.633  0.00  0.00    +0.000 A 
ATOM     16  N   UNL     1       0.460  12.822  19.718  0.00  0.00    +0.000 NA
ATOM     17  C   UNL     1      -0.045  13.652  20.661  0.00  0.00    +0.000 A 
ENDROOT
BRANCH   2  18
ATOM     18  N   UNL     1      -5.073  15.088  22.650  0.00  0.00    +0.000 N 
ATOM     19  C   UNL     1      -5.595  14.493  23.903  0.00  0.00    +0.000 C 
ATOM     20  C   UNL     1      -7.100  14.225  23.774  0.00  0.00    +0.000 C 
ATOM     21  C   UNL     1      -7.871  15.463  23.323  0.00  0.00    +0.000 C 
ATOM     22  C   UNL     1      -7.227  16.102  22.095  0.00  0.00    +0.000 C 
ATOM     23  C   UNL     1      -5.744  16.362  22.326  0.00  0.00    +0.000 C 
ENDBRANCH   2  18
BRANCH   6  24
ATOM     24  N   UNL     1      -3.737  10.897  17.881  0.00  0.00    +0.000 N 
ATOM     25  C   UNL     1      -2.873   9.716  17.905  0.00  0.00    +0.000 C 
ATOM     26  C   UNL     1      -1.912   9.760  16.720  0.00  0.00    +0.000 C 
ATOM     27  C   UNL     1      -2.670   9.925  15.402  0.00  0.00    +0.000 C 
ATOM     28  C   UNL     1      -3.605  11.132  15.454  0.00  0.00    +0.000 C 
ATOM     29  C   UNL     1      -4.536  11.070  16.664  0.00  0.00    +0.000 C 
ENDBRANCH   6  24
BRANCH   1  31
ATOM     30  N   UNL     1      -2.599  17.111  24.649  0.00  0.00    +0.000 NA
ATOM     31  C   UNL     1      -2.597  16.266  23.712  0.00  0.00    +0.000 C 
ENDBRANCH   1  31
TORSDOF 3
ENDMDL
MODEL 6
REMARK VINA RESULT:      -6.4      2.977      6.717
REMARK  Name = 
REMARK  3 active torsions:
REMARK  status: ('A' for Active; 'I' for Inactive)
REMARK    1  A    between atoms: C_2  and  C_3
REMARK    2  A    between atoms: C_4  and  N_5
REMARK    3  A    between atoms: C_14  and  N_15
REMARK                            x       y       z     vdW  Elec       q    Type
REMARK                         _______ _______ _______ _____ _____    ______ ____
ROOT
ATOM      1  C   UNL     1      -4.467  12.281  19.712  0.00  0.00    +0.000 A 
ATOM      2  C   UNL     1      -3.420  12.021  18.881  0.00  0.00    +0.000 A 
ATOM      3  C   UNL     1      -2.117  12.703  19.177  0.00  0.00    +0.000 A 
ATOM      4  C   UNL     1      -1.023  12.607  18.313  0.00  0.00    +0.000 A 
ATOM      5  C   UNL     1       0.210  13.189  18.611  0.00  0.00    +0.000 A 
ATOM      6  C   UNL     1       0.407  13.947  19.766  0.00  0.00    +0.000 A 
ATOM      7  C   UNL     1      -0.707  14.102  20.605  0.00  0.00    +0.000 A 
ATOM      8  C   UNL     1      -1.949  13.496  20.320  0.00  0.00    +0.000 A 
ATOM      9  N   UNL     1      -3.094  13.689  21.131  0.00  0.00    +0.000 N 
ATOM     10  C   UNL     1      -4.332  13.119  20.852  0.00  0.00    +0.000 A 
ATOM     11  N   UNL     1      -5.241  13.462  21.751  0.00  0.00    +0.000 NA
ATOM     12  C   UNL     1      -4.590  14.279  22.632  0.00  0.00    +0.000 A 
ATOM     13  C   UNL     1      -5.061  14.938  23.774  0.00  0.00    +0.000 A 
ATOM     14  C   UNL     1      -4.154  15.727  24.482  0.00  0.00    +0.000 A 
ATOM     15  C   UNL     1      -2.844  15.817  24.030  0.00  0.00    +0.000 A 
ATOM     16  N   UNL     1      -2.342  15.196  22.939  0.00  0.00    +0.000 NA
ATOM     17  C   UNL     1      -3.254  14.445  22.281  0.00  0.00    +0.000 A 
ENDROOT
BRANCH   2  18
ATOM     18  N   UNL     1      -3.435  11.192  17.733  0.00  0.00    +0.000 N 
ATOM     19  C   UNL     1      -3.039   9.765  17.808  0.00  0.00    +0.000 C 
ATOM     20  C   UNL     1      -2.275   9.361  16.541  0.00  0.00    +0.000 C 
ATOM     21  C   UNL     1      -3.040   9.712  15.268  0.00  0.00    +0.000 C 
ATOM     22  C   UNL     1      -3.522  11.160  15.289  0.00  0.00    +0.000 C 
ATOM     23  C   UNL     1      -4.298  11.461  16.566  0.00  0.00    +0.000 C 
ENDBRANCH   2  18
BRANCH   6  24
ATOM     24  N   UNL     1       1.638  14.512  20.042  0.00  0.00    +0.000 N 
ATOM     25  C   UNL     1       1.791  15.680  20.911  0.00  0.00    +0.000 C 
ATOM     26  C   UNL     1       2.361  16.846  20.108  0.00  0.00    +0.000 C 
ATOM     27  C   UNL     1       3.659  16.445  19.403  0.00  0.00    +0.000 C 
ATOM     28  C   UNL     1       3.461  15.185  18.562  0.00  0.00    +0.000 C 
ATOM     29  C   UNL     1       2.865  14.046  19.389  0.00  0.00    +0.000 C 
ENDBRANCH   6  24
BRANCH   1  31
ATOM     30  N   UNL     1      -6.918  11.085  19.170  0.00  0.00    +0.000 NA
ATOM     31  C   UNL     1      -5.806  11.627  19.416  0.00  0.00    +0.000 C 
ENDBRANCH   1  31
TORSDOF 3
ENDMDL
MODEL 7
REMARK VINA RESULT:      -6.3      2.040      3.414
REMARK  Name = 
REMARK  3 active torsions:
REMARK  status: ('A' for Active; 'I' for Inactive)
REMARK    1  A    between atoms: C_2  and  C_3
REMARK    2  A    between atoms: C_4  and  N_5
REMARK    3  A    between atoms: C_14  and  N_15
REMARK                            x       y       z     vdW  Elec       q    Type
REMARK                         _______ _______ _______ _____ _____    ______ ____
ROOT
ATOM      1  C   UNL     1      -4.796  14.744  22.515  0.00  0.00    +0.000 A 
ATOM      2  C   UNL     1      -3.500  14.795  22.926  0.00  0.00    +0.000 A 
ATOM      3  C   UNL     1      -2.517  13.906  22.222  0.00  0.00    +0.000 A 
ATOM      4  C   UNL     1      -1.193  13.786  22.654  0.00  0.00    +0.000 A 
ATOM      5  C   UNL     1      -0.258  13.008  21.969  0.00  0.00    +0.000 A 
ATOM      6  C   UNL     1      -0.605  12.260  20.843  0.00  0.00    +0.000 A 
ATOM      7  C   UNL     1      -1.949  12.325  20.444  0.00  0.00    +0.000 A 
ATOM      8  C   UNL     1      -2.892  13.129  21.119  0.00  0.00    +0.000 A 
ATOM      9  N   UNL     1      -4.261  13.160  20.758  0.00  0.00    +0.000 N 
ATOM     10  C   UNL     1      -5.210  13.928  21.427  0.00  0.00    +0.000 A 
ATOM     11  N   UNL     1      -6.417  13.774  20.907  0.00  0.00    +0.000 NA
ATOM     12  C   UNL     1      -6.261  12.881  19.884  0.00  0.00    +0.000 A 
ATOM     13  C   UNL     1      -7.202  12.346  18.997  0.00  0.00    +0.000 A 
ATOM     14  C   UNL     1      -6.745  11.433  18.046  0.00  0.00    +0.000 A 
ATOM     15  C   UNL     1      -5.396  11.104  18.023  0.00  0.00    +0.000 A 
ATOM     16  N   UNL     1      -4.450  11.598  18.853  0.00  0.00    +0.000 NA
ATOM     17  C   UNL     1      -4.936  12.477  19.760  0.00  0.00    +0.000 A 
ENDROOT
BRANCH   2  18
ATOM     18  N   UNL     1      -2.974  15.581  23.980  0.00  0.00    +0.000 N 
ATOM     19  C   UNL     1      -2.880  17.057  23.868  0.00  0.00    +0.000 C 
ATOM     20  C   UNL     1      -1.596  17.556  24.543  0.00  0.00    +0.000 C 
ATOM     21  C   UNL     1      -1.460  17.047  25.976  0.00  0.00    +0.000 C 
ATOM     22  C   UNL     1      -1.677  15.538  26.053  0.00  0.00    +0.000 C 
ATOM     23  C   UNL     1      -2.989  15.138  25.388  0.00  0.00    +0.000 C 
ENDBRANCH   2  18
BRANCH   6  24
ATOM     24  N   UNL     1       0.339  11.499  20.180  0.00  0.00    +0.000 N 
ATOM     25  C   UNL     1       0.454  11.484  18.721  0.00  0.00    +0.000 C 
ATOM     26  C   UNL     1       0.161  10.081  18.197  0.00  0.00    +0.000 C 
ATOM     27  C   UNL     1       1.051   9.042  18.882  0.00  0.00    +0.000 C 
ATOM     28  C   UNL     1       0.943   9.143  20.403  0.00  0.00    +0.000 C 
ATOM     29  C   UNL     1       1.217  10.565  20.891  0.00  0.00    +0.000 C 
ENDBRANCH   6  24
BRANCH   1  31
ATOM     30  N   UNL     1      -6.666  16.331  23.827  0.00  0.00    +0.000 NA
ATOM     31  C   UNL     1      -5.818  15.611  23.232  0.00  0.00    +0.000 C 
ENDBRANCH   1  31
TORSDOF 3
ENDMDL
MODEL 8
REMARK VINA RESULT:      -6.2      2.856      3.816
REMARK  Name = 
REMARK  3 active torsions:
REMARK  status: ('A' for Active; 'I' for Inactive)
REMARK    1  A    between atoms: C_2  and  C_3
REMARK    2  A    between atoms: C_4  and  N_5
REMARK    3  A    between atoms: C_14  and  N_15
REMARK                            x       y       z     vdW  Elec       q    Type
REMARK                         _______ _______ _______ _____ _____    ______ ____
ROOT
ATOM      1  C   UNL     1      -4.325  13.576  21.134  0.00  0.00    +0.000 A 
ATOM      2  C   UNL     1      -3.382  14.278  21.819  0.00  0.00    +0.000 A 
ATOM      3  C   UNL     1      -1.948  14.073  21.427  0.00  0.00    +0.000 A 
ATOM      4  C   UNL     1      -0.897  14.643  22.152  0.00  0.00    +0.000 A 
ATOM      5  C   UNL     1       0.435  14.505  21.758  0.00  0.00    +0.000 A 
ATOM      6  C   UNL     1       0.800  13.745  20.647  0.00  0.00    +0.000 A 
ATOM      7  C   UNL     1      -0.246  13.115  19.953  0.00  0.00    +0.000 A 
ATOM      8  C   UNL     1      -1.596  13.271  20.334  0.00  0.00    +0.000 A 
ATOM      9  N   UNL     1      -2.653  12.598  19.675  0.00  0.00    +0.000 N 
ATOM     10  C   UNL     1      -3.988  12.720  20.050  0.00  0.00    +0.000 A 
ATOM     11  N   UNL     1      -4.779  11.983  19.288  0.00  0.00    +0.000 NA
ATOM     12  C   UNL     1      -3.949  11.357  18.400  0.00  0.00    +0.000 A 
ATOM     13  C   UNL     1      -4.238  10.454  17.371  0.00  0.00    +0.000 A 
ATOM     14  C   UNL     1      -3.166   9.965  16.623  0.00  0.00    +0.000 A 
ATOM     15  C   UNL     1      -1.882  10.393  16.929  0.00  0.00    +0.000 A 
ATOM     16  N   UNL     1      -1.553  11.267  17.907  0.00  0.00    +0.000 NA
ATOM     17  C   UNL     1      -2.620  11.714  18.609  0.00  0.00    +0.000 A 
ENDROOT
BRANCH   2  18
ATOM     18  N   UNL     1      -3.603  15.169  22.898  0.00  0.00    +0.000 N 
ATOM     19  C   UNL     1      -4.125  16.538  22.671  0.00  0.00    +0.000 C 
ATOM     20  C   UNL     1      -3.463  17.522  23.644  0.00  0.00    +0.000 C 
ATOM     21  C   UNL     1      -3.574  17.064  25.095  0.00  0.00    +0.000 C 
ATOM     22  C   UNL     1      -3.130  15.612  25.255  0.00  0.00    +0.000 C 
ATOM     23  C   UNL     1      -3.863  14.704  24.275  0.00  0.00    +0.000 C 
ENDBRANCH   2  18
BRANCH   6  24
ATOM     24  N   UNL     1       2.126  13.625  20.275  0.00  0.00    +0.000 N 
ATOM     25  C   UNL     1       3.226  14.083  21.125  0.00  0.00    +0.000 C 
ATOM     26  C   UNL     1       3.988  15.200  20.419  0.00  0.00    +0.000 C 
ATOM     27  C   UNL     1       4.446  14.759  19.027  0.00  0.00    +0.000 C 
ATOM     28  C   UNL     1       3.272  14.230  18.205  0.00  0.00    +0.000 C 
ATOM     29  C   UNL     1       2.515  13.131  18.951  0.00  0.00    +0.000 C 
ENDBRANCH   6  24
BRANCH   1  31
ATOM     30  N   UNL     1      -6.991  13.880  21.863  0.00  0.00    +0.000 NA
ATOM     31  C   UNL     1      -5.782  13.742  21.532  0.00  0.00    +0.000 C 
ENDBRANCH   1  31
TORSDOF 3
ENDMDL
MODEL 9
REMARK VINA RESULT:      -6.2      3.845      6.028
REMARK  Name = 
REMARK  3 active torsions:
REMARK  status: ('A' for Active; 'I' for Inactive)
REMARK    1  A    between atoms: C_2  and  C_3
REMARK    2  A    between atoms: C_4  and  N_5
REMARK    3  A    between atoms: C_14  and  N_15
REMARK                            x       y       z     vdW  Elec       q    Type
REMARK                         _______ _______ _______ _____ _____    ______ ____
ROOT
ATOM      1  C   UNL     1      -2.399  13.241  22.758  0.00  0.00    +0.000 A 
ATOM      2  C   UNL     1      -2.383  14.602  22.785  0.00  0.00    +0.000 A 
ATOM      3  C   UNL     1      -1.397  15.297  21.893  0.00  0.00    +0.000 A 
ATOM      4  C   UNL     1      -1.208  16.682  21.943  0.00  0.00    +0.000 A 
ATOM      5  C   UNL     1      -0.338  17.342  21.075  0.00  0.00    +0.000 A 
ATOM      6  C   UNL     1       0.438  16.652  20.143  0.00  0.00    +0.000 A 
ATOM      7  C   UNL     1       0.302  15.256  20.133  0.00  0.00    +0.000 A 
ATOM      8  C   UNL     1      -0.595  14.585  20.992  0.00  0.00    +0.000 A 
ATOM      9  N   UNL     1      -0.701  13.174  21.029  0.00  0.00    +0.000 N 
ATOM     10  C   UNL     1      -1.562  12.495  21.885  0.00  0.00    +0.000 A 
ATOM     11  N   UNL     1      -1.465  11.183  21.736  0.00  0.00    +0.000 NA
ATOM     12  C   UNL     1      -0.516  10.997  20.770  0.00  0.00    +0.000 A 
ATOM     13  C   UNL     1      -0.004   9.816  20.219  0.00  0.00    +0.000 A 
ATOM     14  C   UNL     1       0.982   9.937  19.240  0.00  0.00    +0.000 A 
ATOM     15  C   UNL     1       1.402  11.205  18.861  0.00  0.00    +0.000 A 
ATOM     16  N   UNL     1       0.934  12.372  19.358  0.00  0.00    +0.000 NA
ATOM     17  C   UNL     1      -0.018  12.209  20.306  0.00  0.00    +0.000 A 
ENDROOT
BRANCH   2  18
ATOM     18  N   UNL     1      -3.181  15.444  23.597  0.00  0.00    +0.000 N 
ATOM     19  C   UNL     1      -4.605  15.701  23.274  0.00  0.00    +0.000 C 
ATOM     20  C   UNL     1      -4.966  17.155  23.600  0.00  0.00    +0.000 C 
ATOM     21  C   UNL     1      -4.590  17.538  25.029  0.00  0.00    +0.000 C 
ATOM     22  C   UNL     1      -3.148  17.152  25.347  0.00  0.00    +0.000 C 
ATOM     23  C   UNL     1      -2.890  15.685  25.024  0.00  0.00    +0.000 C 
ENDBRANCH   2  18
BRANCH   6  24
ATOM     24  N   UNL     1       1.292  17.329  19.292  0.00  0.00    +0.000 N 
ATOM     25  C   UNL     1       0.854  18.461  18.475  0.00  0.00    +0.000 C 
ATOM     26  C   UNL     1       0.994  18.110  16.996  0.00  0.00    +0.000 C 
ATOM     27  C   UNL     1       2.417  17.648  16.673  0.00  0.00    +0.000 C 
ATOM     28  C   UNL     1       2.847  16.510  17.597  0.00  0.00    +0.000 C 
ATOM     29  C   UNL     1       2.671  16.884  19.068  0.00  0.00    +0.000 C 
ENDBRANCH   6  24
BRANCH   1  31
ATOM     30  N   UNL     1      -4.169  11.905  24.436  0.00  0.00    +0.000 NA
ATOM     31  C   UNL     1      -3.367  12.510  23.675  0.00  0.00    +0.000 C 
ENDBRANCH   1  31
TORSDOF 3
ENDMDL
