MODEL 1
REMARK VINA RESULT:      -7.9      0.000      0.000
REMARK  Name = 
REMARK  4 active torsions:
REMARK  status: ('A' for Active; 'I' for Inactive)
REMARK    1  A    between atoms: C_1  and  C_2
REMARK    2  A    between atoms: C_2  and  N_3
REMARK    3  A    between atoms: C_2  and  C_16
REMARK    4  A    between atoms: C_8  and  N_9
REMARK                            x       y       z     vdW  Elec       q    Type
REMARK                         _______ _______ _______ _____ _____    ______ ____
ROOT
ATOM      1  N   UNL     1       4.580   6.895  18.168  0.00  0.00    +0.000 N 
ATOM      2  C   UNL     1       5.570   6.127  17.572  0.00  0.00    +0.000 A 
ATOM      3  N   UNL     1       6.478   5.629  18.414  0.00  0.00    +0.000 NA
ATOM      4  C   UNL     1       7.395   4.788  17.903  0.00  0.00    +0.000 A 
ATOM      5  C   UNL     1       7.401   4.393  16.594  0.00  0.00    +0.000 A 
ATOM      6  C   UNL     1       6.453   4.983  15.787  0.00  0.00    +0.000 A 
ATOM      7  N   UNL     1       5.563   5.883  16.250  0.00  0.00    +0.000 NA
ATOM      8  H   UNL     1       4.657   6.670  19.158  0.00  0.00    +0.000 HD
ENDROOT
BRANCH   6   9
ATOM      9  N   UNL     1       6.446   4.679  14.424  0.00  0.00    +0.000 N 
ATOM     10  C   UNL     1       5.710   3.590  13.880  0.00  0.00    +0.000 C 
ATOM     11  C   UNL     1       6.006   3.745  12.408  0.00  0.00    +0.000 C 
ATOM     12  O   UNL     1       7.284   4.392  12.363  0.00  0.00    +0.000 OA
ATOM     13  C   UNL     1       7.455   5.045  13.559  0.00  0.00    +0.000 C 
ATOM     14  O   UNL     1       8.406   5.778  13.785  0.00  0.00    +0.000 OA
ENDBRANCH   6   9
BRANCH   1  16
ATOM     15  C   UNL     1       2.465   8.041  17.686  0.00  0.00    +0.000 C 
ATOM     16  C   UNL     1       3.230   6.716  17.643  0.00  0.00    +0.000 C 
BRANCH  16  17
ATOM     17  C   UNL     1       2.510   5.663  18.484  0.00  0.00    +0.000 A 
ATOM     18  C   UNL     1       1.911   4.550  17.867  0.00  0.00    +0.000 A 
ATOM     19  C   UNL     1       1.235   3.589  18.626  0.00  0.00    +0.000 A 
ATOM     20  C   UNL     1       1.152   3.727  20.009  0.00  0.00    +0.000 A 
ATOM     21  C   UNL     1       1.747   4.816  20.636  0.00  0.00    +0.000 A 
ATOM     22  C   UNL     1       2.420   5.777  19.884  0.00  0.00    +0.000 A 
ENDBRANCH  16  17
ENDBRANCH   1  16
TORSDOF 3
ENDMDL
MODEL 2
REMARK VINA RESULT:      -7.9      0.300      1.095
REMARK  Name = 
REMARK  4 active torsions:
REMARK  status: ('A' for Active; 'I' for Inactive)
REMARK    1  A    between atoms: C_1  and  C_2
REMARK    2  A    between atoms: C_2  and  N_3
REMARK    3  A    between atoms: C_2  and  C_16
REMARK    4  A    between atoms: C_8  and  N_9
REMARK                            x       y       z     vdW  Elec       q    Type
REMARK                         _______ _______ _______ _____ _____    ______ ____
ROOT
ATOM      1  N   UNL     1       4.329   6.699  18.314  0.00  0.00    +0.000 N 
ATOM      2  C   UNL     1       5.356   5.987  17.711  0.00  0.00    +0.000 A 
ATOM      3  N   UNL     1       6.278   5.511  18.551  0.00  0.00    +0.000 NA
ATOM      4  C   UNL     1       7.235   4.723  18.031  0.00  0.00    +0.000 A 
ATOM      5  C   UNL     1       7.270   4.356  16.714  0.00  0.00    +0.000 A 
ATOM      6  C   UNL     1       6.304   4.921  15.911  0.00  0.00    +0.000 A 
ATOM      7  N   UNL     1       5.372   5.772  16.384  0.00  0.00    +0.000 NA
ATOM      8  H   UNL     1       4.407   6.456  19.299  0.00  0.00    +0.000 HD
ENDROOT
BRANCH   6   9
ATOM      9  N   UNL     1       6.322   4.647  14.541  0.00  0.00    +0.000 N 
ATOM     10  C   UNL     1       5.580   3.583  13.958  0.00  0.00    +0.000 C 
ATOM     11  C   UNL     1       5.912   3.764  12.497  0.00  0.00    +0.000 C 
ATOM     12  O   UNL     1       7.200   4.389  12.494  0.00  0.00    +0.000 OA
ATOM     13  C   UNL     1       7.356   5.014  13.707  0.00  0.00    +0.000 C 
ATOM     14  O   UNL     1       8.314   5.725  13.970  0.00  0.00    +0.000 OA
ENDBRANCH   6   9
BRANCH   1  16
ATOM     15  C   UNL     1       2.165   7.758  17.849  0.00  0.00    +0.000 C 
ATOM     16  C   UNL     1       2.992   6.472  17.772  0.00  0.00    +0.000 C 
BRANCH  16  17
ATOM     17  C   UNL     1       2.318   5.361  18.574  0.00  0.00    +0.000 A 
ATOM     18  C   UNL     1       2.209   5.461  19.973  0.00  0.00    +0.000 A 
ATOM     19  C   UNL     1       1.608   4.442  20.718  0.00  0.00    +0.000 A 
ATOM     20  C   UNL     1       1.108   3.311  20.076  0.00  0.00    +0.000 A 
ATOM     21  C   UNL     1       1.199   3.201  18.692  0.00  0.00    +0.000 A 
ATOM     22  C   UNL     1       1.798   4.213  17.945  0.00  0.00    +0.000 A 
ENDBRANCH  16  17
ENDBRANCH   1  16
TORSDOF 3
ENDMDL
MODEL 3
REMARK VINA RESULT:      -7.1      3.053      6.659
REMARK  Name = 
REMARK  4 active torsions:
REMARK  status: ('A' for Active; 'I' for Inactive)
REMARK    1  A    between atoms: C_1  and  C_2
REMARK    2  A    between atoms: C_2  and  N_3
REMARK    3  A    between atoms: C_2  and  C_16
REMARK    4  A    between atoms: C_8  and  N_9
REMARK                            x       y       z     vdW  Elec       q    Type
REMARK                         _______ _______ _______ _____ _____    ______ ____
ROOT
ATOM      1  N   UNL     1       6.058   6.134  17.320  0.00  0.00    +0.000 N 
ATOM      2  C   UNL     1       4.748   6.325  17.737  0.00  0.00    +0.000 A 
ATOM      3  N   UNL     1       4.162   7.426  17.262  0.00  0.00    +0.000 NA
ATOM      4  C   UNL     1       2.860   7.601  17.546  0.00  0.00    +0.000 A 
ATOM      5  C   UNL     1       2.116   6.690  18.245  0.00  0.00    +0.000 A 
ATOM      6  C   UNL     1       2.808   5.602  18.729  0.00  0.00    +0.000 A 
ATOM      7  N   UNL     1       4.128   5.429  18.524  0.00  0.00    +0.000 NA
ATOM      8  H   UNL     1       6.160   6.771  16.532  0.00  0.00    +0.000 HD
ENDROOT
BRANCH   6   9
ATOM      9  N   UNL     1       2.127   4.665  19.511  0.00  0.00    +0.000 N 
ATOM     10  C   UNL     1       2.460   4.406  20.870  0.00  0.00    +0.000 C 
ATOM     11  C   UNL     1       1.414   3.381  21.235  0.00  0.00    +0.000 C 
ATOM     12  O   UNL     1       1.095   2.734  19.997  0.00  0.00    +0.000 OA
ATOM     13  C   UNL     1       1.431   3.597  18.984  0.00  0.00    +0.000 C 
ATOM     14  O   UNL     1       1.181   3.374  17.809  0.00  0.00    +0.000 OA
ENDBRANCH   6   9
BRANCH   1  16
ATOM     15  C   UNL     1       7.775   4.411  17.644  0.00  0.00    +0.000 C 
ATOM     16  C   UNL     1       6.431   4.760  16.998  0.00  0.00    +0.000 C 
BRANCH  16  17
ATOM     17  C   UNL     1       6.522   4.617  15.480  0.00  0.00    +0.000 A 
ATOM     18  C   UNL     1       5.572   3.850  14.781  0.00  0.00    +0.000 A 
ATOM     19  C   UNL     1       5.656   3.699  13.393  0.00  0.00    +0.000 A 
ATOM     20  C   UNL     1       6.688   4.313  12.687  0.00  0.00    +0.000 A 
ATOM     21  C   UNL     1       7.630   5.083  13.362  0.00  0.00    +0.000 A 
ATOM     22  C   UNL     1       7.551   5.235  14.744  0.00  0.00    +0.000 A 
ENDBRANCH  16  17
ENDBRANCH   1  16
TORSDOF 3
ENDMDL
MODEL 4
REMARK VINA RESULT:      -7.1      3.064      6.654
REMARK  Name = 
REMARK  4 active torsions:
REMARK  status: ('A' for Active; 'I' for Inactive)
REMARK    1  A    between atoms: C_1  and  C_2
REMARK    2  A    between atoms: C_2  and  N_3
REMARK    3  A    between atoms: C_2  and  C_16
REMARK    4  A    between atoms: C_8  and  N_9
REMARK                            x       y       z     vdW  Elec       q    Type
REMARK                         _______ _______ _______ _____ _____    ______ ____
ROOT
ATOM      1  N   UNL     1       6.068   6.104  17.480  0.00  0.00    +0.000 N 
ATOM      2  C   UNL     1       4.745   6.278  17.859  0.00  0.00    +0.000 A 
ATOM      3  N   UNL     1       4.161   7.375  17.374  0.00  0.00    +0.000 NA
ATOM      4  C   UNL     1       2.849   7.535  17.621  0.00  0.00    +0.000 A 
ATOM      5  C   UNL     1       2.095   6.611  18.292  0.00  0.00    +0.000 A 
ATOM      6  C   UNL     1       2.784   5.527  18.790  0.00  0.00    +0.000 A 
ATOM      7  N   UNL     1       4.112   5.370  18.623  0.00  0.00    +0.000 NA
ATOM      8  H   UNL     1       6.186   6.746  16.699  0.00  0.00    +0.000 HD
ENDROOT
BRANCH   6   9
ATOM      9  N   UNL     1       2.091   4.579  19.547  0.00  0.00    +0.000 N 
ATOM     10  C   UNL     1       2.385   4.318  20.914  0.00  0.00    +0.000 C 
ATOM     11  C   UNL     1       1.341   3.278  21.242  0.00  0.00    +0.000 C 
ATOM     12  O   UNL     1       1.069   2.632  19.992  0.00  0.00    +0.000 OA
ATOM     13  C   UNL     1       1.426   3.505  18.993  0.00  0.00    +0.000 C 
ATOM     14  O   UNL     1       1.216   3.283  17.810  0.00  0.00    +0.000 OA
ENDBRANCH   6   9
BRANCH   1  16
ATOM     15  C   UNL     1       7.853   4.440  17.739  0.00  0.00    +0.000 C 
ATOM     16  C   UNL     1       6.466   4.736  17.161  0.00  0.00    +0.000 C 
BRANCH  16  17
ATOM     17  C   UNL     1       6.478   4.567  15.643  0.00  0.00    +0.000 A 
ATOM     18  C   UNL     1       7.521   5.118  14.877  0.00  0.00    +0.000 A 
ATOM     19  C   UNL     1       7.534   4.984  13.485  0.00  0.00    +0.000 A 
ATOM     20  C   UNL     1       6.506   4.298  12.842  0.00  0.00    +0.000 A 
ATOM     21  C   UNL     1       5.472   3.739  13.586  0.00  0.00    +0.000 A 
ATOM     22  C   UNL     1       5.455   3.871  14.973  0.00  0.00    +0.000 A 
ENDBRANCH  16  17
ENDBRANCH   1  16
TORSDOF 3
ENDMDL
MODEL 5
REMARK VINA RESULT:      -6.9      3.128      6.910
REMARK  Name = 
REMARK  4 active torsions:
REMARK  status: ('A' for Active; 'I' for Inactive)
REMARK    1  A    between atoms: C_1  and  C_2
REMARK    2  A    between atoms: C_2  and  N_3
REMARK    3  A    between atoms: C_2  and  C_16
REMARK    4  A    between atoms: C_8  and  N_9
REMARK                            x       y       z     vdW  Elec       q    Type
REMARK                         _______ _______ _______ _____ _____    ______ ____
ROOT
ATOM      1  N   UNL     1       5.390   5.688  16.229  0.00  0.00    +0.000 N 
ATOM      2  C   UNL     1       4.405   6.079  17.125  0.00  0.00    +0.000 A 
ATOM      3  N   UNL     1       4.083   7.373  17.077  0.00  0.00    +0.000 NA
ATOM      4  C   UNL     1       3.058   7.781  17.847  0.00  0.00    +0.000 A 
ATOM      5  C   UNL     1       2.318   6.930  18.621  0.00  0.00    +0.000 A 
ATOM      6  C   UNL     1       2.741   5.620  18.641  0.00  0.00    +0.000 A 
ATOM      7  N   UNL     1       3.807   5.189  17.937  0.00  0.00    +0.000 NA
ATOM      8  H   UNL     1       5.440   6.461  15.568  0.00  0.00    +0.000 HD
ENDROOT
BRANCH   6   9
ATOM      9  N   UNL     1       2.075   4.709  19.464  0.00  0.00    +0.000 N 
ATOM     10  C   UNL     1       2.456   4.466  20.813  0.00  0.00    +0.000 C 
ATOM     11  C   UNL     1       1.407   3.467  21.236  0.00  0.00    +0.000 C 
ATOM     12  O   UNL     1       1.029   2.805  20.023  0.00  0.00    +0.000 OA
ATOM     13  C   UNL     1       1.341   3.645  18.983  0.00  0.00    +0.000 C 
ATOM     14  O   UNL     1       1.042   3.406  17.822  0.00  0.00    +0.000 OA
ENDBRANCH   6   9
BRANCH   1  16
ATOM     15  C   UNL     1       5.673   3.265  16.498  0.00  0.00    +0.000 C 
ATOM     16  C   UNL     1       5.189   4.394  15.584  0.00  0.00    +0.000 C 
BRANCH  16  17
ATOM     17  C   UNL     1       5.962   4.375  14.266  0.00  0.00    +0.000 A 
ATOM     18  C   UNL     1       5.523   3.574  13.197  0.00  0.00    +0.000 A 
ATOM     19  C   UNL     1       6.233   3.537  11.993  0.00  0.00    +0.000 A 
ATOM     20  C   UNL     1       7.388   4.300  11.841  0.00  0.00    +0.000 A 
ATOM     21  C   UNL     1       7.830   5.106  12.886  0.00  0.00    +0.000 A 
ATOM     22  C   UNL     1       7.127   5.145  14.088  0.00  0.00    +0.000 A 
ENDBRANCH  16  17
ENDBRANCH   1  16
TORSDOF 3
ENDMDL
MODEL 6
REMARK VINA RESULT:      -6.8      3.133      6.973
REMARK  Name = 
REMARK  4 active torsions:
REMARK  status: ('A' for Active; 'I' for Inactive)
REMARK    1  A    between atoms: C_1  and  C_2
REMARK    2  A    between atoms: C_2  and  N_3
REMARK    3  A    between atoms: C_2  and  C_16
REMARK    4  A    between atoms: C_8  and  N_9
REMARK                            x       y       z     vdW  Elec       q    Type
REMARK                         _______ _______ _______ _____ _____    ______ ____
ROOT
ATOM      1  N   UNL     1       5.402   5.675  16.258  0.00  0.00    +0.000 N 
ATOM      2  C   UNL     1       4.414   6.067  17.150  0.00  0.00    +0.000 A 
ATOM      3  N   UNL     1       4.099   7.363  17.105  0.00  0.00    +0.000 NA
ATOM      4  C   UNL     1       3.073   7.774  17.871  0.00  0.00    +0.000 A 
ATOM      5  C   UNL     1       2.323   6.924  18.637  0.00  0.00    +0.000 A 
ATOM      6  C   UNL     1       2.740   5.611  18.654  0.00  0.00    +0.000 A 
ATOM      7  N   UNL     1       3.808   5.178  17.955  0.00  0.00    +0.000 NA
ATOM      8  H   UNL     1       5.461   6.450  15.601  0.00  0.00    +0.000 HD
ENDROOT
BRANCH   6   9
ATOM      9  N   UNL     1       2.064   4.701  19.471  0.00  0.00    +0.000 N 
ATOM     10  C   UNL     1       2.442   4.445  20.818  0.00  0.00    +0.000 C 
ATOM     11  C   UNL     1       1.383   3.452  21.232  0.00  0.00    +0.000 C 
ATOM     12  O   UNL     1       0.999   2.804  20.014  0.00  0.00    +0.000 OA
ATOM     13  C   UNL     1       1.320   3.649  18.981  0.00  0.00    +0.000 C 
ATOM     14  O   UNL     1       1.019   3.421  17.818  0.00  0.00    +0.000 OA
ENDBRANCH   6   9
BRANCH   1  16
ATOM     15  C   UNL     1       5.670   3.250  16.520  0.00  0.00    +0.000 C 
ATOM     16  C   UNL     1       5.198   4.384  15.606  0.00  0.00    +0.000 C 
BRANCH  16  17
ATOM     17  C   UNL     1       5.979   4.366  14.294  0.00  0.00    +0.000 A 
ATOM     18  C   UNL     1       7.121   5.173  14.136  0.00  0.00    +0.000 A 
ATOM     19  C   UNL     1       7.834   5.176  12.933  0.00  0.00    +0.000 A 
ATOM     20  C   UNL     1       7.416   4.374  11.874  0.00  0.00    +0.000 A 
ATOM     21  C   UNL     1       6.295   3.563  12.017  0.00  0.00    +0.000 A 
ATOM     22  C   UNL     1       5.581   3.557  13.213  0.00  0.00    +0.000 A 
ENDBRANCH  16  17
ENDBRANCH   1  16
TORSDOF 3
ENDMDL
MODEL 7
REMARK VINA RESULT:      -6.7      3.621      6.476
REMARK  Name = 
REMARK  4 active torsions:
REMARK  status: ('A' for Active; 'I' for Inactive)
REMARK    1  A    between atoms: C_1  and  C_2
REMARK    2  A    between atoms: C_2  and  N_3
REMARK    3  A    between atoms: C_2  and  C_16
REMARK    4  A    between atoms: C_8  and  N_9
REMARK                            x       y       z     vdW  Elec       q    Type
REMARK                         _______ _______ _______ _____ _____    ______ ____
ROOT
ATOM      1  N   UNL     1       4.390   3.947  16.829  0.00  0.00    +0.000 N 
ATOM      2  C   UNL     1       3.683   4.524  17.874  0.00  0.00    +0.000 A 
ATOM      3  N   UNL     1       3.643   3.799  18.993  0.00  0.00    +0.000 NA
ATOM      4  C   UNL     1       3.065   4.360  20.070  0.00  0.00    +0.000 A 
ATOM      5  C   UNL     1       2.572   5.636  20.076  0.00  0.00    +0.000 A 
ATOM      6  C   UNL     1       2.619   6.300  18.869  0.00  0.00    +0.000 A 
ATOM      7  N   UNL     1       3.128   5.742  17.752  0.00  0.00    +0.000 NA
ATOM      8  H   UNL     1       4.928   3.208  17.276  0.00  0.00    +0.000 HD
ENDROOT
BRANCH   6   9
ATOM      9  N   UNL     1       2.070   7.581  18.784  0.00  0.00    +0.000 N 
ATOM     10  C   UNL     1       2.387   8.488  17.735  0.00  0.00    +0.000 C 
ATOM     11  C   UNL     1       1.509   9.663  18.092  0.00  0.00    +0.000 C 
ATOM     12  O   UNL     1       1.350   9.577  19.512  0.00  0.00    +0.000 OA
ATOM     13  C   UNL     1       1.580   8.272  19.873  0.00  0.00    +0.000 C 
ATOM     14  O   UNL     1       1.417   7.857  21.010  0.00  0.00    +0.000 OA
ENDBRANCH   6   9
BRANCH   1  16
ATOM     15  C   UNL     1       5.938   4.085  14.929  0.00  0.00    +0.000 C 
ATOM     16  C   UNL     1       5.213   4.856  16.036  0.00  0.00    +0.000 C 
BRANCH  16  17
ATOM     17  C   UNL     1       6.225   5.534  16.958  0.00  0.00    +0.000 A 
ATOM     18  C   UNL     1       6.453   6.919  16.866  0.00  0.00    +0.000 A 
ATOM     19  C   UNL     1       7.389   7.547  17.693  0.00  0.00    +0.000 A 
ATOM     20  C   UNL     1       8.108   6.800  18.624  0.00  0.00    +0.000 A 
ATOM     21  C   UNL     1       7.888   5.430  18.734  0.00  0.00    +0.000 A 
ATOM     22  C   UNL     1       6.957   4.800  17.911  0.00  0.00    +0.000 A 
ENDBRANCH  16  17
ENDBRANCH   1  16
TORSDOF 3
ENDMDL
MODEL 8
REMARK VINA RESULT:      -6.7      3.622      6.482
REMARK  Name = 
REMARK  4 active torsions:
REMARK  status: ('A' for Active; 'I' for Inactive)
REMARK    1  A    between atoms: C_1  and  C_2
REMARK    2  A    between atoms: C_2  and  N_3
REMARK    3  A    between atoms: C_2  and  C_16
REMARK    4  A    between atoms: C_8  and  N_9
REMARK                            x       y       z     vdW  Elec       q    Type
REMARK                         _______ _______ _______ _____ _____    ______ ____
ROOT
ATOM      1  N   UNL     1       4.384   4.027  16.794  0.00  0.00    +0.000 N 
ATOM      2  C   UNL     1       3.670   4.590  17.842  0.00  0.00    +0.000 A 
ATOM      3  N   UNL     1       3.627   3.850  18.953  0.00  0.00    +0.000 NA
ATOM      4  C   UNL     1       3.042   4.397  20.033  0.00  0.00    +0.000 A 
ATOM      5  C   UNL     1       2.547   5.672  20.053  0.00  0.00    +0.000 A 
ATOM      6  C   UNL     1       2.599   6.350  18.855  0.00  0.00    +0.000 A 
ATOM      7  N   UNL     1       3.113   5.808  17.734  0.00  0.00    +0.000 NA
ATOM      8  H   UNL     1       4.921   3.284  17.234  0.00  0.00    +0.000 HD
ENDROOT
BRANCH   6   9
ATOM      9  N   UNL     1       2.047   7.632  18.783  0.00  0.00    +0.000 N 
ATOM     10  C   UNL     1       2.343   8.542  17.731  0.00  0.00    +0.000 C 
ATOM     11  C   UNL     1       1.472   9.715  18.107  0.00  0.00    +0.000 C 
ATOM     12  O   UNL     1       1.339   9.625  19.530  0.00  0.00    +0.000 OA
ATOM     13  C   UNL     1       1.578   8.319  19.883  0.00  0.00    +0.000 C 
ATOM     14  O   UNL     1       1.436   7.902  21.022  0.00  0.00    +0.000 OA
ENDBRANCH   6   9
BRANCH   1  16
ATOM     15  C   UNL     1       5.905   4.201  14.876  0.00  0.00    +0.000 C 
ATOM     16  C   UNL     1       5.209   4.948  16.017  0.00  0.00    +0.000 C 
BRANCH  16  17
ATOM     17  C   UNL     1       6.245   5.582  16.943  0.00  0.00    +0.000 A 
ATOM     18  C   UNL     1       6.955   4.789  17.862  0.00  0.00    +0.000 A 
ATOM     19  C   UNL     1       7.894   5.361  18.726  0.00  0.00    +0.000 A 
ATOM     20  C   UNL     1       8.136   6.733  18.682  0.00  0.00    +0.000 A 
ATOM     21  C   UNL     1       7.449   7.530  17.772  0.00  0.00    +0.000 A 
ATOM     22  C   UNL     1       6.512   6.964  16.910  0.00  0.00    +0.000 A 
ENDBRANCH  16  17
ENDBRANCH   1  16
TORSDOF 3
ENDMDL
MODEL 9
REMARK VINA RESULT:      -6.6      3.423      6.943
REMARK  Name = 
REMARK  4 active torsions:
REMARK  status: ('A' for Active; 'I' for Inactive)
REMARK    1  A    between atoms: C_1  and  C_2
REMARK    2  A    between atoms: C_2  and  N_3
REMARK    3  A    between atoms: C_2  and  C_16
REMARK    4  A    between atoms: C_8  and  N_9
REMARK                            x       y       z     vdW  Elec       q    Type
REMARK                         _______ _______ _______ _____ _____    ______ ____
ROOT
ATOM      1  N   UNL     1       6.050   6.122  16.608  0.00  0.00    +0.000 N 
ATOM      2  C   UNL     1       4.897   6.277  17.366  0.00  0.00    +0.000 A 
ATOM      3  N   UNL     1       4.109   7.285  16.988  0.00  0.00    +0.000 NA
ATOM      4  C   UNL     1       2.927   7.410  17.619  0.00  0.00    +0.000 A 
ATOM      5  C   UNL     1       2.491   6.534  18.574  0.00  0.00    +0.000 A 
ATOM      6  C   UNL     1       3.382   5.546  18.929  0.00  0.00    +0.000 A 
ATOM      7  N   UNL     1       4.603   5.432  18.369  0.00  0.00    +0.000 NA
ATOM      8  H   UNL     1       5.872   6.677  15.775  0.00  0.00    +0.000 HD
ENDROOT
BRANCH   6   9
ATOM      9  N   UNL     1       3.031   4.657  19.949  0.00  0.00    +0.000 N 
ATOM     10  C   UNL     1       3.280   3.259  19.873  0.00  0.00    +0.000 C 
ATOM     11  C   UNL     1       2.764   2.799  21.215  0.00  0.00    +0.000 C 
ATOM     12  O   UNL     1       1.761   3.760  21.565  0.00  0.00    +0.000 OA
ATOM     13  C   UNL     1       2.033   4.910  20.866  0.00  0.00    +0.000 C 
ATOM     14  O   UNL     1       1.413   5.950  21.030  0.00  0.00    +0.000 OA
ENDBRANCH   6   9
BRANCH   1  16
ATOM     15  C   UNL     1       7.712   4.377  17.071  0.00  0.00    +0.000 C 
ATOM     16  C   UNL     1       6.437   4.746  16.309  0.00  0.00    +0.000 C 
BRANCH  16  17
ATOM     17  C   UNL     1       6.663   4.615  14.804  0.00  0.00    +0.000 A 
ATOM     18  C   UNL     1       5.895   3.713  14.046  0.00  0.00    +0.000 A 
ATOM     19  C   UNL     1       6.106   3.573  12.671  0.00  0.00    +0.000 A 
ATOM     20  C   UNL     1       7.085   4.333  12.035  0.00  0.00    +0.000 A 
ATOM     21  C   UNL     1       7.847   5.237  12.769  0.00  0.00    +0.000 A 
ATOM     22  C   UNL     1       7.642   5.379  14.139  0.00  0.00    +0.000 A 
ENDBRANCH  16  17
ENDBRANCH   1  16
TORSDOF 3
ENDMDL
