MODEL 1
REMARK VINA RESULT:      -7.6      0.000      0.000
REMARK  Name = 
REMARK  13 active torsions:
REMARK  status: ('A' for Active; 'I' for Inactive)
REMARK    1  A    between atoms: C_1  and  C_2
REMARK    2  A    between atoms: C_2  and  C_4
REMARK    3  A    between atoms: C_4  and  C_5
REMARK    4  A    between atoms: C_5  and  C_6
REMARK    5  A    between atoms: C_6  and  C_7
REMARK    6  A    between atoms: C_7  and  C_8
REMARK    7  A    between atoms: C_8  and  C_9
REMARK    8  A    between atoms: C_9  and  N_10
REMARK    9  A    between atoms: C_9  and  C_21
REMARK   10  A    between atoms: C_11  and  C_13
REMARK   11  A    between atoms: C_13  and  N_14
REMARK   12  A    between atoms: N_17  and  C_18
REMARK   13  A    between atoms: C_24  and  C_25
REMARK                            x       y       z     vdW  Elec       q    Type
REMARK                         _______ _______ _______ _____ _____    ______ ____
ROOT
ATOM      1  C   UNL     1       7.290   6.382  17.689  0.00  0.00    +0.000 C 
ENDROOT
BRANCH   1   2
ATOM      2  C   UNL     1       7.630   7.842  17.768  0.00  0.00    +0.000 A 
ATOM      3  N   UNL     1       7.070   8.827  17.088  0.00  0.00    +0.000 NA
ATOM      4  C   UNL     1       7.756   9.951  17.444  0.00  0.00    +0.000 A 
ATOM      5  C   UNL     1       8.709   9.684  18.409  0.00  0.00    +0.000 A 
ATOM      6  N   UNL     1       8.638   8.319  18.565  0.00  0.00    +0.000 N 
ATOM      7  H   UNL     1       9.211   7.761  19.187  0.00  0.00    +0.000 HD
BRANCH   5   8
ATOM      8  C   UNL     1       9.606  10.559  19.151  0.00  0.00    +0.000 A 
ATOM      9  C   UNL     1       9.267  10.981  20.448  0.00  0.00    +0.000 A 
ATOM     10  C   UNL     1      10.120  11.818  21.167  0.00  0.00    +0.000 A 
ATOM     11  C   UNL     1      11.320  12.247  20.600  0.00  0.00    +0.000 A 
ATOM     12  C   UNL     1      11.667  11.829  19.313  0.00  0.00    +0.000 A 
ATOM     13  C   UNL     1      10.816  10.989  18.600  0.00  0.00    +0.000 A 
ENDBRANCH   5   8
ENDBRANCH   1   2
BRANCH   1  14
ATOM     14  N   UNL     1       5.928   6.218  18.171  0.00  0.00    +0.000 N 
ATOM     15  C   UNL     1       5.622   5.466  19.282  0.00  0.00    +0.000 C 
ATOM     16  O   UNL     1       6.480   4.896  19.955  0.00  0.00    +0.000 OA
ATOM     17  H   UNL     1       5.217   6.821  17.774  0.00  0.00    +0.000 HD
BRANCH  15  18
ATOM     18  C   UNL     1       4.127   5.427  19.656  0.00  0.00    +0.000 C 
BRANCH  18  19
ATOM     19  N   UNL     1       3.673   4.029  19.801  0.00  0.00    +0.000 NA
ATOM     20  C   UNL     1       3.480   3.401  18.474  0.00  0.00    +0.000 C 
ATOM     21  C   UNL     1       2.961   1.950  18.576  0.00  0.00    +0.000 C 
ATOM     22  N   UNL     1       1.735   1.781  19.379  0.00  0.00    +0.000 NA
ATOM     23  C   UNL     1       0.552   2.253  18.665  0.00  0.00    +0.000 C 
ATOM     24  C   UNL     1       1.907   2.475  20.670  0.00  0.00    +0.000 C 
ATOM     25  C   UNL     1       2.409   3.940  20.562  0.00  0.00    +0.000 C 
ENDBRANCH  18  19
ENDBRANCH  15  18
ENDBRANCH   1  14
BRANCH   1  26
ATOM     26  C   UNL     1       7.405   5.844  16.250  0.00  0.00    +0.000 C 
BRANCH  26  27
ATOM     27  C   UNL     1       7.121   4.346  16.152  0.00  0.00    +0.000 C 
BRANCH  27  28
ATOM     28  C   UNL     1       5.721   4.063  15.603  0.00  0.00    +0.000 C 
BRANCH  28  29
ATOM     29  C   UNL     1       5.612   4.446  14.125  0.00  0.00    +0.000 C 
BRANCH  29  30
ATOM     30  C   UNL     1       6.391   3.490  13.222  0.00  0.00    +0.000 C 
BRANCH  30  32
ATOM     31  C   UNL     1       6.166   1.841  11.284  0.00  0.00    +0.000 C 
ATOM     32  C   UNL     1       5.565   2.968  12.073  0.00  0.00    +0.000 C 
ATOM     33  O   UNL     1       4.462   3.433  11.777  0.00  0.00    +0.000 OA
ENDBRANCH  30  32
ENDBRANCH  29  30
ENDBRANCH  28  29
ENDBRANCH  27  28
ENDBRANCH  26  27
ENDBRANCH   1  26
TORSDOF 11
ENDMDL
MODEL 2
REMARK VINA RESULT:      -7.5      0.821      1.114
REMARK  Name = 
REMARK  13 active torsions:
REMARK  status: ('A' for Active; 'I' for Inactive)
REMARK    1  A    between atoms: C_1  and  C_2
REMARK    2  A    between atoms: C_2  and  C_4
REMARK    3  A    between atoms: C_4  and  C_5
REMARK    4  A    between atoms: C_5  and  C_6
REMARK    5  A    between atoms: C_6  and  C_7
REMARK    6  A    between atoms: C_7  and  C_8
REMARK    7  A    between atoms: C_8  and  C_9
REMARK    8  A    between atoms: C_9  and  N_10
REMARK    9  A    between atoms: C_9  and  C_21
REMARK   10  A    between atoms: C_11  and  C_13
REMARK   11  A    between atoms: C_13  and  N_14
REMARK   12  A    between atoms: N_17  and  C_18
REMARK   13  A    between atoms: C_24  and  C_25
REMARK                            x       y       z     vdW  Elec       q    Type
REMARK                         _______ _______ _______ _____ _____    ______ ____
ROOT
ATOM      1  C   UNL     1       7.390   6.314  17.475  0.00  0.00    +0.000 C 
ENDROOT
BRANCH   1   2
ATOM      2  C   UNL     1       7.629   7.785  17.658  0.00  0.00    +0.000 A 
ATOM      3  N   UNL     1       6.931   8.777  17.134  0.00  0.00    +0.000 NA
ATOM      4  C   UNL     1       7.567   9.918  17.525  0.00  0.00    +0.000 A 
ATOM      5  C   UNL     1       8.634   9.646  18.362  0.00  0.00    +0.000 A 
ATOM      6  N   UNL     1       8.679   8.272  18.394  0.00  0.00    +0.000 N 
ATOM      7  H   UNL     1       9.353   7.711  18.900  0.00  0.00    +0.000 HD
BRANCH   5   8
ATOM      8  C   UNL     1       9.537  10.524  19.092  0.00  0.00    +0.000 A 
ATOM      9  C   UNL     1       9.245  10.895  20.415  0.00  0.00    +0.000 A 
ATOM     10  C   UNL     1      10.106  11.734  21.123  0.00  0.00    +0.000 A 
ATOM     11  C   UNL     1      11.267  12.216  20.519  0.00  0.00    +0.000 A 
ATOM     12  C   UNL     1      11.568  11.848  19.205  0.00  0.00    +0.000 A 
ATOM     13  C   UNL     1      10.710  11.006  18.503  0.00  0.00    +0.000 A 
ENDBRANCH   5   8
ENDBRANCH   1   2
BRANCH   1  14
ATOM     14  N   UNL     1       6.103   5.997  18.074  0.00  0.00    +0.000 N 
ATOM     15  C   UNL     1       5.989   5.397  19.306  0.00  0.00    +0.000 C 
ATOM     16  O   UNL     1       6.965   5.104  19.994  0.00  0.00    +0.000 OA
ATOM     17  H   UNL     1       5.277   6.393  17.641  0.00  0.00    +0.000 HD
BRANCH  15  18
ATOM     18  C   UNL     1       4.545   5.160  19.789  0.00  0.00    +0.000 C 
BRANCH  18  19
ATOM     19  N   UNL     1       3.765   4.464  18.745  0.00  0.00    +0.000 NA
ATOM     20  C   UNL     1       2.365   4.946  18.729  0.00  0.00    +0.000 C 
ATOM     21  C   UNL     1       1.498   4.214  17.683  0.00  0.00    +0.000 C 
ATOM     22  N   UNL     1       1.505   2.743  17.786  0.00  0.00    +0.000 NA
ATOM     23  C   UNL     1       0.703   2.276  18.914  0.00  0.00    +0.000 C 
ATOM     24  C   UNL     1       2.902   2.274  17.879  0.00  0.00    +0.000 C 
ATOM     25  C   UNL     1       3.764   3.000  18.946  0.00  0.00    +0.000 C 
ENDBRANCH  18  19
ENDBRANCH  15  18
ENDBRANCH   1  14
BRANCH   1  26
ATOM     26  C   UNL     1       7.388   5.916  15.986  0.00  0.00    +0.000 C 
BRANCH  26  27
ATOM     27  C   UNL     1       7.228   4.411  15.775  0.00  0.00    +0.000 C 
BRANCH  27  28
ATOM     28  C   UNL     1       5.920   4.070  15.058  0.00  0.00    +0.000 C 
BRANCH  28  29
ATOM     29  C   UNL     1       6.175   3.592  13.627  0.00  0.00    +0.000 C 
BRANCH  29  30
ATOM     30  C   UNL     1       5.083   4.051  12.661  0.00  0.00    +0.000 C 
BRANCH  30  32
ATOM     31  C   UNL     1       5.789   1.930  11.423  0.00  0.00    +0.000 C 
ATOM     32  C   UNL     1       4.778   3.027  11.595  0.00  0.00    +0.000 C 
ATOM     33  O   UNL     1       3.769   3.078  10.889  0.00  0.00    +0.000 OA
ENDBRANCH  30  32
ENDBRANCH  29  30
ENDBRANCH  28  29
ENDBRANCH  27  28
ENDBRANCH  26  27
ENDBRANCH   1  26
TORSDOF 11
ENDMDL
MODEL 3
REMARK VINA RESULT:      -7.5      4.896      8.045
REMARK  Name = 
REMARK  13 active torsions:
REMARK  status: ('A' for Active; 'I' for Inactive)
REMARK    1  A    between atoms: C_1  and  C_2
REMARK    2  A    between atoms: C_2  and  C_4
REMARK    3  A    between atoms: C_4  and  C_5
REMARK    4  A    between atoms: C_5  and  C_6
REMARK    5  A    between atoms: C_6  and  C_7
REMARK    6  A    between atoms: C_7  and  C_8
REMARK    7  A    between atoms: C_8  and  C_9
REMARK    8  A    between atoms: C_9  and  N_10
REMARK    9  A    between atoms: C_9  and  C_21
REMARK   10  A    between atoms: C_11  and  C_13
REMARK   11  A    between atoms: C_13  and  N_14
REMARK   12  A    between atoms: N_17  and  C_18
REMARK   13  A    between atoms: C_24  and  C_25
REMARK                            x       y       z     vdW  Elec       q    Type
REMARK                         _______ _______ _______ _____ _____    ______ ____
ROOT
ATOM      1  C   UNL     1       1.930   7.116  20.636  0.00  0.00    +0.000 C 
ENDROOT
BRANCH   1   2
ATOM      2  C   UNL     1       2.601   7.197  19.295  0.00  0.00    +0.000 A 
ATOM      3  N   UNL     1       2.515   8.184  18.420  0.00  0.00    +0.000 NA
ATOM      4  C   UNL     1       3.233   7.773  17.336  0.00  0.00    +0.000 A 
ATOM      5  C   UNL     1       3.836   6.549  17.557  0.00  0.00    +0.000 A 
ATOM      6  N   UNL     1       3.378   6.182  18.800  0.00  0.00    +0.000 N 
ATOM      7  H   UNL     1       3.601   5.321  19.286  0.00  0.00    +0.000 HD
BRANCH   5   8
ATOM      8  C   UNL     1       4.757   5.765  16.746  0.00  0.00    +0.000 A 
ATOM      9  C   UNL     1       5.227   4.525  17.211  0.00  0.00    +0.000 A 
ATOM     10  C   UNL     1       6.108   3.767  16.441  0.00  0.00    +0.000 A 
ATOM     11  C   UNL     1       6.535   4.237  15.200  0.00  0.00    +0.000 A 
ATOM     12  C   UNL     1       6.069   5.466  14.727  0.00  0.00    +0.000 A 
ATOM     13  C   UNL     1       5.186   6.219  15.495  0.00  0.00    +0.000 A 
ENDBRANCH   5   8
ENDBRANCH   1   2
BRANCH   1  14
ATOM     14  N   UNL     1       0.926   8.167  20.693  0.00  0.00    +0.000 N 
ATOM     15  C   UNL     1       0.942   9.154  21.650  0.00  0.00    +0.000 C 
ATOM     16  O   UNL     1       1.816   9.228  22.512  0.00  0.00    +0.000 OA
ATOM     17  H   UNL     1       0.307   8.264  19.896  0.00  0.00    +0.000 HD
BRANCH  15  18
ATOM     18  C   UNL     1      -0.189  10.195  21.538  0.00  0.00    +0.000 C 
BRANCH  18  19
ATOM     19  N   UNL     1      -0.159  10.841  20.210  0.00  0.00    +0.000 NA
ATOM     20  C   UNL     1       1.005  11.748  20.095  0.00  0.00    +0.000 C 
ATOM     21  C   UNL     1       1.052  12.482  18.738  0.00  0.00    +0.000 C 
ATOM     22  N   UNL     1      -0.176  13.217  18.383  0.00  0.00    +0.000 NA
ATOM     23  C   UNL     1      -0.307  14.453  19.151  0.00  0.00    +0.000 C 
ATOM     24  C   UNL     1      -1.340  12.330  18.574  0.00  0.00    +0.000 C 
ATOM     25  C   UNL     1      -1.394  11.610  19.947  0.00  0.00    +0.000 C 
ENDBRANCH  18  19
ENDBRANCH  15  18
ENDBRANCH   1  14
BRANCH   1  26
ATOM     26  C   UNL     1       1.266   5.744  20.861  0.00  0.00    +0.000 C 
BRANCH  26  27
ATOM     27  C   UNL     1       2.270   4.657  21.246  0.00  0.00    +0.000 C 
BRANCH  27  28
ATOM     28  C   UNL     1       1.581   3.328  21.562  0.00  0.00    +0.000 C 
BRANCH  28  29
ATOM     29  C   UNL     1       1.709   2.340  20.400  0.00  0.00    +0.000 C 
BRANCH  29  30
ATOM     30  C   UNL     1       0.780   2.692  19.238  0.00  0.00    +0.000 C 
BRANCH  30  32
ATOM     31  C   UNL     1       2.643   2.265  17.543  0.00  0.00    +0.000 C 
ATOM     32  C   UNL     1       1.528   3.155  18.012  0.00  0.00    +0.000 C 
ATOM     33  O   UNL     1       1.261   4.204  17.423  0.00  0.00    +0.000 OA
ENDBRANCH  30  32
ENDBRANCH  29  30
ENDBRANCH  28  29
ENDBRANCH  27  28
ENDBRANCH  26  27
ENDBRANCH   1  26
TORSDOF 11
ENDMDL
MODEL 4
REMARK VINA RESULT:      -7.5      2.377      7.837
REMARK  Name = 
REMARK  13 active torsions:
REMARK  status: ('A' for Active; 'I' for Inactive)
REMARK    1  A    between atoms: C_1  and  C_2
REMARK    2  A    between atoms: C_2  and  C_4
REMARK    3  A    between atoms: C_4  and  C_5
REMARK    4  A    between atoms: C_5  and  C_6
REMARK    5  A    between atoms: C_6  and  C_7
REMARK    6  A    between atoms: C_7  and  C_8
REMARK    7  A    between atoms: C_8  and  C_9
REMARK    8  A    between atoms: C_9  and  N_10
REMARK    9  A    between atoms: C_9  and  C_21
REMARK   10  A    between atoms: C_11  and  C_13
REMARK   11  A    between atoms: C_13  and  N_14
REMARK   12  A    between atoms: N_17  and  C_18
REMARK   13  A    between atoms: C_24  and  C_25
REMARK                            x       y       z     vdW  Elec       q    Type
REMARK                         _______ _______ _______ _____ _____    ______ ____
ROOT
ATOM      1  C   UNL     1       6.148   6.093  16.714  0.00  0.00    +0.000 C 
ENDROOT
BRANCH   1   2
ATOM      2  C   UNL     1       6.547   5.463  15.411  0.00  0.00    +0.000 A 
ATOM      3  N   UNL     1       7.722   5.549  14.812  0.00  0.00    +0.000 NA
ATOM      4  C   UNL     1       7.581   4.878  13.633  0.00  0.00    +0.000 A 
ATOM      5  C   UNL     1       6.329   4.303  13.519  0.00  0.00    +0.000 A 
ATOM      6  N   UNL     1       5.672   4.732  14.649  0.00  0.00    +0.000 N 
ATOM      7  H   UNL     1       4.713   4.518  14.897  0.00  0.00    +0.000 HD
BRANCH   5   8
ATOM      8  C   UNL     1       5.753   3.432  12.505  0.00  0.00    +0.000 A 
ATOM      9  C   UNL     1       6.472   2.318  12.041  0.00  0.00    +0.000 A 
ATOM     10  C   UNL     1       5.928   1.477  11.070  0.00  0.00    +0.000 A 
ATOM     11  C   UNL     1       4.662   1.738  10.548  0.00  0.00    +0.000 A 
ATOM     12  C   UNL     1       3.937   2.841  11.008  0.00  0.00    +0.000 A 
ATOM     13  C   UNL     1       4.480   3.676  11.980  0.00  0.00    +0.000 A 
ENDBRANCH   5   8
ENDBRANCH   1   2
BRANCH   1  14
ATOM     14  N   UNL     1       4.812   5.622  17.042  0.00  0.00    +0.000 N 
ATOM     15  C   UNL     1       3.865   6.431  17.626  0.00  0.00    +0.000 C 
ATOM     16  O   UNL     1       4.076   7.613  17.894  0.00  0.00    +0.000 OA
ATOM     17  H   UNL     1       4.528   4.725  16.664  0.00  0.00    +0.000 HD
BRANCH  15  18
ATOM     18  C   UNL     1       2.499   5.764  17.878  0.00  0.00    +0.000 C 
BRANCH  18  19
ATOM     19  N   UNL     1       2.686   4.404  18.423  0.00  0.00    +0.000 NA
ATOM     20  C   UNL     1       1.390   3.695  18.516  0.00  0.00    +0.000 C 
ATOM     21  C   UNL     1       1.529   2.283  19.124  0.00  0.00    +0.000 C 
ATOM     22  N   UNL     1       2.209   2.231  20.432  0.00  0.00    +0.000 NA
ATOM     23  C   UNL     1       1.345   2.710  21.508  0.00  0.00    +0.000 C 
ATOM     24  C   UNL     1       3.463   3.005  20.353  0.00  0.00    +0.000 C 
ATOM     25  C   UNL     1       3.314   4.432  19.761  0.00  0.00    +0.000 C 
ENDBRANCH  18  19
ENDBRANCH  15  18
ENDBRANCH   1  14
BRANCH   1  26
ATOM     26  C   UNL     1       7.126   5.730  17.848  0.00  0.00    +0.000 C 
BRANCH  26  27
ATOM     27  C   UNL     1       7.797   6.956  18.466  0.00  0.00    +0.000 C 
BRANCH  27  28
ATOM     28  C   UNL     1       8.053   8.052  17.430  0.00  0.00    +0.000 C 
BRANCH  28  29
ATOM     29  C   UNL     1       7.887   9.447  18.039  0.00  0.00    +0.000 C 
BRANCH  29  30
ATOM     30  C   UNL     1       9.166   9.936  18.719  0.00  0.00    +0.000 C 
BRANCH  30  32
ATOM     31  C   UNL     1       8.640  12.218  17.698  0.00  0.00    +0.000 C 
ATOM     32  C   UNL     1       9.681  11.228  18.135  0.00  0.00    +0.000 C 
ATOM     33  O   UNL     1      10.883  11.471  18.006  0.00  0.00    +0.000 OA
ENDBRANCH  30  32
ENDBRANCH  29  30
ENDBRANCH  28  29
ENDBRANCH  27  28
ENDBRANCH  26  27
ENDBRANCH   1  26
TORSDOF 11
ENDMDL
MODEL 5
REMARK VINA RESULT:      -7.2      4.225      7.642
REMARK  Name = 
REMARK  13 active torsions:
REMARK  status: ('A' for Active; 'I' for Inactive)
REMARK    1  A    between atoms: C_1  and  C_2
REMARK    2  A    between atoms: C_2  and  C_4
REMARK    3  A    between atoms: C_4  and  C_5
REMARK    4  A    between atoms: C_5  and  C_6
REMARK    5  A    between atoms: C_6  and  C_7
REMARK    6  A    between atoms: C_7  and  C_8
REMARK    7  A    between atoms: C_8  and  C_9
REMARK    8  A    between atoms: C_9  and  N_10
REMARK    9  A    between atoms: C_9  and  C_21
REMARK   10  A    between atoms: C_11  and  C_13
REMARK   11  A    between atoms: C_13  and  N_14
REMARK   12  A    between atoms: N_17  and  C_18
REMARK   13  A    between atoms: C_24  and  C_25
REMARK                            x       y       z     vdW  Elec       q    Type
REMARK                         _______ _______ _______ _____ _____    ______ ____
ROOT
ATOM      1  C   UNL     1       2.946   5.785  18.600  0.00  0.00    +0.000 C 
ENDROOT
BRANCH   1   2
ATOM      2  C   UNL     1       4.234   5.722  17.832  0.00  0.00    +0.000 A 
ATOM      3  N   UNL     1       5.430   6.100  18.249  0.00  0.00    +0.000 NA
ATOM      4  C   UNL     1       6.262   5.919  17.184  0.00  0.00    +0.000 A 
ATOM      5  C   UNL     1       5.601   5.356  16.109  0.00  0.00    +0.000 A 
ATOM      6  N   UNL     1       4.295   5.282  16.534  0.00  0.00    +0.000 N 
ATOM      7  H   UNL     1       3.512   4.933  15.994  0.00  0.00    +0.000 HD
BRANCH   5   8
ATOM      8  C   UNL     1       6.077   4.901  14.810  0.00  0.00    +0.000 A 
ATOM      9  C   UNL     1       5.300   4.018  14.043  0.00  0.00    +0.000 A 
ATOM     10  C   UNL     1       5.748   3.578  12.797  0.00  0.00    +0.000 A 
ATOM     11  C   UNL     1       6.979   4.010  12.304  0.00  0.00    +0.000 A 
ATOM     12  C   UNL     1       7.756   4.892  13.058  0.00  0.00    +0.000 A 
ATOM     13  C   UNL     1       7.305   5.334  14.299  0.00  0.00    +0.000 A 
ENDBRANCH   5   8
ENDBRANCH   1   2
BRANCH   1  14
ATOM     14  N   UNL     1       2.738   7.166  19.004  0.00  0.00    +0.000 N 
ATOM     15  C   UNL     1       1.954   7.512  20.080  0.00  0.00    +0.000 C 
ATOM     16  O   UNL     1       1.389   6.677  20.785  0.00  0.00    +0.000 OA
ATOM     17  H   UNL     1       3.333   7.869  18.583  0.00  0.00    +0.000 HD
BRANCH  15  18
ATOM     18  C   UNL     1       1.870   9.023  20.371  0.00  0.00    +0.000 C 
BRANCH  18  19
ATOM     19  N   UNL     1       0.549   9.548  19.973  0.00  0.00    +0.000 NA
ATOM     20  C   UNL     1       0.499   9.787  18.513  0.00  0.00    +0.000 C 
ATOM     21  C   UNL     1      -0.852  10.380  18.056  0.00  0.00    +0.000 C 
ATOM     22  N   UNL     1      -1.267  11.605  18.765  0.00  0.00    +0.000 NA
ATOM     23  C   UNL     1      -0.502  12.769  18.327  0.00  0.00    +0.000 C 
ATOM     24  C   UNL     1      -1.141  11.384  20.219  0.00  0.00    +0.000 C 
ATOM     25  C   UNL     1       0.225  10.807  20.676  0.00  0.00    +0.000 C 
ENDBRANCH  18  19
ENDBRANCH  15  18
ENDBRANCH   1  14
BRANCH   1  26
ATOM     26  C   UNL     1       1.752   5.299  17.756  0.00  0.00    +0.000 C 
BRANCH  26  27
ATOM     27  C   UNL     1       1.360   3.853  18.060  0.00  0.00    +0.000 C 
BRANCH  27  28
ATOM     28  C   UNL     1       0.948   3.667  19.521  0.00  0.00    +0.000 C 
BRANCH  28  29
ATOM     29  C   UNL     1       1.656   2.467  20.154  0.00  0.00    +0.000 C 
BRANCH  29  30
ATOM     30  C   UNL     1       3.045   2.826  20.680  0.00  0.00    +0.000 C 
BRANCH  30  32
ATOM     31  C   UNL     1       3.798   1.421  18.684  0.00  0.00    +0.000 C 
ATOM     32  C   UNL     1       4.149   2.445  19.724  0.00  0.00    +0.000 C 
ATOM     33  O   UNL     1       5.282   2.929  19.784  0.00  0.00    +0.000 OA
ENDBRANCH  30  32
ENDBRANCH  29  30
ENDBRANCH  28  29
ENDBRANCH  27  28
ENDBRANCH  26  27
ENDBRANCH   1  26
TORSDOF 11
ENDMDL
MODEL 6
REMARK VINA RESULT:      -7.2      4.736      7.896
REMARK  Name = 
REMARK  13 active torsions:
REMARK  status: ('A' for Active; 'I' for Inactive)
REMARK    1  A    between atoms: C_1  and  C_2
REMARK    2  A    between atoms: C_2  and  C_4
REMARK    3  A    between atoms: C_4  and  C_5
REMARK    4  A    between atoms: C_5  and  C_6
REMARK    5  A    between atoms: C_6  and  C_7
REMARK    6  A    between atoms: C_7  and  C_8
REMARK    7  A    between atoms: C_8  and  C_9
REMARK    8  A    between atoms: C_9  and  N_10
REMARK    9  A    between atoms: C_9  and  C_21
REMARK   10  A    between atoms: C_11  and  C_13
REMARK   11  A    between atoms: C_13  and  N_14
REMARK   12  A    between atoms: N_17  and  C_18
REMARK   13  A    between atoms: C_24  and  C_25
REMARK                            x       y       z     vdW  Elec       q    Type
REMARK                         _______ _______ _______ _____ _____    ______ ____
ROOT
ATOM      1  C   UNL     1       2.042   7.114  20.694  0.00  0.00    +0.000 C 
ENDROOT
BRANCH   1   2
ATOM      2  C   UNL     1       2.710   7.144  19.350  0.00  0.00    +0.000 A 
ATOM      3  N   UNL     1       2.433   7.951  18.341  0.00  0.00    +0.000 NA
ATOM      4  C   UNL     1       3.248   7.554  17.322  0.00  0.00    +0.000 A 
ATOM      5  C   UNL     1       4.096   6.535  17.713  0.00  0.00    +0.000 A 
ATOM      6  N   UNL     1       3.699   6.260  19.001  0.00  0.00    +0.000 N 
ATOM      7  H   UNL     1       4.091   5.548  19.605  0.00  0.00    +0.000 HD
BRANCH   5   8
ATOM      8  C   UNL     1       5.183   5.861  17.018  0.00  0.00    +0.000 A 
ATOM      9  C   UNL     1       5.102   5.634  15.634  0.00  0.00    +0.000 A 
ATOM     10  C   UNL     1       6.140   4.990  14.959  0.00  0.00    +0.000 A 
ATOM     11  C   UNL     1       7.268   4.561  15.657  0.00  0.00    +0.000 A 
ATOM     12  C   UNL     1       7.358   4.786  17.033  0.00  0.00    +0.000 A 
ATOM     13  C   UNL     1       6.325   5.434  17.703  0.00  0.00    +0.000 A 
ENDBRANCH   5   8
ENDBRANCH   1   2
BRANCH   1  14
ATOM     14  N   UNL     1       0.991   8.118  20.688  0.00  0.00    +0.000 N 
ATOM     15  C   UNL     1       0.929   9.130  21.618  0.00  0.00    +0.000 C 
ATOM     16  O   UNL     1       1.769   9.266  22.506  0.00  0.00    +0.000 OA
ATOM     17  H   UNL     1       0.395   8.165  19.869  0.00  0.00    +0.000 HD
BRANCH  15  18
ATOM     18  C   UNL     1      -0.243  10.115  21.439  0.00  0.00    +0.000 C 
BRANCH  18  19
ATOM     19  N   UNL     1      -0.150  10.787  20.128  0.00  0.00    +0.000 NA
ATOM     20  C   UNL     1       0.987  11.735  20.105  0.00  0.00    +0.000 C 
ATOM     21  C   UNL     1       1.096  12.497  18.767  0.00  0.00    +0.000 C 
ATOM     22  N   UNL     1      -0.131  13.198  18.346  0.00  0.00    +0.000 NA
ATOM     23  C   UNL     1      -0.354  14.413  19.126  0.00  0.00    +0.000 C 
ATOM     24  C   UNL     1      -1.274  12.269  18.445  0.00  0.00    +0.000 C 
ATOM     25  C   UNL     1      -1.391  11.520  19.799  0.00  0.00    +0.000 C 
ENDBRANCH  18  19
ENDBRANCH  15  18
ENDBRANCH   1  14
BRANCH   1  26
ATOM     26  C   UNL     1       1.443   5.728  21.003  0.00  0.00    +0.000 C 
BRANCH  26  27
ATOM     27  C   UNL     1       1.329   4.841  19.764  0.00  0.00    +0.000 C 
BRANCH  27  28
ATOM     28  C   UNL     1       0.699   3.485  20.086  0.00  0.00    +0.000 C 
BRANCH  28  29
ATOM     29  C   UNL     1       1.583   2.330  19.612  0.00  0.00    +0.000 C 
BRANCH  29  30
ATOM     30  C   UNL     1       2.974   2.368  20.244  0.00  0.00    +0.000 C 
BRANCH  30  32
ATOM     31  C   UNL     1       3.746   2.540  17.815  0.00  0.00    +0.000 C 
ATOM     32  C   UNL     1       4.049   2.774  19.267  0.00  0.00    +0.000 C 
ATOM     33  O   UNL     1       5.125   3.262  19.621  0.00  0.00    +0.000 OA
ENDBRANCH  30  32
ENDBRANCH  29  30
ENDBRANCH  28  29
ENDBRANCH  27  28
ENDBRANCH  26  27
ENDBRANCH   1  26
TORSDOF 11
ENDMDL
MODEL 7
REMARK VINA RESULT:      -7.0      4.243      8.006
REMARK  Name = 
REMARK  13 active torsions:
REMARK  status: ('A' for Active; 'I' for Inactive)
REMARK    1  A    between atoms: C_1  and  C_2
REMARK    2  A    between atoms: C_2  and  C_4
REMARK    3  A    between atoms: C_4  and  C_5
REMARK    4  A    between atoms: C_5  and  C_6
REMARK    5  A    between atoms: C_6  and  C_7
REMARK    6  A    between atoms: C_7  and  C_8
REMARK    7  A    between atoms: C_8  and  C_9
REMARK    8  A    between atoms: C_9  and  N_10
REMARK    9  A    between atoms: C_9  and  C_21
REMARK   10  A    between atoms: C_11  and  C_13
REMARK   11  A    between atoms: C_13  and  N_14
REMARK   12  A    between atoms: N_17  and  C_18
REMARK   13  A    between atoms: C_24  and  C_25
REMARK                            x       y       z     vdW  Elec       q    Type
REMARK                         _______ _______ _______ _____ _____    ______ ____
ROOT
ATOM      1  C   UNL     1       3.440   6.574  18.484  0.00  0.00    +0.000 C 
ENDROOT
BRANCH   1   2
ATOM      2  C   UNL     1       4.666   6.171  17.717  0.00  0.00    +0.000 A 
ATOM      3  N   UNL     1       5.914   6.176  18.150  0.00  0.00    +0.000 NA
ATOM      4  C   UNL     1       6.673   5.800  17.082  0.00  0.00    +0.000 A 
ATOM      5  C   UNL     1       5.892   5.485  15.986  0.00  0.00    +0.000 A 
ATOM      6  N   UNL     1       4.614   5.775  16.405  0.00  0.00    +0.000 N 
ATOM      7  H   UNL     1       3.772   5.683  15.851  0.00  0.00    +0.000 HD
BRANCH   5   8
ATOM      8  C   UNL     1       6.235   4.956  14.673  0.00  0.00    +0.000 A 
ATOM      9  C   UNL     1       5.398   4.015  14.051  0.00  0.00    +0.000 A 
ATOM     10  C   UNL     1       5.719   3.504  12.793  0.00  0.00    +0.000 A 
ATOM     11  C   UNL     1       6.878   3.922  12.143  0.00  0.00    +0.000 A 
ATOM     12  C   UNL     1       7.714   4.862  12.752  0.00  0.00    +0.000 A 
ATOM     13  C   UNL     1       7.390   5.374  14.005  0.00  0.00    +0.000 A 
ENDBRANCH   5   8
ENDBRANCH   1   2
BRANCH   1  14
ATOM     14  N   UNL     1       2.975   7.840  17.941  0.00  0.00    +0.000 N 
ATOM     15  C   UNL     1       2.091   8.653  18.612  0.00  0.00    +0.000 C 
ATOM     16  O   UNL     1       1.649   8.375  19.725  0.00  0.00    +0.000 OA
ATOM     17  H   UNL     1       3.457   8.203  17.127  0.00  0.00    +0.000 HD
BRANCH  15  18
ATOM     18  C   UNL     1       1.730   9.966  17.890  0.00  0.00    +0.000 C 
BRANCH  18  19
ATOM     19  N   UNL     1       1.597  11.066  18.867  0.00  0.00    +0.000 NA
ATOM     20  C   UNL     1       0.171  11.332  19.163  0.00  0.00    +0.000 C 
ATOM     21  C   UNL     1      -0.020  12.507  20.147  0.00  0.00    +0.000 C 
ATOM     22  N   UNL     1       0.640  13.765  19.751  0.00  0.00    +0.000 NA
ATOM     23  C   UNL     1      -0.078  14.434  18.668  0.00  0.00    +0.000 C 
ATOM     24  C   UNL     1       2.040  13.479  19.383  0.00  0.00    +0.000 C 
ATOM     25  C   UNL     1       2.226  12.311  18.378  0.00  0.00    +0.000 C 
ENDBRANCH  18  19
ENDBRANCH  15  18
ENDBRANCH   1  14
BRANCH   1  26
ATOM     26  C   UNL     1       2.325   5.515  18.379  0.00  0.00    +0.000 C 
BRANCH  26  27
ATOM     27  C   UNL     1       1.920   4.944  19.737  0.00  0.00    +0.000 C 
BRANCH  27  28
ATOM     28  C   UNL     1       1.037   3.703  19.595  0.00  0.00    +0.000 C 
BRANCH  28  29
ATOM     29  C   UNL     1       1.723   2.460  20.167  0.00  0.00    +0.000 C 
BRANCH  29  30
ATOM     30  C   UNL     1       3.241   2.505  19.991  0.00  0.00    +0.000 C 
BRANCH  30  32
ATOM     31  C   UNL     1       3.818   2.580  17.504  0.00  0.00    +0.000 C 
ATOM     32  C   UNL     1       3.709   1.767  18.762  0.00  0.00    +0.000 C 
ATOM     33  O   UNL     1       3.981   0.564  18.767  0.00  0.00    +0.000 OA
ENDBRANCH  30  32
ENDBRANCH  29  30
ENDBRANCH  28  29
ENDBRANCH  27  28
ENDBRANCH  26  27
ENDBRANCH   1  26
TORSDOF 11
ENDMDL
MODEL 8
REMARK VINA RESULT:      -6.9      4.576      8.154
REMARK  Name = 
REMARK  13 active torsions:
REMARK  status: ('A' for Active; 'I' for Inactive)
REMARK    1  A    between atoms: C_1  and  C_2
REMARK    2  A    between atoms: C_2  and  C_4
REMARK    3  A    between atoms: C_4  and  C_5
REMARK    4  A    between atoms: C_5  and  C_6
REMARK    5  A    between atoms: C_6  and  C_7
REMARK    6  A    between atoms: C_7  and  C_8
REMARK    7  A    between atoms: C_8  and  C_9
REMARK    8  A    between atoms: C_9  and  N_10
REMARK    9  A    between atoms: C_9  and  C_21
REMARK   10  A    between atoms: C_11  and  C_13
REMARK   11  A    between atoms: C_13  and  N_14
REMARK   12  A    between atoms: N_17  and  C_18
REMARK   13  A    between atoms: C_24  and  C_25
REMARK                            x       y       z     vdW  Elec       q    Type
REMARK                         _______ _______ _______ _____ _____    ______ ____
ROOT
ATOM      1  C   UNL     1       3.222   6.063  18.212  0.00  0.00    +0.000 C 
ENDROOT
BRANCH   1   2
ATOM      2  C   UNL     1       4.507   5.688  17.533  0.00  0.00    +0.000 A 
ATOM      3  N   UNL     1       5.693   5.544  18.097  0.00  0.00    +0.000 NA
ATOM      4  C   UNL     1       6.553   5.271  17.074  0.00  0.00    +0.000 A 
ATOM      5  C   UNL     1       5.892   5.172  15.863  0.00  0.00    +0.000 A 
ATOM      6  N   UNL     1       4.591   5.488  16.178  0.00  0.00    +0.000 N 
ATOM      7  H   UNL     1       3.816   5.535  15.528  0.00  0.00    +0.000 HD
BRANCH   5   8
ATOM      8  C   UNL     1       6.360   4.812  14.533  0.00  0.00    +0.000 A 
ATOM      9  C   UNL     1       7.529   5.394  14.014  0.00  0.00    +0.000 A 
ATOM     10  C   UNL     1       7.985   5.055  12.740  0.00  0.00    +0.000 A 
ATOM     11  C   UNL     1       7.280   4.134  11.967  0.00  0.00    +0.000 A 
ATOM     12  C   UNL     1       6.119   3.546  12.476  0.00  0.00    +0.000 A 
ATOM     13  C   UNL     1       5.668   3.883  13.749  0.00  0.00    +0.000 A 
ENDBRANCH   5   8
ENDBRANCH   1   2
BRANCH   1  14
ATOM     14  N   UNL     1       2.865   7.403  17.775  0.00  0.00    +0.000 N 
ATOM     15  C   UNL     1       2.194   8.291  18.583  0.00  0.00    +0.000 C 
ATOM     16  O   UNL     1       1.866   8.020  19.738  0.00  0.00    +0.000 OA
ATOM     17  H   UNL     1       3.282   7.740  16.915  0.00  0.00    +0.000 HD
BRANCH  15  18
ATOM     18  C   UNL     1       1.924   9.673  17.957  0.00  0.00    +0.000 C 
BRANCH  18  19
ATOM     19  N   UNL     1       1.319  10.577  18.956  0.00  0.00    +0.000 NA
ATOM     20  C   UNL     1      -0.138  10.710  18.728  0.00  0.00    +0.000 C 
ATOM     21  C   UNL     1      -0.807  11.683  19.722  0.00  0.00    +0.000 C 
ATOM     22  N   UNL     1      -0.199  13.025  19.786  0.00  0.00    +0.000 NA
ATOM     23  C   UNL     1      -0.547  13.832  18.619  0.00  0.00    +0.000 C 
ATOM     24  C   UNL     1       1.262  12.885  19.937  0.00  0.00    +0.000 C 
ATOM     25  C   UNL     1       1.933  11.921  18.922  0.00  0.00    +0.000 C 
ENDBRANCH  18  19
ENDBRANCH  15  18
ENDBRANCH   1  14
BRANCH   1  26
ATOM     26  C   UNL     1       2.085   5.080  17.870  0.00  0.00    +0.000 C 
BRANCH  26  27
ATOM     27  C   UNL     1       2.600   3.717  17.406  0.00  0.00    +0.000 C 
BRANCH  27  28
ATOM     28  C   UNL     1       1.822   2.565  18.044  0.00  0.00    +0.000 C 
BRANCH  28  29
ATOM     29  C   UNL     1       2.690   1.784  19.033  0.00  0.00    +0.000 C 
BRANCH  29  30
ATOM     30  C   UNL     1       3.261   2.679  20.133  0.00  0.00    +0.000 C 
BRANCH  30  32
ATOM     31  C   UNL     1       0.843   3.193  20.778  0.00  0.00    +0.000 C 
ATOM     32  C   UNL     1       2.261   2.975  21.223  0.00  0.00    +0.000 C 
ATOM     33  O   UNL     1       2.571   3.049  22.414  0.00  0.00    +0.000 OA
ENDBRANCH  30  32
ENDBRANCH  29  30
ENDBRANCH  28  29
ENDBRANCH  27  28
ENDBRANCH  26  27
ENDBRANCH   1  26
TORSDOF 11
ENDMDL
MODEL 9
REMARK VINA RESULT:      -6.9      4.501      7.942
REMARK  Name = 
REMARK  13 active torsions:
REMARK  status: ('A' for Active; 'I' for Inactive)
REMARK    1  A    between atoms: C_1  and  C_2
REMARK    2  A    between atoms: C_2  and  C_4
REMARK    3  A    between atoms: C_4  and  C_5
REMARK    4  A    between atoms: C_5  and  C_6
REMARK    5  A    between atoms: C_6  and  C_7
REMARK    6  A    between atoms: C_7  and  C_8
REMARK    7  A    between atoms: C_8  and  C_9
REMARK    8  A    between atoms: C_9  and  N_10
REMARK    9  A    between atoms: C_9  and  C_21
REMARK   10  A    between atoms: C_11  and  C_13
REMARK   11  A    between atoms: C_13  and  N_14
REMARK   12  A    between atoms: N_17  and  C_18
REMARK   13  A    between atoms: C_24  and  C_25
REMARK                            x       y       z     vdW  Elec       q    Type
REMARK                         _______ _______ _______ _____ _____    ______ ____
ROOT
ATOM      1  C   UNL     1       2.880   6.309  19.955  0.00  0.00    +0.000 C 
ENDROOT
BRANCH   1   2
ATOM      2  C   UNL     1       4.062   5.740  19.225  0.00  0.00    +0.000 A 
ATOM      3  N   UNL     1       5.184   5.288  19.756  0.00  0.00    +0.000 NA
ATOM      4  C   UNL     1       5.976   4.945  18.700  0.00  0.00    +0.000 A 
ATOM      5  C   UNL     1       5.322   5.116  17.494  0.00  0.00    +0.000 A 
ATOM      6  N   UNL     1       4.115   5.669  17.856  0.00  0.00    +0.000 N 
ATOM      7  H   UNL     1       3.376   5.948  17.223  0.00  0.00    +0.000 HD
BRANCH   5   8
ATOM      8  C   UNL     1       5.716   4.805  16.128  0.00  0.00    +0.000 A 
ATOM      9  C   UNL     1       6.981   5.189  15.653  0.00  0.00    +0.000 A 
ATOM     10  C   UNL     1       7.367   4.893  14.345  0.00  0.00    +0.000 A 
ATOM     11  C   UNL     1       6.496   4.216  13.495  0.00  0.00    +0.000 A 
ATOM     12  C   UNL     1       5.237   3.826  13.960  0.00  0.00    +0.000 A 
ATOM     13  C   UNL     1       4.856   4.117  15.266  0.00  0.00    +0.000 A 
ENDBRANCH   5   8
ENDBRANCH   1   2
BRANCH   1  14
ATOM     14  N   UNL     1       2.343   7.394  19.150  0.00  0.00    +0.000 N 
ATOM     15  C   UNL     1       1.615   8.427  19.692  0.00  0.00    +0.000 C 
ATOM     16  O   UNL     1       1.383   8.515  20.897  0.00  0.00    +0.000 OA
ATOM     17  H   UNL     1       2.671   7.472  18.194  0.00  0.00    +0.000 HD
BRANCH  15  18
ATOM     18  C   UNL     1       1.148   9.499  18.687  0.00  0.00    +0.000 C 
BRANCH  18  19
ATOM     19  N   UNL     1       0.354  10.536  19.378  0.00  0.00    +0.000 NA
ATOM     20  C   UNL     1      -0.735  11.028  18.505  0.00  0.00    +0.000 C 
ATOM     21  C   UNL     1      -1.565  12.148  19.169  0.00  0.00    +0.000 C 
ATOM     22  N   UNL     1      -0.782  13.295  19.665  0.00  0.00    +0.000 NA
ATOM     23  C   UNL     1      -0.327  14.152  18.573  0.00  0.00    +0.000 C 
ATOM     24  C   UNL     1       0.349  12.793  20.471  0.00  0.00    +0.000 C 
ATOM     25  C   UNL     1       1.192  11.681  19.791  0.00  0.00    +0.000 C 
ENDBRANCH  18  19
ENDBRANCH  15  18
ENDBRANCH   1  14
BRANCH   1  26
ATOM     26  C   UNL     1       1.791   5.246  20.197  0.00  0.00    +0.000 C 
BRANCH  26  27
ATOM     27  C   UNL     1       2.167   4.252  21.295  0.00  0.00    +0.000 C 
BRANCH  27  28
ATOM     28  C   UNL     1       2.077   2.804  20.812  0.00  0.00    +0.000 C 
BRANCH  28  29
ATOM     29  C   UNL     1       3.383   2.351  20.156  0.00  0.00    +0.000 C 
BRANCH  29  30
ATOM     30  C   UNL     1       3.195   1.986  18.684  0.00  0.00    +0.000 C 
BRANCH  30  32
ATOM     31  C   UNL     1       0.646   2.092  18.561  0.00  0.00    +0.000 C 
ATOM     32  C   UNL     1       1.967   2.618  18.078  0.00  0.00    +0.000 C 
ATOM     33  O   UNL     1       2.023   3.509  17.227  0.00  0.00    +0.000 OA
ENDBRANCH  30  32
ENDBRANCH  29  30
ENDBRANCH  28  29
ENDBRANCH  27  28
ENDBRANCH  26  27
ENDBRANCH   1  26
TORSDOF 11
ENDMDL
