MODEL 1
REMARK VINA RESULT:      -7.7      0.000      0.000
REMARK  Name = 
REMARK  5 active torsions:
REMARK  status: ('A' for Active; 'I' for Inactive)
REMARK    1  A    between atoms: C_1  and  C_2
REMARK    2  A    between atoms: C_5  and  C_7
REMARK    3  A    between atoms: C_8  and  C_9
REMARK    4  A    between atoms: C_14  and  N_15
REMARK    5  A    between atoms: C_19  and  C_20
REMARK                            x       y       z     vdW  Elec       q    Type
REMARK                         _______ _______ _______ _____ _____    ______ ____
ROOT
ATOM      1  C   UNL     1       4.541   3.954  16.682  0.00  0.00    +0.000 C 
ATOM      2  C   UNL     1       5.325   3.231  15.867  0.00  0.00    +0.000 C 
ENDROOT
BRANCH   1   7
ATOM      3  C   UNL     1       0.876   3.356  19.549  0.00  0.00    +0.000 C 
ATOM      4  C   UNL     1       1.891   3.977  20.505  0.00  0.00    +0.000 C 
ATOM      5  C   UNL     1       3.332   3.498  20.249  0.00  0.00    +0.000 C 
ATOM      6  N   UNL     1       3.877   4.102  19.033  0.00  0.00    +0.000 N 
ATOM      7  C   UNL     1       3.973   3.319  17.898  0.00  0.00    +0.000 C 
ATOM      8  O   UNL     1       3.657   2.131  17.873  0.00  0.00    +0.000 OA
ATOM      9  C   UNL     1       3.807   5.567  19.057  0.00  0.00    +0.000 C 
ATOM     10  C   UNL     1       2.352   6.017  19.297  0.00  0.00    +0.000 C 
ATOM     11  C   UNL     1       2.276   7.529  19.468  0.00  0.00    +0.000 C 
ATOM     12  O   UNL     1       1.813   5.418  20.493  0.00  0.00    +0.000 OA
ENDBRANCH   1   7
BRANCH   2  13
ATOM     13  C   UNL     1       6.072   3.857  14.773  0.00  0.00    +0.000 A 
ATOM     14  C   UNL     1       5.727   3.463  13.470  0.00  0.00    +0.000 A 
ATOM     15  C   UNL     1       6.379   4.003  12.358  0.00  0.00    +0.000 A 
ATOM     16  C   UNL     1       7.384   4.955  12.525  0.00  0.00    +0.000 A 
ATOM     17  C   UNL     1       7.744   5.367  13.808  0.00  0.00    +0.000 A 
ATOM     18  C   UNL     1       7.092   4.810  14.917  0.00  0.00    +0.000 A 
BRANCH  18  19
ATOM     19  N   UNL     1       7.514   5.255  16.234  0.00  0.00    +0.000 N 
ATOM     20  O   UNL     1       8.012   4.407  16.989  0.00  0.00    +0.000 OA
ATOM     21  O   UNL     1       7.391   6.459  16.486  0.00  0.00    +0.000 OA
ENDBRANCH  18  19
ENDBRANCH   2  13
TORSDOF 3
ENDMDL
MODEL 2
REMARK VINA RESULT:      -7.6      1.778      2.545
REMARK  Name = 
REMARK  5 active torsions:
REMARK  status: ('A' for Active; 'I' for Inactive)
REMARK    1  A    between atoms: C_1  and  C_2
REMARK    2  A    between atoms: C_5  and  C_7
REMARK    3  A    between atoms: C_8  and  C_9
REMARK    4  A    between atoms: C_14  and  N_15
REMARK    5  A    between atoms: C_19  and  C_20
REMARK                            x       y       z     vdW  Elec       q    Type
REMARK                         _______ _______ _______ _____ _____    ______ ____
ROOT
ATOM      1  C   UNL     1       3.235   3.565  16.582  0.00  0.00    +0.000 C 
ATOM      2  C   UNL     1       4.366   4.228  16.870  0.00  0.00    +0.000 C 
ENDROOT
BRANCH   1   7
ATOM      3  C   UNL     1       1.660   4.657  20.863  0.00  0.00    +0.000 C 
ATOM      4  C   UNL     1       1.463   3.144  20.861  0.00  0.00    +0.000 C 
ATOM      5  C   UNL     1       1.007   2.596  19.496  0.00  0.00    +0.000 C 
ATOM      6  N   UNL     1       2.109   2.609  18.533  0.00  0.00    +0.000 N 
ATOM      7  C   UNL     1       2.112   3.583  17.553  0.00  0.00    +0.000 C 
ATOM      8  O   UNL     1       1.215   4.416  17.430  0.00  0.00    +0.000 OA
ATOM      9  C   UNL     1       3.288   1.885  19.023  0.00  0.00    +0.000 C 
ATOM     10  C   UNL     1       3.731   2.466  20.381  0.00  0.00    +0.000 C 
ATOM     11  C   UNL     1       4.864   1.640  20.976  0.00  0.00    +0.000 C 
ATOM     12  O   UNL     1       2.644   2.458  21.328  0.00  0.00    +0.000 OA
ENDBRANCH   1   7
BRANCH   2  13
ATOM     13  C   UNL     1       5.419   4.414  15.869  0.00  0.00    +0.000 A 
ATOM     14  C   UNL     1       5.104   4.050  14.550  0.00  0.00    +0.000 A 
ATOM     15  C   UNL     1       6.039   4.191  13.521  0.00  0.00    +0.000 A 
ATOM     16  C   UNL     1       7.308   4.707  13.788  0.00  0.00    +0.000 A 
ATOM     17  C   UNL     1       7.645   5.080  15.089  0.00  0.00    +0.000 A 
ATOM     18  C   UNL     1       6.703   4.923  16.116  0.00  0.00    +0.000 A 
BRANCH  18  19
ATOM     19  N   UNL     1       7.106   5.306  17.458  0.00  0.00    +0.000 N 
ATOM     20  O   UNL     1       7.727   4.467  18.127  0.00  0.00    +0.000 OA
ATOM     21  O   UNL     1       6.844   6.460  17.815  0.00  0.00    +0.000 OA
ENDBRANCH  18  19
ENDBRANCH   2  13
TORSDOF 3
ENDMDL
MODEL 3
REMARK VINA RESULT:      -7.5      3.657      6.132
REMARK  Name = 
REMARK  5 active torsions:
REMARK  status: ('A' for Active; 'I' for Inactive)
REMARK    1  A    between atoms: C_1  and  C_2
REMARK    2  A    between atoms: C_5  and  C_7
REMARK    3  A    between atoms: C_8  and  C_9
REMARK    4  A    between atoms: C_14  and  N_15
REMARK    5  A    between atoms: C_19  and  C_20
REMARK                            x       y       z     vdW  Elec       q    Type
REMARK                         _______ _______ _______ _____ _____    ______ ____
ROOT
ATOM      1  C   UNL     1       2.031   8.256  18.583  0.00  0.00    +0.000 C 
ATOM      2  C   UNL     1       3.003   7.803  17.776  0.00  0.00    +0.000 C 
ENDROOT
BRANCH   1   7
ATOM      3  C   UNL     1       1.856  12.623  20.288  0.00  0.00    +0.000 C 
ATOM      4  C   UNL     1       0.374  12.257  20.280  0.00  0.00    +0.000 C 
ATOM      5  C   UNL     1      -0.030  11.405  19.063  0.00  0.00    +0.000 C 
ATOM      6  N   UNL     1       0.465  10.035  19.195  0.00  0.00    +0.000 N 
ATOM      7  C   UNL     1       1.557   9.656  18.438  0.00  0.00    +0.000 C 
ATOM      8  O   UNL     1       2.108  10.404  17.632  0.00  0.00    +0.000 OA
ATOM      9  C   UNL     1       0.032   9.403  20.447  0.00  0.00    +0.000 C 
ATOM     10  C   UNL     1       0.466  10.268  21.647  0.00  0.00    +0.000 C 
ATOM     11  C   UNL     1      -0.095   9.707  22.947  0.00  0.00    +0.000 C 
ATOM     12  O   UNL     1      -0.018  11.620  21.514  0.00  0.00    +0.000 OA
ENDBRANCH   1   7
BRANCH   2  13
ATOM     13  C   UNL     1       3.364   6.384  17.737  0.00  0.00    +0.000 A 
ATOM     14  C   UNL     1       2.527   5.503  18.439  0.00  0.00    +0.000 A 
ATOM     15  C   UNL     1       2.783   4.129  18.461  0.00  0.00    +0.000 A 
ATOM     16  C   UNL     1       3.879   3.606  17.774  0.00  0.00    +0.000 A 
ATOM     17  C   UNL     1       4.725   4.460  17.066  0.00  0.00    +0.000 A 
ATOM     18  C   UNL     1       4.465   5.838  17.060  0.00  0.00    +0.000 A 
BRANCH  18  19
ATOM     19  N   UNL     1       5.385   6.689  16.326  0.00  0.00    +0.000 N 
ATOM     20  O   UNL     1       6.357   7.146  16.946  0.00  0.00    +0.000 OA
ATOM     21  O   UNL     1       5.157   6.853  15.121  0.00  0.00    +0.000 OA
ENDBRANCH  18  19
ENDBRANCH   2  13
TORSDOF 3
ENDMDL
MODEL 4
REMARK VINA RESULT:      -7.3      3.725      7.663
REMARK  Name = 
REMARK  5 active torsions:
REMARK  status: ('A' for Active; 'I' for Inactive)
REMARK    1  A    between atoms: C_1  and  C_2
REMARK    2  A    between atoms: C_5  and  C_7
REMARK    3  A    between atoms: C_8  and  C_9
REMARK    4  A    between atoms: C_14  and  N_15
REMARK    5  A    between atoms: C_19  and  C_20
REMARK                            x       y       z     vdW  Elec       q    Type
REMARK                         _______ _______ _______ _____ _____    ______ ____
ROOT
ATOM      1  C   UNL     1       1.871   8.081  17.963  0.00  0.00    +0.000 C 
ATOM      2  C   UNL     1       1.760   9.190  18.710  0.00  0.00    +0.000 C 
ENDROOT
BRANCH   1   7
ATOM      3  C   UNL     1       4.026   3.974  17.256  0.00  0.00    +0.000 C 
ATOM      4  C   UNL     1       4.188   4.128  18.766  0.00  0.00    +0.000 C 
ATOM      5  C   UNL     1       4.446   5.583  19.200  0.00  0.00    +0.000 C 
ATOM      6  N   UNL     1       3.226   6.385  19.094  0.00  0.00    +0.000 N 
ATOM      7  C   UNL     1       3.113   7.271  18.039  0.00  0.00    +0.000 C 
ATOM      8  O   UNL     1       4.004   7.444  17.209  0.00  0.00    +0.000 OA
ATOM      9  C   UNL     1       2.108   5.803  19.844  0.00  0.00    +0.000 C 
ATOM     10  C   UNL     1       1.863   4.354  19.377  0.00  0.00    +0.000 C 
ATOM     11  C   UNL     1       0.801   3.682  20.238  0.00  0.00    +0.000 C 
ATOM     12  O   UNL     1       3.065   3.565  19.477  0.00  0.00    +0.000 OA
ENDBRANCH   1   7
BRANCH   2  13
ATOM     13  C   UNL     1       0.489   9.908  18.828  0.00  0.00    +0.000 A 
ATOM     14  C   UNL     1      -0.435   9.726  17.787  0.00  0.00    +0.000 A 
ATOM     15  C   UNL     1      -1.678  10.364  17.807  0.00  0.00    +0.000 A 
ATOM     16  C   UNL     1      -2.027  11.193  18.873  0.00  0.00    +0.000 A 
ATOM     17  C   UNL     1      -1.128  11.389  19.923  0.00  0.00    +0.000 A 
ATOM     18  C   UNL     1       0.121  10.753  19.886  0.00  0.00    +0.000 A 
BRANCH  18  19
ATOM     19  N   UNL     1       1.030  11.002  20.991  0.00  0.00    +0.000 N 
ATOM     20  O   UNL     1       1.636  12.084  20.997  0.00  0.00    +0.000 OA
ATOM     21  O   UNL     1       1.095  10.135  21.871  0.00  0.00    +0.000 OA
ENDBRANCH  18  19
ENDBRANCH   2  13
TORSDOF 3
ENDMDL
MODEL 5
REMARK VINA RESULT:      -7.3      4.081      8.354
REMARK  Name = 
REMARK  5 active torsions:
REMARK  status: ('A' for Active; 'I' for Inactive)
REMARK    1  A    between atoms: C_1  and  C_2
REMARK    2  A    between atoms: C_5  and  C_7
REMARK    3  A    between atoms: C_8  and  C_9
REMARK    4  A    between atoms: C_14  and  N_15
REMARK    5  A    between atoms: C_19  and  C_20
REMARK                            x       y       z     vdW  Elec       q    Type
REMARK                         _______ _______ _______ _____ _____    ______ ____
ROOT
ATOM      1  C   UNL     1       1.520   7.501  20.301  0.00  0.00    +0.000 C 
ATOM      2  C   UNL     1       1.331   8.811  20.078  0.00  0.00    +0.000 C 
ENDROOT
BRANCH   1   7
ATOM      3  C   UNL     1       2.383   3.849  17.485  0.00  0.00    +0.000 C 
ATOM      4  C   UNL     1       3.362   3.573  18.624  0.00  0.00    +0.000 C 
ATOM      5  C   UNL     1       4.001   4.853  19.193  0.00  0.00    +0.000 C 
ATOM      6  N   UNL     1       3.038   5.605  19.999  0.00  0.00    +0.000 N 
ATOM      7  C   UNL     1       2.485   6.750  19.458  0.00  0.00    +0.000 C 
ATOM      8  O   UNL     1       2.790   7.185  18.349  0.00  0.00    +0.000 OA
ATOM      9  C   UNL     1       2.447   4.792  21.067  0.00  0.00    +0.000 C 
ATOM     10  C   UNL     1       1.800   3.528  20.465  0.00  0.00    +0.000 C 
ATOM     11  C   UNL     1       1.305   2.600  21.567  0.00  0.00    +0.000 C 
ATOM     12  O   UNL     1       2.747   2.789  19.669  0.00  0.00    +0.000 OA
ENDBRANCH   1   7
BRANCH   2  13
ATOM     13  C   UNL     1       0.553   9.638  21.002  0.00  0.00    +0.000 A 
ATOM     14  C   UNL     1       0.260   9.077  22.255  0.00  0.00    +0.000 A 
ATOM     15  C   UNL     1      -0.476   9.786  23.209  0.00  0.00    +0.000 A 
ATOM     16  C   UNL     1      -0.927  11.077  22.933  0.00  0.00    +0.000 A 
ATOM     17  C   UNL     1      -0.646  11.660  21.697  0.00  0.00    +0.000 A 
ATOM     18  C   UNL     1       0.082  10.935  20.743  0.00  0.00    +0.000 A 
BRANCH  18  19
ATOM     19  N   UNL     1       0.332  11.575  19.464  0.00  0.00    +0.000 N 
ATOM     20  O   UNL     1       1.391  12.209  19.342  0.00  0.00    +0.000 OA
ATOM     21  O   UNL     1      -0.507  11.398  18.573  0.00  0.00    +0.000 OA
ENDBRANCH  18  19
ENDBRANCH   2  13
TORSDOF 3
ENDMDL
MODEL 6
REMARK VINA RESULT:      -7.2      3.321      7.293
REMARK  Name = 
REMARK  5 active torsions:
REMARK  status: ('A' for Active; 'I' for Inactive)
REMARK    1  A    between atoms: C_1  and  C_2
REMARK    2  A    between atoms: C_5  and  C_7
REMARK    3  A    between atoms: C_8  and  C_9
REMARK    4  A    between atoms: C_14  and  N_15
REMARK    5  A    between atoms: C_19  and  C_20
REMARK                            x       y       z     vdW  Elec       q    Type
REMARK                         _______ _______ _______ _____ _____    ______ ____
ROOT
ATOM      1  C   UNL     1       2.151   7.440  18.127  0.00  0.00    +0.000 C 
ATOM      2  C   UNL     1       2.166   8.642  18.724  0.00  0.00    +0.000 C 
ENDROOT
BRANCH   1   7
ATOM      3  C   UNL     1       4.172   3.260  17.452  0.00  0.00    +0.000 C 
ATOM      4  C   UNL     1       4.508   3.509  18.920  0.00  0.00    +0.000 C 
ATOM      5  C   UNL     1       4.827   4.985  19.225  0.00  0.00    +0.000 C 
ATOM      6  N   UNL     1       3.611   5.798  19.206  0.00  0.00    +0.000 N 
ATOM      7  C   UNL     1       3.386   6.616  18.115  0.00  0.00    +0.000 C 
ATOM      8  O   UNL     1       4.177   6.720  17.179  0.00  0.00    +0.000 OA
ATOM      9  C   UNL     1       2.581   5.284  20.116  0.00  0.00    +0.000 C 
ATOM     10  C   UNL     1       2.270   3.813  19.776  0.00  0.00    +0.000 C 
ATOM     11  C   UNL     1       1.309   3.215  20.796  0.00  0.00    +0.000 C 
ATOM     12  O   UNL     1       3.469   3.012  19.790  0.00  0.00    +0.000 OA
ENDBRANCH   1   7
BRANCH   2  13
ATOM     13  C   UNL     1       0.934   9.401  18.944  0.00  0.00    +0.000 A 
ATOM     14  C   UNL     1       0.242   9.824  17.797  0.00  0.00    +0.000 A 
ATOM     15  C   UNL     1      -0.946  10.553  17.900  0.00  0.00    +0.000 A 
ATOM     16  C   UNL     1      -1.473  10.868  19.153  0.00  0.00    +0.000 A 
ATOM     17  C   UNL     1      -0.808  10.457  20.308  0.00  0.00    +0.000 A 
ATOM     18  C   UNL     1       0.390   9.737  20.193  0.00  0.00    +0.000 A 
BRANCH  18  19
ATOM     19  N   UNL     1       1.056   9.347  21.423  0.00  0.00    +0.000 N 
ATOM     20  O   UNL     1       1.477  10.255  22.156  0.00  0.00    +0.000 OA
ATOM     21  O   UNL     1       1.110   8.137  21.674  0.00  0.00    +0.000 OA
ENDBRANCH  18  19
ENDBRANCH   2  13
TORSDOF 3
ENDMDL
MODEL 7
REMARK VINA RESULT:      -7.2      2.951      7.414
REMARK  Name = 
REMARK  5 active torsions:
REMARK  status: ('A' for Active; 'I' for Inactive)
REMARK    1  A    between atoms: C_1  and  C_2
REMARK    2  A    between atoms: C_5  and  C_7
REMARK    3  A    between atoms: C_8  and  C_9
REMARK    4  A    between atoms: C_14  and  N_15
REMARK    5  A    between atoms: C_19  and  C_20
REMARK                            x       y       z     vdW  Elec       q    Type
REMARK                         _______ _______ _______ _____ _____    ______ ____
ROOT
ATOM      1  C   UNL     1       2.141   6.515  19.888  0.00  0.00    +0.000 C 
ATOM      2  C   UNL     1       1.361   7.336  20.609  0.00  0.00    +0.000 C 
ENDROOT
BRANCH   1   7
ATOM      3  C   UNL     1       4.371   2.401  20.234  0.00  0.00    +0.000 C 
ATOM      4  C   UNL     1       3.438   2.126  19.057  0.00  0.00    +0.000 C 
ATOM      5  C   UNL     1       2.054   2.781  19.218  0.00  0.00    +0.000 C 
ATOM      6  N   UNL     1       2.133   4.228  19.015  0.00  0.00    +0.000 N 
ATOM      7  C   UNL     1       2.071   5.050  20.124  0.00  0.00    +0.000 C 
ATOM      8  O   UNL     1       1.915   4.625  21.268  0.00  0.00    +0.000 OA
ATOM      9  C   UNL     1       2.735   4.580  17.723  0.00  0.00    +0.000 C 
ATOM     10  C   UNL     1       4.125   3.924  17.599  0.00  0.00    +0.000 C 
ATOM     11  C   UNL     1       4.708   4.157  16.211  0.00  0.00    +0.000 C 
ATOM     12  O   UNL     1       4.048   2.499  17.803  0.00  0.00    +0.000 OA
ENDBRANCH   1   7
BRANCH   2  13
ATOM     13  C   UNL     1       1.240   8.758  20.280  0.00  0.00    +0.000 A 
ATOM     14  C   UNL     1       1.546   9.126  18.960  0.00  0.00    +0.000 A 
ATOM     15  C   UNL     1       1.459  10.458  18.545  0.00  0.00    +0.000 A 
ATOM     16  C   UNL     1       1.057  11.450  19.440  0.00  0.00    +0.000 A 
ATOM     17  C   UNL     1       0.744  11.110  20.756  0.00  0.00    +0.000 A 
ATOM     18  C   UNL     1       0.846   9.773  21.165  0.00  0.00    +0.000 A 
BRANCH  18  19
ATOM     19  N   UNL     1       0.530   9.471  22.550  0.00  0.00    +0.000 N 
ATOM     20  O   UNL     1      -0.631   9.115  22.804  0.00  0.00    +0.000 OA
ATOM     21  O   UNL     1       1.456   9.541  23.366  0.00  0.00    +0.000 OA
ENDBRANCH  18  19
ENDBRANCH   2  13
TORSDOF 3
ENDMDL
MODEL 8
REMARK VINA RESULT:      -7.1      1.017      1.200
REMARK  Name = 
REMARK  5 active torsions:
REMARK  status: ('A' for Active; 'I' for Inactive)
REMARK    1  A    between atoms: C_1  and  C_2
REMARK    2  A    between atoms: C_5  and  C_7
REMARK    3  A    between atoms: C_8  and  C_9
REMARK    4  A    between atoms: C_14  and  N_15
REMARK    5  A    between atoms: C_19  and  C_20
REMARK                            x       y       z     vdW  Elec       q    Type
REMARK                         _______ _______ _______ _____ _____    ______ ____
ROOT
ATOM      1  C   UNL     1       4.898   3.013  17.982  0.00  0.00    +0.000 C 
ATOM      2  C   UNL     1       4.540   3.786  16.945  0.00  0.00    +0.000 C 
ENDROOT
BRANCH   1   7
ATOM      3  C   UNL     1       0.402   2.981  19.322  0.00  0.00    +0.000 C 
ATOM      4  C   UNL     1       1.078   3.489  20.593  0.00  0.00    +0.000 C 
ATOM      5  C   UNL     1       2.437   2.817  20.863  0.00  0.00    +0.000 C 
ATOM      6  N   UNL     1       3.458   3.311  19.939  0.00  0.00    +0.000 N 
ATOM      7  C   UNL     1       3.852   2.492  18.898  0.00  0.00    +0.000 C 
ATOM      8  O   UNL     1       3.411   1.356  18.734  0.00  0.00    +0.000 OA
ATOM      9  C   UNL     1       3.579   4.773  19.969  0.00  0.00    +0.000 C 
ATOM     10  C   UNL     1       2.208   5.417  19.678  0.00  0.00    +0.000 C 
ATOM     11  C   UNL     1       2.277   6.930  19.844  0.00  0.00    +0.000 C 
ATOM     12  O   UNL     1       1.201   4.927  20.586  0.00  0.00    +0.000 OA
ENDBRANCH   1   7
BRANCH   2  13
ATOM     13  C   UNL     1       5.498   4.156  15.901  0.00  0.00    +0.000 A 
ATOM     14  C   UNL     1       5.166   3.795  14.586  0.00  0.00    +0.000 A 
ATOM     15  C   UNL     1       6.012   4.105  13.518  0.00  0.00    +0.000 A 
ATOM     16  C   UNL     1       7.207   4.789  13.742  0.00  0.00    +0.000 A 
ATOM     17  C   UNL     1       7.560   5.162  15.039  0.00  0.00    +0.000 A 
ATOM     18  C   UNL     1       6.709   4.836  16.104  0.00  0.00    +0.000 A 
BRANCH  18  19
ATOM     19  N   UNL     1       7.128   5.227  17.439  0.00  0.00    +0.000 N 
ATOM     20  O   UNL     1       7.890   4.459  18.045  0.00  0.00    +0.000 OA
ATOM     21  O   UNL     1       6.733   6.324  17.852  0.00  0.00    +0.000 OA
ENDBRANCH  18  19
ENDBRANCH   2  13
TORSDOF 3
ENDMDL
MODEL 9
REMARK VINA RESULT:      -7.0      4.085      7.079
REMARK  Name = 
REMARK  5 active torsions:
REMARK  status: ('A' for Active; 'I' for Inactive)
REMARK    1  A    between atoms: C_1  and  C_2
REMARK    2  A    between atoms: C_5  and  C_7
REMARK    3  A    between atoms: C_8  and  C_9
REMARK    4  A    between atoms: C_14  and  N_15
REMARK    5  A    between atoms: C_19  and  C_20
REMARK                            x       y       z     vdW  Elec       q    Type
REMARK                         _______ _______ _______ _____ _____    ______ ____
ROOT
ATOM      1  C   UNL     1       1.070   7.681  21.057  0.00  0.00    +0.000 C 
ATOM      2  C   UNL     1       2.148   7.104  20.504  0.00  0.00    +0.000 C 
ENDROOT
BRANCH   1   7
ATOM      3  C   UNL     1      -1.216  11.666  22.009  0.00  0.00    +0.000 C 
ATOM      4  C   UNL     1      -0.388  12.091  20.800  0.00  0.00    +0.000 C 
ATOM      5  C   UNL     1       1.019  11.465  20.781  0.00  0.00    +0.000 C 
ATOM      6  N   UNL     1       0.956  10.045  20.433  0.00  0.00    +0.000 N 
ATOM      7  C   UNL     1       1.127   9.114  21.440  0.00  0.00    +0.000 C 
ATOM      8  O   UNL     1       1.364   9.423  22.607  0.00  0.00    +0.000 OA
ATOM      9  C   UNL     1       0.261   9.812  19.162  0.00  0.00    +0.000 C 
ATOM     10  C   UNL     1      -1.149  10.433  19.216  0.00  0.00    +0.000 C 
ATOM     11  C   UNL     1      -1.837  10.328  17.861  0.00  0.00    +0.000 C 
ATOM     12  O   UNL     1      -1.088  11.831  19.564  0.00  0.00    +0.000 OA
ENDBRANCH   1   7
BRANCH   2  13
ATOM     13  C   UNL     1       2.082   5.761  19.923  0.00  0.00    +0.000 A 
ATOM     14  C   UNL     1       1.169   4.868  20.506  0.00  0.00    +0.000 A 
ATOM     15  C   UNL     1       1.029   3.564  20.023  0.00  0.00    +0.000 A 
ATOM     16  C   UNL     1       1.794   3.127  18.941  0.00  0.00    +0.000 A 
ATOM     17  C   UNL     1       2.706   3.996  18.341  0.00  0.00    +0.000 A 
ATOM     18  C   UNL     1       2.847   5.298  18.841  0.00  0.00    +0.000 A 
BRANCH  18  19
ATOM     19  N   UNL     1       3.823   6.160  18.198  0.00  0.00    +0.000 N 
ATOM     20  O   UNL     1       3.391   7.078  17.485  0.00  0.00    +0.000 OA
ATOM     21  O   UNL     1       5.015   5.944  18.449  0.00  0.00    +0.000 OA
ENDBRANCH  18  19
ENDBRANCH   2  13
TORSDOF 3
ENDMDL
