MODEL 1
REMARK VINA RESULT:      -6.7      0.000      0.000
REMARK  Name = 
REMARK  10 active torsions:
REMARK  status: ('A' for Active; 'I' for Inactive)
REMARK    1  A    between atoms: C_1  and  C_2
REMARK    2  A    between atoms: C_2  and  C_3
REMARK    3  A    between atoms: C_3  and  C_4
REMARK    4  A    between atoms: C_4  and  N_5
REMARK    5  A    between atoms: C_4  and  C_18
REMARK    6  A    between atoms: N_8  and  C_9
REMARK    7  A    between atoms: C_9  and  C_10
REMARK    8  A    between atoms: N_12  and  C_13
REMARK    9  A    between atoms: C_13  and  C_14
REMARK   10  A    between atoms: C_16  and  C_17
REMARK                            x       y       z     vdW  Elec       q    Type
REMARK                         _______ _______ _______ _____ _____    ______ ____
ROOT
ATOM      1  N   UNL     1       2.945   5.381  18.457  0.00  0.00    +0.000 N 
ATOM      2  C   UNL     1       4.055   4.638  18.161  0.00  0.00    +0.000 C 
ATOM      3  O   UNL     1       4.945   4.400  18.972  0.00  0.00    +0.000 OA
ATOM      4  N   UNL     1       4.070   4.164  16.870  0.00  0.00    +0.000 N 
ATOM      5  H   UNL     1       2.196   5.365  17.780  0.00  0.00    +0.000 HD
ATOM      6  H   UNL     1       3.573   4.667  16.149  0.00  0.00    +0.000 HD
ENDROOT
BRANCH   1   7
ATOM      7  C   UNL     1       2.714   5.933  19.796  0.00  0.00    +0.000 C 
BRANCH   7   8
ATOM      8  C   UNL     1       1.777   4.995  20.563  0.00  0.00    +0.000 C 
ATOM      9  C   UNL     1       1.034   3.856  19.808  0.00  0.00    +0.000 C 
ATOM     10  C   UNL     1       1.088   3.052  21.122  0.00  0.00    +0.000 C 
ATOM     11  C   UNL     1       2.326   3.892  21.508  0.00  0.00    +0.000 C 
ENDBRANCH   7   8
BRANCH   7  12
ATOM     12  C   UNL     1       2.119   7.357  19.715  0.00  0.00    +0.000 C 
BRANCH  12  14
ATOM     13  C   UNL     1       1.439   9.302  18.233  0.00  0.00    +0.000 C 
ATOM     14  C   UNL     1       2.209   7.991  18.319  0.00  0.00    +0.000 C 
ENDBRANCH  12  14
ENDBRANCH   7  12
ENDBRANCH   1   7
BRANCH   4  15
ATOM     15  C   UNL     1       5.245   3.429  16.457  0.00  0.00    +0.000 C 
BRANCH  15  16
ATOM     16  C   UNL     1       6.084   4.076  15.402  0.00  0.00    +0.000 A 
ATOM     17  N   UNL     1       6.099   3.767  14.092  0.00  0.00    +0.000 NA
ATOM     18  N   UNL     1       7.028   4.640  13.620  0.00  0.00    +0.000 N 
ATOM     19  N   UNL     1       7.581   5.503  14.495  0.00  0.00    +0.000 NA
ATOM     20  C   UNL     1       6.986   5.149  15.637  0.00  0.00    +0.000 A 
ATOM     21  C   UNL     1       7.284   5.848  16.907  0.00  0.00    +0.000 C 
BRANCH  18  22
ATOM     22  C   UNL     1       7.433   4.683  12.228  0.00  0.00    +0.000 C 
ATOM     23  C   UNL     1       7.897   6.065  11.803  0.00  0.00    +0.000 C 
ENDBRANCH  18  22
ENDBRANCH  15  16
ENDBRANCH   4  15
TORSDOF 7
ENDMDL
MODEL 2
REMARK VINA RESULT:      -6.3      1.703      2.316
REMARK  Name = 
REMARK  10 active torsions:
REMARK  status: ('A' for Active; 'I' for Inactive)
REMARK    1  A    between atoms: C_1  and  C_2
REMARK    2  A    between atoms: C_2  and  C_3
REMARK    3  A    between atoms: C_3  and  C_4
REMARK    4  A    between atoms: C_4  and  N_5
REMARK    5  A    between atoms: C_4  and  C_18
REMARK    6  A    between atoms: N_8  and  C_9
REMARK    7  A    between atoms: C_9  and  C_10
REMARK    8  A    between atoms: N_12  and  C_13
REMARK    9  A    between atoms: C_13  and  C_14
REMARK   10  A    between atoms: C_16  and  C_17
REMARK                            x       y       z     vdW  Elec       q    Type
REMARK                         _______ _______ _______ _____ _____    ______ ____
ROOT
ATOM      1  N   UNL     1       4.191   5.121  17.999  0.00  0.00    +0.000 N 
ATOM      2  C   UNL     1       5.163   5.599  17.163  0.00  0.00    +0.000 C 
ATOM      3  O   UNL     1       5.518   6.773  17.140  0.00  0.00    +0.000 OA
ATOM      4  N   UNL     1       5.721   4.631  16.361  0.00  0.00    +0.000 N 
ATOM      5  H   UNL     1       4.103   4.118  18.064  0.00  0.00    +0.000 HD
ATOM      6  H   UNL     1       5.181   3.813  16.118  0.00  0.00    +0.000 HD
ENDROOT
BRANCH   1   7
ATOM      7  C   UNL     1       3.509   5.984  18.969  0.00  0.00    +0.000 C 
BRANCH   7   8
ATOM      8  C   UNL     1       3.015   5.123  20.136  0.00  0.00    +0.000 C 
ATOM      9  C   UNL     1       1.503   5.103  20.497  0.00  0.00    +0.000 C 
ATOM     10  C   UNL     1       1.717   3.656  20.986  0.00  0.00    +0.000 C 
ATOM     11  C   UNL     1       2.920   3.577  20.021  0.00  0.00    +0.000 C 
ENDBRANCH   7   8
BRANCH   7  12
ATOM     12  C   UNL     1       2.333   6.740  18.310  0.00  0.00    +0.000 C 
BRANCH  12  14
ATOM     13  C   UNL     1       1.387   9.024  17.733  0.00  0.00    +0.000 C 
ATOM     14  C   UNL     1       2.252   8.225  18.698  0.00  0.00    +0.000 C 
ENDBRANCH  12  14
ENDBRANCH   7  12
ENDBRANCH   1   7
BRANCH   4  15
ATOM     15  C   UNL     1       6.708   5.068  15.399  0.00  0.00    +0.000 C 
BRANCH  15  16
ATOM     16  C   UNL     1       6.618   4.445  14.041  0.00  0.00    +0.000 A 
ATOM     17  N   UNL     1       5.756   3.486  13.658  0.00  0.00    +0.000 NA
ATOM     18  N   UNL     1       6.121   3.297  12.363  0.00  0.00    +0.000 N 
ATOM     19  N   UNL     1       7.109   4.071  11.870  0.00  0.00    +0.000 NA
ATOM     20  C   UNL     1       7.435   4.806  12.935  0.00  0.00    +0.000 A 
ATOM     21  C   UNL     1       8.499   5.832  12.865  0.00  0.00    +0.000 C 
BRANCH  18  22
ATOM     22  C   UNL     1       5.489   2.316  11.501  0.00  0.00    +0.000 C 
ATOM     23  C   UNL     1       6.449   1.220  11.072  0.00  0.00    +0.000 C 
ENDBRANCH  18  22
ENDBRANCH  15  16
ENDBRANCH   4  15
TORSDOF 7
ENDMDL
MODEL 3
REMARK VINA RESULT:      -6.2      4.264      7.737
REMARK  Name = 
REMARK  10 active torsions:
REMARK  status: ('A' for Active; 'I' for Inactive)
REMARK    1  A    between atoms: C_1  and  C_2
REMARK    2  A    between atoms: C_2  and  C_3
REMARK    3  A    between atoms: C_3  and  C_4
REMARK    4  A    between atoms: C_4  and  N_5
REMARK    5  A    between atoms: C_4  and  C_18
REMARK    6  A    between atoms: N_8  and  C_9
REMARK    7  A    between atoms: C_9  and  C_10
REMARK    8  A    between atoms: N_12  and  C_13
REMARK    9  A    between atoms: C_13  and  C_14
REMARK   10  A    between atoms: C_16  and  C_17
REMARK                            x       y       z     vdW  Elec       q    Type
REMARK                         _______ _______ _______ _____ _____    ______ ____
ROOT
ATOM      1  N   UNL     1       2.083   7.095  20.074  0.00  0.00    +0.000 N 
ATOM      2  C   UNL     1       1.752   8.089  19.193  0.00  0.00    +0.000 C 
ATOM      3  O   UNL     1       1.708   7.928  17.978  0.00  0.00    +0.000 OA
ATOM      4  N   UNL     1       1.453   9.284  19.804  0.00  0.00    +0.000 N 
ATOM      5  H   UNL     1       1.915   7.281  21.051  0.00  0.00    +0.000 HD
ATOM      6  H   UNL     1       1.858   9.499  20.704  0.00  0.00    +0.000 HD
ENDROOT
BRANCH   1   7
ATOM      7  C   UNL     1       2.385   5.731  19.626  0.00  0.00    +0.000 C 
BRANCH   7   8
ATOM      8  C   UNL     1       1.658   4.738  20.538  0.00  0.00    +0.000 C 
ATOM      9  C   UNL     1       1.017   3.458  19.934  0.00  0.00    +0.000 C 
ATOM     10  C   UNL     1       1.299   2.770  21.284  0.00  0.00    +0.000 C 
ATOM     11  C   UNL     1       2.436   3.793  21.494  0.00  0.00    +0.000 C 
ENDBRANCH   7   8
BRANCH   7  12
ATOM     12  C   UNL     1       3.908   5.468  19.633  0.00  0.00    +0.000 C 
BRANCH  12  14
ATOM     13  C   UNL     1       4.368   3.894  17.695  0.00  0.00    +0.000 C 
ATOM     14  C   UNL     1       4.520   5.311  18.232  0.00  0.00    +0.000 C 
ENDBRANCH  12  14
ENDBRANCH   7  12
ENDBRANCH   1   7
BRANCH   4  15
ATOM     15  C   UNL     1       1.162  10.405  18.939  0.00  0.00    +0.000 C 
BRANCH  15  16
ATOM     16  C   UNL     1      -0.280  10.610  18.597  0.00  0.00    +0.000 A 
ATOM     17  N   UNL     1      -0.951  10.032  17.584  0.00  0.00    +0.000 NA
ATOM     18  N   UNL     1      -2.188  10.573  17.737  0.00  0.00    +0.000 N 
ATOM     19  N   UNL     1      -2.383  11.412  18.774  0.00  0.00    +0.000 NA
ATOM     20  C   UNL     1      -1.170  11.444  19.329  0.00  0.00    +0.000 A 
ATOM     21  C   UNL     1      -0.898  12.253  20.538  0.00  0.00    +0.000 C 
BRANCH  18  22
ATOM     22  C   UNL     1      -3.293  10.278  16.845  0.00  0.00    +0.000 C 
ATOM     23  C   UNL     1      -2.844  10.114  15.403  0.00  0.00    +0.000 C 
ENDBRANCH  18  22
ENDBRANCH  15  16
ENDBRANCH   4  15
TORSDOF 7
ENDMDL
MODEL 4
REMARK VINA RESULT:      -6.1      5.764      7.869
REMARK  Name = 
REMARK  10 active torsions:
REMARK  status: ('A' for Active; 'I' for Inactive)
REMARK    1  A    between atoms: C_1  and  C_2
REMARK    2  A    between atoms: C_2  and  C_3
REMARK    3  A    between atoms: C_3  and  C_4
REMARK    4  A    between atoms: C_4  and  N_5
REMARK    5  A    between atoms: C_4  and  C_18
REMARK    6  A    between atoms: N_8  and  C_9
REMARK    7  A    between atoms: C_9  and  C_10
REMARK    8  A    between atoms: N_12  and  C_13
REMARK    9  A    between atoms: C_13  and  C_14
REMARK   10  A    between atoms: C_16  and  C_17
REMARK                            x       y       z     vdW  Elec       q    Type
REMARK                         _______ _______ _______ _____ _____    ______ ____
ROOT
ATOM      1  N   UNL     1       7.223   7.602  17.199  0.00  0.00    +0.000 N 
ATOM      2  C   UNL     1       8.100   8.128  18.108  0.00  0.00    +0.000 C 
ATOM      3  O   UNL     1       8.602   7.477  19.018  0.00  0.00    +0.000 OA
ATOM      4  N   UNL     1       8.381   9.457  17.891  0.00  0.00    +0.000 N 
ATOM      5  H   UNL     1       7.012   8.169  16.392  0.00  0.00    +0.000 HD
ATOM      6  H   UNL     1       7.702  10.040  17.424  0.00  0.00    +0.000 HD
ENDROOT
BRANCH   1   7
ATOM      7  C   UNL     1       6.834   6.188  17.226  0.00  0.00    +0.000 C 
BRANCH   7   8
ATOM      8  C   UNL     1       6.690   5.687  15.786  0.00  0.00    +0.000 C 
ATOM      9  C   UNL     1       6.883   4.177  15.469  0.00  0.00    +0.000 C 
ATOM     10  C   UNL     1       5.879   4.368  14.315  0.00  0.00    +0.000 C 
ATOM     11  C   UNL     1       5.301   5.564  15.103  0.00  0.00    +0.000 C 
ENDBRANCH   7   8
BRANCH   7  12
ATOM     12  C   UNL     1       5.516   5.988  18.009  0.00  0.00    +0.000 C 
BRANCH  12  14
ATOM     13  C   UNL     1       4.457   3.720  18.428  0.00  0.00    +0.000 C 
ATOM     14  C   UNL     1       5.500   4.729  18.889  0.00  0.00    +0.000 C 
ENDBRANCH  12  14
ENDBRANCH   7  12
ENDBRANCH   1   7
BRANCH   4  15
ATOM     15  C   UNL     1       9.246  10.107  18.851  0.00  0.00    +0.000 C 
BRANCH  15  16
ATOM     16  C   UNL     1       9.494  11.565  18.626  0.00  0.00    +0.000 A 
ATOM     17  N   UNL     1       8.578  12.486  18.273  0.00  0.00    +0.000 NA
ATOM     18  N   UNL     1       9.339  13.609  18.200  0.00  0.00    +0.000 N 
ATOM     19  N   UNL     1      10.646  13.503  18.511  0.00  0.00    +0.000 NA
ATOM     20  C   UNL     1      10.756  12.200  18.781  0.00  0.00    +0.000 A 
ATOM     21  C   UNL     1      12.048  11.606  19.189  0.00  0.00    +0.000 C 
BRANCH  18  22
ATOM     22  C   UNL     1       8.802  14.901  17.818  0.00  0.00    +0.000 C 
ATOM     23  C   UNL     1       9.873  15.975  17.751  0.00  0.00    +0.000 C 
ENDBRANCH  18  22
ENDBRANCH  15  16
ENDBRANCH   4  15
TORSDOF 7
ENDMDL
MODEL 5
REMARK VINA RESULT:      -6.1      3.635      7.919
REMARK  Name = 
REMARK  10 active torsions:
REMARK  status: ('A' for Active; 'I' for Inactive)
REMARK    1  A    between atoms: C_1  and  C_2
REMARK    2  A    between atoms: C_2  and  C_3
REMARK    3  A    between atoms: C_3  and  C_4
REMARK    4  A    between atoms: C_4  and  N_5
REMARK    5  A    between atoms: C_4  and  C_18
REMARK    6  A    between atoms: N_8  and  C_9
REMARK    7  A    between atoms: C_9  and  C_10
REMARK    8  A    between atoms: N_12  and  C_13
REMARK    9  A    between atoms: C_13  and  C_14
REMARK   10  A    between atoms: C_16  and  C_17
REMARK                            x       y       z     vdW  Elec       q    Type
REMARK                         _______ _______ _______ _____ _____    ______ ____
ROOT
ATOM      1  N   UNL     1       2.519   6.771  18.060  0.00  0.00    +0.000 N 
ATOM      2  C   UNL     1       2.132   7.888  18.749  0.00  0.00    +0.000 C 
ATOM      3  O   UNL     1       2.010   7.922  19.969  0.00  0.00    +0.000 OA
ATOM      4  N   UNL     1       1.911   8.980  17.942  0.00  0.00    +0.000 N 
ATOM      5  H   UNL     1       2.761   6.899  17.089  0.00  0.00    +0.000 HD
ATOM      6  H   UNL     1       1.639   8.841  16.979  0.00  0.00    +0.000 HD
ENDROOT
BRANCH   1   7
ATOM      7  C   UNL     1       2.853   5.517  18.743  0.00  0.00    +0.000 C 
BRANCH   7   8
ATOM      8  C   UNL     1       4.111   4.924  18.100  0.00  0.00    +0.000 C 
ATOM      9  C   UNL     1       4.051   3.520  17.434  0.00  0.00    +0.000 C 
ATOM     10  C   UNL     1       5.153   4.012  16.474  0.00  0.00    +0.000 C 
ATOM     11  C   UNL     1       4.655   5.449  16.744  0.00  0.00    +0.000 C 
ENDBRANCH   7   8
BRANCH   7  12
ATOM     12  C   UNL     1       1.678   4.515  18.673  0.00  0.00    +0.000 C 
BRANCH  12  14
ATOM     13  C   UNL     1       1.823   2.760  20.501  0.00  0.00    +0.000 C 
ATOM     14  C   UNL     1       1.167   4.058  20.048  0.00  0.00    +0.000 C 
ENDBRANCH  12  14
ENDBRANCH   7  12
ENDBRANCH   1   7
BRANCH   4  15
ATOM     15  C   UNL     1       1.430  10.182  18.585  0.00  0.00    +0.000 C 
BRANCH  15  16
ATOM     16  C   UNL     1      -0.042  10.434  18.484  0.00  0.00    +0.000 A 
ATOM     17  N   UNL     1      -0.879   9.922  17.563  0.00  0.00    +0.000 NA
ATOM     18  N   UNL     1      -2.060  10.482  17.932  0.00  0.00    +0.000 N 
ATOM     19  N   UNL     1      -2.067  11.272  19.023  0.00  0.00    +0.000 NA
ATOM     20  C   UNL     1      -0.782  11.251  19.382  0.00  0.00    +0.000 A 
ATOM     21  C   UNL     1      -0.302  11.994  20.568  0.00  0.00    +0.000 C 
BRANCH  18  22
ATOM     22  C   UNL     1      -3.299  10.254  17.212  0.00  0.00    +0.000 C 
ATOM     23  C   UNL     1      -3.062   9.884  15.758  0.00  0.00    +0.000 C 
ENDBRANCH  18  22
ENDBRANCH  15  16
ENDBRANCH   4  15
TORSDOF 7
ENDMDL
MODEL 6
REMARK VINA RESULT:      -6.1      1.475      3.180
REMARK  Name = 
REMARK  10 active torsions:
REMARK  status: ('A' for Active; 'I' for Inactive)
REMARK    1  A    between atoms: C_1  and  C_2
REMARK    2  A    between atoms: C_2  and  C_3
REMARK    3  A    between atoms: C_3  and  C_4
REMARK    4  A    between atoms: C_4  and  N_5
REMARK    5  A    between atoms: C_4  and  C_18
REMARK    6  A    between atoms: N_8  and  C_9
REMARK    7  A    between atoms: C_9  and  C_10
REMARK    8  A    between atoms: N_12  and  C_13
REMARK    9  A    between atoms: C_13  and  C_14
REMARK   10  A    between atoms: C_16  and  C_17
REMARK                            x       y       z     vdW  Elec       q    Type
REMARK                         _______ _______ _______ _____ _____    ______ ____
ROOT
ATOM      1  N   UNL     1       3.570   6.050  19.896  0.00  0.00    +0.000 N 
ATOM      2  C   UNL     1       4.183   5.182  19.034  0.00  0.00    +0.000 C 
ATOM      3  O   UNL     1       3.589   4.580  18.145  0.00  0.00    +0.000 OA
ATOM      4  N   UNL     1       5.536   5.064  19.246  0.00  0.00    +0.000 N 
ATOM      5  H   UNL     1       4.173   6.624  20.466  0.00  0.00    +0.000 HD
ATOM      6  H   UNL     1       5.913   5.238  20.167  0.00  0.00    +0.000 HD
ENDROOT
BRANCH   1   7
ATOM      7  C   UNL     1       2.138   6.355  19.802  0.00  0.00    +0.000 C 
BRANCH   7   8
ATOM      8  C   UNL     1       1.905   7.789  20.286  0.00  0.00    +0.000 C 
ATOM      9  C   UNL     1       1.339   8.854  19.304  0.00  0.00    +0.000 C 
ATOM     10  C   UNL     1       0.689   9.528  20.528  0.00  0.00    +0.000 C 
ATOM     11  C   UNL     1       0.719   8.149  21.222  0.00  0.00    +0.000 C 
ENDBRANCH   7   8
BRANCH   7  12
ATOM     12  C   UNL     1       1.301   5.354  20.632  0.00  0.00    +0.000 C 
BRANCH  12  14
ATOM     13  C   UNL     1       1.497   2.909  21.285  0.00  0.00    +0.000 C 
ATOM     14  C   UNL     1       2.141   4.287  21.352  0.00  0.00    +0.000 C 
ENDBRANCH  12  14
ENDBRANCH   7  12
ENDBRANCH   1   7
BRANCH   4  15
ATOM     15  C   UNL     1       6.247   4.112  18.421  0.00  0.00    +0.000 C 
BRANCH  15  16
ATOM     16  C   UNL     1       6.548   4.554  17.024  0.00  0.00    +0.000 A 
ATOM     17  N   UNL     1       6.288   3.868  15.896  0.00  0.00    +0.000 NA
ATOM     18  N   UNL     1       6.768   4.715  14.948  0.00  0.00    +0.000 N 
ATOM     19  N   UNL     1       7.275   5.895  15.360  0.00  0.00    +0.000 NA
ATOM     20  C   UNL     1       7.141   5.800  16.684  0.00  0.00    +0.000 A 
ATOM     21  C   UNL     1       7.568   6.898  17.580  0.00  0.00    +0.000 C 
BRANCH  18  22
ATOM     22  C   UNL     1       6.746   4.407  13.531  0.00  0.00    +0.000 C 
ATOM     23  C   UNL     1       7.804   5.173  12.756  0.00  0.00    +0.000 C 
ENDBRANCH  18  22
ENDBRANCH  15  16
ENDBRANCH   4  15
TORSDOF 7
ENDMDL
MODEL 7
REMARK VINA RESULT:      -6.1      1.090      3.055
REMARK  Name = 
REMARK  10 active torsions:
REMARK  status: ('A' for Active; 'I' for Inactive)
REMARK    1  A    between atoms: C_1  and  C_2
REMARK    2  A    between atoms: C_2  and  C_3
REMARK    3  A    between atoms: C_3  and  C_4
REMARK    4  A    between atoms: C_4  and  N_5
REMARK    5  A    between atoms: C_4  and  C_18
REMARK    6  A    between atoms: N_8  and  C_9
REMARK    7  A    between atoms: C_9  and  C_10
REMARK    8  A    between atoms: N_12  and  C_13
REMARK    9  A    between atoms: C_13  and  C_14
REMARK   10  A    between atoms: C_16  and  C_17
REMARK                            x       y       z     vdW  Elec       q    Type
REMARK                         _______ _______ _______ _____ _____    ______ ____
ROOT
ATOM      1  N   UNL     1       3.344   5.552  19.332  0.00  0.00    +0.000 N 
ATOM      2  C   UNL     1       3.547   4.795  18.210  0.00  0.00    +0.000 C 
ATOM      3  O   UNL     1       2.641   4.429  17.469  0.00  0.00    +0.000 OA
ATOM      4  N   UNL     1       4.870   4.500  17.981  0.00  0.00    +0.000 N 
ATOM      5  H   UNL     1       4.165   5.947  19.767  0.00  0.00    +0.000 HD
ATOM      6  H   UNL     1       5.515   4.462  18.758  0.00  0.00    +0.000 HD
ENDROOT
BRANCH   1   7
ATOM      7  C   UNL     1       2.009   6.016  19.723  0.00  0.00    +0.000 C 
BRANCH   7   8
ATOM      8  C   UNL     1       2.076   7.517  20.024  0.00  0.00    +0.000 C 
ATOM      9  C   UNL     1       1.576   8.541  18.966  0.00  0.00    +0.000 C 
ATOM     10  C   UNL     1       1.202   9.462  20.144  0.00  0.00    +0.000 C 
ATOM     11  C   UNL     1       1.090   8.192  21.016  0.00  0.00    +0.000 C 
ENDBRANCH   7   8
BRANCH   7  12
ATOM     12  C   UNL     1       1.485   5.235  20.950  0.00  0.00    +0.000 C 
BRANCH  12  14
ATOM     13  C   UNL     1       2.062   2.817  21.467  0.00  0.00    +0.000 C 
ATOM     14  C   UNL     1       1.176   3.758  20.661  0.00  0.00    +0.000 C 
ENDBRANCH  12  14
ENDBRANCH   7  12
ENDBRANCH   1   7
BRANCH   4  15
ATOM     15  C   UNL     1       5.163   3.643  16.853  0.00  0.00    +0.000 C 
BRANCH  15  16
ATOM     16  C   UNL     1       6.015   4.244  15.780  0.00  0.00    +0.000 A 
ATOM     17  N   UNL     1       6.010   3.912  14.476  0.00  0.00    +0.000 NA
ATOM     18  N   UNL     1       6.964   4.745  13.982  0.00  0.00    +0.000 N 
ATOM     19  N   UNL     1       7.551   5.605  14.838  0.00  0.00    +0.000 NA
ATOM     20  C   UNL     1       6.954   5.291  15.990  0.00  0.00    +0.000 A 
ATOM     21  C   UNL     1       7.285   6.001  17.245  0.00  0.00    +0.000 C 
BRANCH  18  22
ATOM     22  C   UNL     1       7.359   4.751  12.586  0.00  0.00    +0.000 C 
ATOM     23  C   UNL     1       6.910   3.498  11.853  0.00  0.00    +0.000 C 
ENDBRANCH  18  22
ENDBRANCH  15  16
ENDBRANCH   4  15
TORSDOF 7
ENDMDL
MODEL 8
REMARK VINA RESULT:      -6.1      3.474      8.187
REMARK  Name = 
REMARK  10 active torsions:
REMARK  status: ('A' for Active; 'I' for Inactive)
REMARK    1  A    between atoms: C_1  and  C_2
REMARK    2  A    between atoms: C_2  and  C_3
REMARK    3  A    between atoms: C_3  and  C_4
REMARK    4  A    between atoms: C_4  and  N_5
REMARK    5  A    between atoms: C_4  and  C_18
REMARK    6  A    between atoms: N_8  and  C_9
REMARK    7  A    between atoms: C_9  and  C_10
REMARK    8  A    between atoms: N_12  and  C_13
REMARK    9  A    between atoms: C_13  and  C_14
REMARK   10  A    between atoms: C_16  and  C_17
REMARK                            x       y       z     vdW  Elec       q    Type
REMARK                         _______ _______ _______ _____ _____    ______ ____
ROOT
ATOM      1  N   UNL     1       3.096   6.176  18.176  0.00  0.00    +0.000 N 
ATOM      2  C   UNL     1       2.543   6.484  19.389  0.00  0.00    +0.000 C 
ATOM      3  O   UNL     1       2.476   5.690  20.322  0.00  0.00    +0.000 OA
ATOM      4  N   UNL     1       2.088   7.779  19.471  0.00  0.00    +0.000 N 
ATOM      5  H   UNL     1       3.264   6.946  17.546  0.00  0.00    +0.000 HD
ATOM      6  H   UNL     1       1.801   8.260  18.631  0.00  0.00    +0.000 HD
ENDROOT
BRANCH   1   7
ATOM      7  C   UNL     1       3.687   4.861  17.903  0.00  0.00    +0.000 C 
BRANCH   7   8
ATOM      8  C   UNL     1       4.913   5.047  17.005  0.00  0.00    +0.000 C 
ATOM      9  C   UNL     1       6.316   4.608  17.510  0.00  0.00    +0.000 C 
ATOM     10  C   UNL     1       6.675   4.325  16.038  0.00  0.00    +0.000 C 
ATOM     11  C   UNL     1       5.165   4.132  15.775  0.00  0.00    +0.000 C 
ENDBRANCH   7   8
BRANCH   7  12
ATOM     12  C   UNL     1       2.659   3.917  17.240  0.00  0.00    +0.000 C 
BRANCH  12  14
ATOM     13  C   UNL     1       3.442   1.718  18.239  0.00  0.00    +0.000 C 
ATOM     14  C   UNL     1       2.286   2.700  18.101  0.00  0.00    +0.000 C 
ENDBRANCH  12  14
ENDBRANCH   7  12
ENDBRANCH   1   7
BRANCH   4  15
ATOM     15  C   UNL     1       1.426   8.162  20.698  0.00  0.00    +0.000 C 
BRANCH  15  16
ATOM     16  C   UNL     1       0.504   9.337  20.604  0.00  0.00    +0.000 A 
ATOM     17  N   UNL     1       0.123   9.966  19.477  0.00  0.00    +0.000 NA
ATOM     18  N   UNL     1      -0.686  10.939  19.972  0.00  0.00    +0.000 N 
ATOM     19  N   UNL     1      -0.890  10.969  21.304  0.00  0.00    +0.000 NA
ATOM     20  C   UNL     1      -0.132   9.952  21.718  0.00  0.00    +0.000 A 
ATOM     21  C   UNL     1      -0.046   9.589  23.150  0.00  0.00    +0.000 C 
BRANCH  18  22
ATOM     22  C   UNL     1      -1.337  11.925  19.131  0.00  0.00    +0.000 C 
ATOM     23  C   UNL     1      -0.475  13.155  18.908  0.00  0.00    +0.000 C 
ENDBRANCH  18  22
ENDBRANCH  15  16
ENDBRANCH   4  15
TORSDOF 7
ENDMDL
MODEL 9
REMARK VINA RESULT:      -6.1      3.793      8.260
REMARK  Name = 
REMARK  10 active torsions:
REMARK  status: ('A' for Active; 'I' for Inactive)
REMARK    1  A    between atoms: C_1  and  C_2
REMARK    2  A    between atoms: C_2  and  C_3
REMARK    3  A    between atoms: C_3  and  C_4
REMARK    4  A    between atoms: C_4  and  N_5
REMARK    5  A    between atoms: C_4  and  C_18
REMARK    6  A    between atoms: N_8  and  C_9
REMARK    7  A    between atoms: C_9  and  C_10
REMARK    8  A    between atoms: N_12  and  C_13
REMARK    9  A    between atoms: C_13  and  C_14
REMARK   10  A    between atoms: C_16  and  C_17
REMARK                            x       y       z     vdW  Elec       q    Type
REMARK                         _______ _______ _______ _____ _____    ______ ____
ROOT
ATOM      1  N   UNL     1       2.736   6.215  19.880  0.00  0.00    +0.000 N 
ATOM      2  C   UNL     1       2.326   7.269  19.109  0.00  0.00    +0.000 C 
ATOM      3  O   UNL     1       2.413   7.286  17.886  0.00  0.00    +0.000 OA
ATOM      4  N   UNL     1       1.785   8.302  19.837  0.00  0.00    +0.000 N 
ATOM      5  H   UNL     1       2.456   6.227  20.849  0.00  0.00    +0.000 HD
ATOM      6  H   UNL     1       2.070   8.439  20.797  0.00  0.00    +0.000 HD
ENDROOT
BRANCH   1   7
ATOM      7  C   UNL     1       3.293   4.993  19.290  0.00  0.00    +0.000 C 
BRANCH   7   8
ATOM      8  C   UNL     1       2.733   3.782  20.042  0.00  0.00    +0.000 C 
ATOM      9  C   UNL     1       2.366   3.907  21.548  0.00  0.00    +0.000 C 
ATOM     10  C   UNL     1       1.283   2.839  21.296  0.00  0.00    +0.000 C 
ATOM     11  C   UNL     1       1.278   3.287  19.818  0.00  0.00    +0.000 C 
ENDBRANCH   7   8
BRANCH   7  12
ATOM     12  C   UNL     1       4.837   5.004  19.342  0.00  0.00    +0.000 C 
BRANCH  12  14
ATOM     13  C   UNL     1       4.718   4.729  16.821  0.00  0.00    +0.000 C 
ATOM     14  C   UNL     1       5.507   4.423  18.088  0.00  0.00    +0.000 C 
ENDBRANCH  12  14
ENDBRANCH   7  12
ENDBRANCH   1   7
BRANCH   4  15
ATOM     15  C   UNL     1       1.392   9.484  19.102  0.00  0.00    +0.000 C 
BRANCH  15  16
ATOM     16  C   UNL     1       0.407  10.381  19.784  0.00  0.00    +0.000 A 
ATOM     17  N   UNL     1       0.576  10.998  20.968  0.00  0.00    +0.000 NA
ATOM     18  N   UNL     1      -0.607  11.655  21.100  0.00  0.00    +0.000 N 
ATOM     19  N   UNL     1      -1.500  11.548  20.097  0.00  0.00    +0.000 NA
ATOM     20  C   UNL     1      -0.863  10.734  19.252  0.00  0.00    +0.000 A 
ATOM     21  C   UNL     1      -1.473  10.330  17.966  0.00  0.00    +0.000 C 
BRANCH  18  22
ATOM     22  C   UNL     1      -0.934  12.463  22.260  0.00  0.00    +0.000 C 
ATOM     23  C   UNL     1      -2.048  11.854  23.093  0.00  0.00    +0.000 C 
ENDBRANCH  18  22
ENDBRANCH  15  16
ENDBRANCH   4  15
TORSDOF 7
ENDMDL
