MODEL 1
REMARK VINA RESULT:      -7.1      0.000      0.000
REMARK  Name = 
REMARK  4 active torsions:
REMARK  status: ('A' for Active; 'I' for Inactive)
REMARK    1  A    between atoms: C_1  and  C_2
REMARK    2  A    between atoms: C_5  and  C_6
REMARK    3  A    between atoms: C_6  and  C_7
REMARK    4  A    between atoms: C_7  and  C_8
REMARK                            x       y       z     vdW  Elec       q    Type
REMARK                         _______ _______ _______ _____ _____    ______ ____
ROOT
ATOM      1  C   UNL     1       3.612   4.996  18.498  0.00  0.00    +0.000 C 
ATOM      2  C   UNL     1       4.876   5.846  18.850  0.00  0.00    +0.000 C 
ATOM      3  C   UNL     1       4.223   3.922  17.571  0.00  0.00    +0.000 C 
ATOM      4  O   UNL     1       4.328   3.918  16.360  0.00  0.00    +0.000 OA
ATOM      5  N   UNL     1       4.769   2.959  18.458  0.00  0.00    +0.000 N 
ATOM      6  C   UNL     1       4.131   3.032  19.705  0.00  0.00    +0.000 A 
ATOM      7  C   UNL     1       4.176   2.111  20.743  0.00  0.00    +0.000 A 
ATOM      8 CL   UNL     1       5.460   0.987  20.905  0.00  0.00    +0.000 Cl
ATOM      9  C   UNL     1       3.116   2.091  21.644  0.00  0.00    +0.000 A 
ATOM     10  C   UNL     1       1.995   2.888  21.393  0.00  0.00    +0.000 A 
ATOM     11  C   UNL     1       2.011   3.843  20.364  0.00  0.00    +0.000 A 
ATOM     12 CL   UNL     1       0.458   4.461  19.930  0.00  0.00    +0.000 Cl
ATOM     13  C   UNL     1       3.185   4.057  19.642  0.00  0.00    +0.000 A 
ATOM     14  H   UNL     1       5.285   2.148  18.147  0.00  0.00    +0.000 HD
ENDROOT
BRANCH   1  15
ATOM     15  C   UNL     1       2.497   5.977  18.133  0.00  0.00    +0.000 C 
BRANCH  15  20
ATOM     16  C   UNL     1       0.191  10.946  19.680  0.00  0.00    +0.000 C 
ATOM     17  C   UNL     1       1.112   9.793  19.398  0.00  0.00    +0.000 A 
ATOM     18  C   UNL     1       1.642   9.624  18.110  0.00  0.00    +0.000 A 
ATOM     19  C   UNL     1       2.259   8.443  17.747  0.00  0.00    +0.000 A 
ATOM     20  C   UNL     1       2.343   7.377  18.659  0.00  0.00    +0.000 A 
ATOM     21  C   UNL     1       1.919   7.594  19.989  0.00  0.00    +0.000 A 
ATOM     22  C   UNL     1       1.310   8.795  20.356  0.00  0.00    +0.000 A 
ENDBRANCH  15  20
ENDBRANCH   1  15
TORSDOF 2
ENDMDL
MODEL 2
REMARK VINA RESULT:      -7.0      3.127      5.736
REMARK  Name = 
REMARK  4 active torsions:
REMARK  status: ('A' for Active; 'I' for Inactive)
REMARK    1  A    between atoms: C_1  and  C_2
REMARK    2  A    between atoms: C_5  and  C_6
REMARK    3  A    between atoms: C_6  and  C_7
REMARK    4  A    between atoms: C_7  and  C_8
REMARK                            x       y       z     vdW  Elec       q    Type
REMARK                         _______ _______ _______ _____ _____    ______ ____
ROOT
ATOM      1  C   UNL     1       4.396   4.771  17.782  0.00  0.00    +0.000 C 
ATOM      2  C   UNL     1       4.193   6.019  16.863  0.00  0.00    +0.000 C 
ATOM      3  C   UNL     1       5.128   5.404  18.987  0.00  0.00    +0.000 C 
ATOM      4  O   UNL     1       6.322   5.512  19.193  0.00  0.00    +0.000 OA
ATOM      5  N   UNL     1       4.092   5.963  19.776  0.00  0.00    +0.000 N 
ATOM      6  C   UNL     1       2.875   5.320  19.504  0.00  0.00    +0.000 A 
ATOM      7  C   UNL     1       1.696   5.378  20.236  0.00  0.00    +0.000 A 
ATOM      8 CL   UNL     1       1.347   6.681  21.294  0.00  0.00    +0.000 Cl
ATOM      9  C   UNL     1       0.805   4.316  20.123  0.00  0.00    +0.000 A 
ATOM     10  C   UNL     1       1.188   3.182  19.399  0.00  0.00    +0.000 A 
ATOM     11  C   UNL     1       2.363   3.185  18.632  0.00  0.00    +0.000 A 
ATOM     12 CL   UNL     1       2.895   1.623  18.123  0.00  0.00    +0.000 Cl
ATOM     13  C   UNL     1       3.110   4.357  18.522  0.00  0.00    +0.000 A 
ATOM     14  H   UNL     1       4.261   6.494  20.619  0.00  0.00    +0.000 HD
ENDROOT
BRANCH   1  15
ATOM     15  C   UNL     1       4.922   3.641  16.897  0.00  0.00    +0.000 C 
BRANCH  15  20
ATOM     16  C   UNL     1       7.833   5.658  12.441  0.00  0.00    +0.000 C 
ATOM     17  C   UNL     1       7.321   4.856  13.603  0.00  0.00    +0.000 A 
ATOM     18  C   UNL     1       6.262   3.955  13.412  0.00  0.00    +0.000 A 
ATOM     19  C   UNL     1       5.592   3.412  14.491  0.00  0.00    +0.000 A 
ATOM     20  C   UNL     1       5.943   3.777  15.802  0.00  0.00    +0.000 A 
ATOM     21  C   UNL     1       7.085   4.587  15.991  0.00  0.00    +0.000 A 
ATOM     22  C   UNL     1       7.770   5.120  14.899  0.00  0.00    +0.000 A 
ENDBRANCH  15  20
ENDBRANCH   1  15
TORSDOF 2
ENDMDL
MODEL 3
REMARK VINA RESULT:      -6.9      3.312      6.019
REMARK  Name = 
REMARK  4 active torsions:
REMARK  status: ('A' for Active; 'I' for Inactive)
REMARK    1  A    between atoms: C_1  and  C_2
REMARK    2  A    between atoms: C_5  and  C_6
REMARK    3  A    between atoms: C_6  and  C_7
REMARK    4  A    between atoms: C_7  and  C_8
REMARK                            x       y       z     vdW  Elec       q    Type
REMARK                         _______ _______ _______ _____ _____    ______ ____
ROOT
ATOM      1  C   UNL     1       4.717   4.971  17.682  0.00  0.00    +0.000 C 
ATOM      2  C   UNL     1       4.477   6.325  16.939  0.00  0.00    +0.000 C 
ATOM      3  C   UNL     1       5.309   5.466  19.021  0.00  0.00    +0.000 C 
ATOM      4  O   UNL     1       6.472   5.627  19.337  0.00  0.00    +0.000 OA
ATOM      5  N   UNL     1       4.178   5.826  19.795  0.00  0.00    +0.000 N 
ATOM      6  C   UNL     1       3.039   5.146  19.337  0.00  0.00    +0.000 A 
ATOM      7  C   UNL     1       1.811   5.011  19.971  0.00  0.00    +0.000 A 
ATOM      8 CL   UNL     1       1.284   6.113  21.174  0.00  0.00    +0.000 Cl
ATOM      9  C   UNL     1       1.020   3.917  19.634  0.00  0.00    +0.000 A 
ATOM     10  C   UNL     1       1.544   2.935  18.788  0.00  0.00    +0.000 A 
ATOM     11  C   UNL     1       2.766   3.135  18.128  0.00  0.00    +0.000 A 
ATOM     12 CL   UNL     1       3.459   1.708  17.444  0.00  0.00    +0.000 Cl
ATOM     13  C   UNL     1       3.421   4.360  18.249  0.00  0.00    +0.000 A 
ATOM     14  H   UNL     1       4.244   6.236  20.718  0.00  0.00    +0.000 HD
ENDROOT
BRANCH   1  15
ATOM     15  C   UNL     1       5.394   4.025  16.689  0.00  0.00    +0.000 C 
BRANCH  15  20
ATOM     16  C   UNL     1       7.334   3.550  11.359  0.00  0.00    +0.000 C 
ATOM     17  C   UNL     1       6.676   3.992  12.635  0.00  0.00    +0.000 A 
ATOM     18  C   UNL     1       7.430   4.664  13.610  0.00  0.00    +0.000 A 
ATOM     19  C   UNL     1       6.938   4.838  14.889  0.00  0.00    +0.000 A 
ATOM     20  C   UNL     1       5.681   4.320  15.243  0.00  0.00    +0.000 A 
ATOM     21  C   UNL     1       4.877   3.753  14.229  0.00  0.00    +0.000 A 
ATOM     22  C   UNL     1       5.371   3.593  12.934  0.00  0.00    +0.000 A 
ENDBRANCH  15  20
ENDBRANCH   1  15
TORSDOF 2
ENDMDL
MODEL 4
REMARK VINA RESULT:      -6.6      3.699      6.007
REMARK  Name = 
REMARK  4 active torsions:
REMARK  status: ('A' for Active; 'I' for Inactive)
REMARK    1  A    between atoms: C_1  and  C_2
REMARK    2  A    between atoms: C_5  and  C_6
REMARK    3  A    between atoms: C_6  and  C_7
REMARK    4  A    between atoms: C_7  and  C_8
REMARK                            x       y       z     vdW  Elec       q    Type
REMARK                         _______ _______ _______ _____ _____    ______ ____
ROOT
ATOM      1  C   UNL     1       0.476   9.580  20.645  0.00  0.00    +0.000 C 
ATOM      2  C   UNL     1      -0.899   8.881  20.896  0.00  0.00    +0.000 C 
ATOM      3  C   UNL     1       1.264   9.149  21.902  0.00  0.00    +0.000 C 
ATOM      4  O   UNL     1       1.385   9.719  22.970  0.00  0.00    +0.000 OA
ATOM      5  N   UNL     1       1.736   7.848  21.594  0.00  0.00    +0.000 N 
ATOM      6  C   UNL     1       1.796   7.671  20.204  0.00  0.00    +0.000 A 
ATOM      7  C   UNL     1       2.441   6.664  19.498  0.00  0.00    +0.000 A 
ATOM      8 CL   UNL     1       2.814   5.150  20.210  0.00  0.00    +0.000 Cl
ATOM      9  C   UNL     1       2.824   6.929  18.186  0.00  0.00    +0.000 A 
ATOM     10  C   UNL     1       2.674   8.226  17.684  0.00  0.00    +0.000 A 
ATOM     11  C   UNL     1       1.970   9.199  18.410  0.00  0.00    +0.000 A 
ATOM     12 CL   UNL     1       2.201  10.819  17.857  0.00  0.00    +0.000 Cl
ATOM     13  C   UNL     1       1.341   8.846  19.603  0.00  0.00    +0.000 A 
ATOM     14  H   UNL     1       2.253   7.276  22.248  0.00  0.00    +0.000 HD
ENDROOT
BRANCH   1  15
ATOM     15  C   UNL     1       0.179  11.017  20.214  0.00  0.00    +0.000 C 
BRANCH  15  20
ATOM     16  C   UNL     1      -5.039  11.256  17.951  0.00  0.00    +0.000 C 
ATOM     17  C   UNL     1      -3.615  11.509  18.356  0.00  0.00    +0.000 A 
ATOM     18  C   UNL     1      -2.573  10.862  17.675  0.00  0.00    +0.000 A 
ATOM     19  C   UNL     1      -1.290  10.853  18.188  0.00  0.00    +0.000 A 
ATOM     20  C   UNL     1      -1.013  11.473  19.418  0.00  0.00    +0.000 A 
ATOM     21  C   UNL     1      -2.035  12.225  20.037  0.00  0.00    +0.000 A 
ATOM     22  C   UNL     1      -3.326  12.245  19.508  0.00  0.00    +0.000 A 
ENDBRANCH  15  20
ENDBRANCH   1  15
TORSDOF 2
ENDMDL
MODEL 5
REMARK VINA RESULT:      -6.4      2.782      5.309
REMARK  Name = 
REMARK  4 active torsions:
REMARK  status: ('A' for Active; 'I' for Inactive)
REMARK    1  A    between atoms: C_1  and  C_2
REMARK    2  A    between atoms: C_5  and  C_6
REMARK    3  A    between atoms: C_6  and  C_7
REMARK    4  A    between atoms: C_7  and  C_8
REMARK                            x       y       z     vdW  Elec       q    Type
REMARK                         _______ _______ _______ _____ _____    ______ ____
ROOT
ATOM      1  C   UNL     1       4.901   5.027  18.511  0.00  0.00    +0.000 C 
ATOM      2  C   UNL     1       6.081   4.646  19.463  0.00  0.00    +0.000 C 
ATOM      3  C   UNL     1       4.353   3.631  18.140  0.00  0.00    +0.000 C 
ATOM      4  O   UNL     1       4.634   2.918  17.196  0.00  0.00    +0.000 OA
ATOM      5  N   UNL     1       3.516   3.280  19.229  0.00  0.00    +0.000 N 
ATOM      6  C   UNL     1       3.087   4.434  19.902  0.00  0.00    +0.000 A 
ATOM      7  C   UNL     1       2.064   4.548  20.835  0.00  0.00    +0.000 A 
ATOM      8 CL   UNL     1       1.510   3.204  21.745  0.00  0.00    +0.000 Cl
ATOM      9  C   UNL     1       1.459   5.791  20.990  0.00  0.00    +0.000 A 
ATOM     10  C   UNL     1       1.800   6.826  20.115  0.00  0.00    +0.000 A 
ATOM     11  C   UNL     1       2.873   6.686  19.222  0.00  0.00    +0.000 A 
ATOM     12 CL   UNL     1       2.923   7.868  17.963  0.00  0.00    +0.000 Cl
ATOM     13  C   UNL     1       3.661   5.536  19.268  0.00  0.00    +0.000 A 
ATOM     14  H   UNL     1       3.045   2.388  19.302  0.00  0.00    +0.000 HD
ENDROOT
BRANCH   1  15
ATOM     15  C   UNL     1       5.432   6.078  17.535  0.00  0.00    +0.000 C 
BRANCH  15  20
ATOM     16  C   UNL     1       6.528   3.470  12.595  0.00  0.00    +0.000 C 
ATOM     17  C   UNL     1       6.376   4.454  13.720  0.00  0.00    +0.000 A 
ATOM     18  C   UNL     1       7.356   4.521  14.722  0.00  0.00    +0.000 A 
ATOM     19  C   UNL     1       7.120   5.206  15.898  0.00  0.00    +0.000 A 
ATOM     20  C   UNL     1       5.880   5.826  16.121  0.00  0.00    +0.000 A 
ATOM     21  C   UNL     1       4.944   5.860  15.063  0.00  0.00    +0.000 A 
ATOM     22  C   UNL     1       5.193   5.181  13.870  0.00  0.00    +0.000 A 
ENDBRANCH  15  20
ENDBRANCH   1  15
TORSDOF 2
ENDMDL
MODEL 6
REMARK VINA RESULT:      -6.3      2.994      5.495
REMARK  Name = 
REMARK  4 active torsions:
REMARK  status: ('A' for Active; 'I' for Inactive)
REMARK    1  A    between atoms: C_1  and  C_2
REMARK    2  A    between atoms: C_5  and  C_6
REMARK    3  A    between atoms: C_6  and  C_7
REMARK    4  A    between atoms: C_7  and  C_8
REMARK                            x       y       z     vdW  Elec       q    Type
REMARK                         _______ _______ _______ _____ _____    ______ ____
ROOT
ATOM      1  C   UNL     1       3.860   3.969  17.820  0.00  0.00    +0.000 C 
ATOM      2  C   UNL     1       5.083   3.179  18.389  0.00  0.00    +0.000 C 
ATOM      3  C   UNL     1       2.833   2.831  17.626  0.00  0.00    +0.000 C 
ATOM      4  O   UNL     1       2.611   2.153  16.642  0.00  0.00    +0.000 OA
ATOM      5  N   UNL     1       2.266   2.644  18.912  0.00  0.00    +0.000 N 
ATOM      6  C   UNL     1       2.411   3.809  19.680  0.00  0.00    +0.000 A 
ATOM      7  C   UNL     1       1.773   4.133  20.870  0.00  0.00    +0.000 A 
ATOM      8 CL   UNL     1       1.112   2.935  21.902  0.00  0.00    +0.000 Cl
ATOM      9  C   UNL     1       1.641   5.480  21.194  0.00  0.00    +0.000 A 
ATOM     10  C   UNL     1       2.024   6.445  20.256  0.00  0.00    +0.000 A 
ATOM     11  C   UNL     1       2.712   6.077  19.090  0.00  0.00    +0.000 A 
ATOM     12 CL   UNL     1       2.768   7.299  17.870  0.00  0.00    +0.000 Cl
ATOM     13  C   UNL     1       3.093   4.749  18.906  0.00  0.00    +0.000 A 
ATOM     14  H   UNL     1       1.585   1.925  19.120  0.00  0.00    +0.000 HD
ENDROOT
BRANCH   1  15
ATOM     15  C   UNL     1       4.392   4.901  16.732  0.00  0.00    +0.000 C 
BRANCH  15  20
ATOM     16  C   UNL     1       7.747   5.074  12.136  0.00  0.00    +0.000 C 
ATOM     17  C   UNL     1       7.087   4.749  13.446  0.00  0.00    +0.000 A 
ATOM     18  C   UNL     1       5.950   3.927  13.466  0.00  0.00    +0.000 A 
ATOM     19  C   UNL     1       5.166   3.832  14.600  0.00  0.00    +0.000 A 
ATOM     20  C   UNL     1       5.482   4.580  15.746  0.00  0.00    +0.000 A 
ATOM     21  C   UNL     1       6.692   5.308  15.762  0.00  0.00    +0.000 A 
ATOM     22  C   UNL     1       7.490   5.389  14.621  0.00  0.00    +0.000 A 
ENDBRANCH  15  20
ENDBRANCH   1  15
TORSDOF 2
ENDMDL
MODEL 7
REMARK VINA RESULT:      -6.3      3.600      5.198
REMARK  Name = 
REMARK  4 active torsions:
REMARK  status: ('A' for Active; 'I' for Inactive)
REMARK    1  A    between atoms: C_1  and  C_2
REMARK    2  A    between atoms: C_5  and  C_6
REMARK    3  A    between atoms: C_6  and  C_7
REMARK    4  A    between atoms: C_7  and  C_8
REMARK                            x       y       z     vdW  Elec       q    Type
REMARK                         _______ _______ _______ _____ _____    ______ ____
ROOT
ATOM      1  C   UNL     1       6.535   5.145  17.665  0.00  0.00    +0.000 C 
ATOM      2  C   UNL     1       7.906   4.617  18.199  0.00  0.00    +0.000 C 
ATOM      3  C   UNL     1       6.916   6.578  17.232  0.00  0.00    +0.000 C 
ATOM      4  O   UNL     1       6.854   7.616  17.862  0.00  0.00    +0.000 OA
ATOM      5  N   UNL     1       7.490   6.418  15.945  0.00  0.00    +0.000 N 
ATOM      6  C   UNL     1       7.036   5.227  15.357  0.00  0.00    +0.000 A 
ATOM      7  C   UNL     1       7.141   4.836  14.029  0.00  0.00    +0.000 A 
ATOM      8 CL   UNL     1       8.329   5.489  12.980  0.00  0.00    +0.000 Cl
ATOM      9  C   UNL     1       6.215   3.916  13.545  0.00  0.00    +0.000 A 
ATOM     10  C   UNL     1       5.147   3.534  14.362  0.00  0.00    +0.000 A 
ATOM     11  C   UNL     1       5.108   3.910  15.713  0.00  0.00    +0.000 A 
ATOM     12 CL   UNL     1       3.571   3.703  16.475  0.00  0.00    +0.000 Cl
ATOM     13  C   UNL     1       6.186   4.598  16.268  0.00  0.00    +0.000 A 
ATOM     14  H   UNL     1       7.884   7.182  15.413  0.00  0.00    +0.000 HD
ENDROOT
BRANCH   1  15
ATOM     15  C   UNL     1       5.474   4.765  18.697  0.00  0.00    +0.000 C 
BRANCH  15  20
ATOM     16  C   UNL     1       1.308   8.209  20.482  0.00  0.00    +0.000 C 
ATOM     17  C   UNL     1       2.137   7.161  19.796  0.00  0.00    +0.000 A 
ATOM     18  C   UNL     1       2.360   5.928  20.426  0.00  0.00    +0.000 A 
ATOM     19  C   UNL     1       3.327   5.059  19.960  0.00  0.00    +0.000 A 
ATOM     20  C   UNL     1       4.125   5.410  18.858  0.00  0.00    +0.000 A 
ATOM     21  C   UNL     1       3.815   6.595  18.154  0.00  0.00    +0.000 A 
ATOM     22  C   UNL     1       2.826   7.463  18.618  0.00  0.00    +0.000 A 
ENDBRANCH  15  20
ENDBRANCH   1  15
TORSDOF 2
ENDMDL
MODEL 8
REMARK VINA RESULT:      -6.3      2.932      5.080
REMARK  Name = 
REMARK  4 active torsions:
REMARK  status: ('A' for Active; 'I' for Inactive)
REMARK    1  A    between atoms: C_1  and  C_2
REMARK    2  A    between atoms: C_5  and  C_6
REMARK    3  A    between atoms: C_6  and  C_7
REMARK    4  A    between atoms: C_7  and  C_8
REMARK                            x       y       z     vdW  Elec       q    Type
REMARK                         _______ _______ _______ _____ _____    ______ ____
ROOT
ATOM      1  C   UNL     1       4.218   6.316  17.233  0.00  0.00    +0.000 C 
ATOM      2  C   UNL     1       3.489   7.603  17.739  0.00  0.00    +0.000 C 
ATOM      3  C   UNL     1       4.981   6.869  16.008  0.00  0.00    +0.000 C 
ATOM      4  O   UNL     1       4.642   6.906  14.841  0.00  0.00    +0.000 OA
ATOM      5  N   UNL     1       6.148   7.458  16.556  0.00  0.00    +0.000 N 
ATOM      6  C   UNL     1       6.437   6.891  17.807  0.00  0.00    +0.000 A 
ATOM      7  C   UNL     1       7.613   6.989  18.539  0.00  0.00    +0.000 A 
ATOM      8 CL   UNL     1       8.723   8.275  18.306  0.00  0.00    +0.000 Cl
ATOM      9  C   UNL     1       7.897   5.981  19.454  0.00  0.00    +0.000 A 
ATOM     10  C   UNL     1       7.073   4.853  19.500  0.00  0.00    +0.000 A 
ATOM     11  C   UNL     1       5.867   4.816  18.783  0.00  0.00    +0.000 A 
ATOM     12 CL   UNL     1       5.168   3.245  18.627  0.00  0.00    +0.000 Cl
ATOM     13  C   UNL     1       5.446   5.949  18.087  0.00  0.00    +0.000 A 
ATOM     14  H   UNL     1       6.834   7.952  16.001  0.00  0.00    +0.000 HD
ENDROOT
BRANCH   1  15
ATOM     15  C   UNL     1       3.186   5.188  17.221  0.00  0.00    +0.000 C 
BRANCH  15  20
ATOM     16  C   UNL     1       1.101   2.606  21.845  0.00  0.00    +0.000 C 
ATOM     17  C   UNL     1       1.334   3.482  20.647  0.00  0.00    +0.000 A 
ATOM     18  C   UNL     1       1.027   3.002  19.365  0.00  0.00    +0.000 A 
ATOM     19  C   UNL     1       1.477   3.660  18.237  0.00  0.00    +0.000 A 
ATOM     20  C   UNL     1       2.276   4.810  18.356  0.00  0.00    +0.000 A 
ATOM     21  C   UNL     1       2.480   5.356  19.643  0.00  0.00    +0.000 A 
ATOM     22  C   UNL     1       2.009   4.698  20.780  0.00  0.00    +0.000 A 
ENDBRANCH  15  20
ENDBRANCH   1  15
TORSDOF 2
ENDMDL
MODEL 9
REMARK VINA RESULT:      -6.3      4.127      7.464
REMARK  Name = 
REMARK  4 active torsions:
REMARK  status: ('A' for Active; 'I' for Inactive)
REMARK    1  A    between atoms: C_1  and  C_2
REMARK    2  A    between atoms: C_5  and  C_6
REMARK    3  A    between atoms: C_6  and  C_7
REMARK    4  A    between atoms: C_7  and  C_8
REMARK                            x       y       z     vdW  Elec       q    Type
REMARK                         _______ _______ _______ _____ _____    ______ ____
ROOT
ATOM      1  C   UNL     1       1.083   9.692  18.910  0.00  0.00    +0.000 C 
ATOM      2  C   UNL     1       0.123   9.315  17.735  0.00  0.00    +0.000 C 
ATOM      3  C   UNL     1       1.669  11.027  18.400  0.00  0.00    +0.000 C 
ATOM      4  O   UNL     1       2.683  11.230  17.760  0.00  0.00    +0.000 OA
ATOM      5  N   UNL     1       0.688  11.994  18.735  0.00  0.00    +0.000 N 
ATOM      6  C   UNL     1      -0.108  11.531  19.794  0.00  0.00    +0.000 A 
ATOM      7  C   UNL     1      -0.987  12.260  20.584  0.00  0.00    +0.000 A 
ATOM      8 CL   UNL     1      -1.673  13.739  20.054  0.00  0.00    +0.000 Cl
ATOM      9  C   UNL     1      -1.272  11.777  21.857  0.00  0.00    +0.000 A 
ATOM     10  C   UNL     1      -0.566  10.671  22.339  0.00  0.00    +0.000 A 
ATOM     11  C   UNL     1       0.274   9.932  21.491  0.00  0.00    +0.000 A 
ATOM     12 CL   UNL     1       1.357   8.860  22.303  0.00  0.00    +0.000 Cl
ATOM     13  C   UNL     1       0.337  10.253  20.135  0.00  0.00    +0.000 A 
ATOM     14  H   UNL     1       0.764  12.971  18.485  0.00  0.00    +0.000 HD
ENDROOT
BRANCH   1  15
ATOM     15  C   UNL     1       1.876   8.434  19.265  0.00  0.00    +0.000 C 
BRANCH  15  20
ATOM     16  C   UNL     1       5.153   4.398  16.947  0.00  0.00    +0.000 C 
ATOM     17  C   UNL     1       4.108   5.438  17.233  0.00  0.00    +0.000 A 
ATOM     18  C   UNL     1       4.408   6.796  17.042  0.00  0.00    +0.000 A 
ATOM     19  C   UNL     1       3.583   7.781  17.548  0.00  0.00    +0.000 A 
ATOM     20  C   UNL     1       2.439   7.438  18.289  0.00  0.00    +0.000 A 
ATOM     21  C   UNL     1       2.077   6.075  18.374  0.00  0.00    +0.000 A 
ATOM     22  C   UNL     1       2.904   5.083  17.847  0.00  0.00    +0.000 A 
ENDBRANCH  15  20
ENDBRANCH   1  15
TORSDOF 2
ENDMDL
