MODEL 1
REMARK VINA RESULT:      -7.8      0.000      0.000
REMARK  Name = 
REMARK  7 active torsions:
REMARK  status: ('A' for Active; 'I' for Inactive)
REMARK    1  A    between atoms: C_1  and  C_2
REMARK    2  A    between atoms: C_4  and  C_5
REMARK    3  A    between atoms: C_5  and  O_7
REMARK    4  A    between atoms: C_9  and  C_10
REMARK    5  A    between atoms: C_10  and  O_11
REMARK    6  A    between atoms: O_11  and  C_12
REMARK    7  A    between atoms: C_15  and  C_16
REMARK                            x       y       z     vdW  Elec       q    Type
REMARK                         _______ _______ _______ _____ _____    ______ ____
ROOT
ATOM      1  O   UNL     1       3.515   4.195  18.489  0.00  0.00    +0.000 OA
ENDROOT
BRANCH   1   2
ATOM      2  C   UNL     1       2.917   5.326  18.975  0.00  0.00    +0.000 A 
ATOM      3  C   UNL     1       2.896   6.554  18.315  0.00  0.00    +0.000 A 
ATOM      4  C   UNL     1       2.323   7.669  18.928  0.00  0.00    +0.000 A 
ATOM      5  C   UNL     1       1.739   7.565  20.197  0.00  0.00    +0.000 A 
ATOM      6  C   UNL     1       1.714   6.316  20.830  0.00  0.00    +0.000 A 
ATOM      7  C   UNL     1       2.295   5.200  20.217  0.00  0.00    +0.000 A 
BRANCH   5   8
ATOM      8  C   UNL     1       1.162   8.746  20.814  0.00  0.00    +0.000 A 
ATOM      9  C   UNL     1       0.457   9.830  20.220  0.00  0.00    +0.000 A 
ATOM     10  C   UNL     1       0.153  10.704  21.236  0.00  0.00    +0.000 A 
ATOM     11  O   UNL     1       0.632  10.240  22.418  0.00  0.00    +0.000 OA
ATOM     12  C   UNL     1       1.246   9.056  22.157  0.00  0.00    +0.000 A 
ENDBRANCH   5   8
ENDBRANCH   1   2
BRANCH   1  13
ATOM     13  C   UNL     1       4.902   4.074  18.824  0.00  0.00    +0.000 C 
BRANCH  13  19
ATOM     14  C   UNL     1       7.728   5.742  18.861  0.00  0.00    +0.000 C 
ATOM     15  C   UNL     1       6.965   5.153  17.739  0.00  0.00    +0.000 A 
ATOM     16  O   UNL     1       7.498   5.302  16.494  0.00  0.00    +0.000 OA
ATOM     17  C   UNL     1       6.646   4.685  15.612  0.00  0.00    +0.000 A 
ATOM     18  C   UNL     1       5.576   4.154  16.299  0.00  0.00    +0.000 A 
ATOM     19  C   UNL     1       5.778   4.446  17.676  0.00  0.00    +0.000 A 
BRANCH  17  20
ATOM     20  C   UNL     1       6.982   4.685  14.210  0.00  0.00    +0.000 C 
ATOM     21  O   UNL     1       6.450   4.011  13.341  0.00  0.00    +0.000 OA
BRANCH  20  22
ATOM     22  O   UNL     1       7.994   5.553  13.951  0.00  0.00    +0.000 OA
ATOM     23  H   UNL     1       8.819   5.221  14.363  0.00  0.00    +0.000 HD
ENDBRANCH  20  22
ENDBRANCH  17  20
ENDBRANCH  13  19
ENDBRANCH   1  13
TORSDOF 6
ENDMDL
MODEL 2
REMARK VINA RESULT:      -7.7      0.526      1.062
REMARK  Name = 
REMARK  7 active torsions:
REMARK  status: ('A' for Active; 'I' for Inactive)
REMARK    1  A    between atoms: C_1  and  C_2
REMARK    2  A    between atoms: C_4  and  C_5
REMARK    3  A    between atoms: C_5  and  O_7
REMARK    4  A    between atoms: C_9  and  C_10
REMARK    5  A    between atoms: C_10  and  O_11
REMARK    6  A    between atoms: O_11  and  C_12
REMARK    7  A    between atoms: C_15  and  C_16
REMARK                            x       y       z     vdW  Elec       q    Type
REMARK                         _______ _______ _______ _____ _____    ______ ____
ROOT
ATOM      1  O   UNL     1       3.663   4.058  18.725  0.00  0.00    +0.000 OA
ENDROOT
BRANCH   1   2
ATOM      2  C   UNL     1       3.026   5.206  19.111  0.00  0.00    +0.000 A 
ATOM      3  C   UNL     1       3.024   6.392  18.378  0.00  0.00    +0.000 A 
ATOM      4  C   UNL     1       2.405   7.532  18.893  0.00  0.00    +0.000 A 
ATOM      5  C   UNL     1       1.756   7.494  20.134  0.00  0.00    +0.000 A 
ATOM      6  C   UNL     1       1.714   6.284  20.839  0.00  0.00    +0.000 A 
ATOM      7  C   UNL     1       2.342   5.144  20.325  0.00  0.00    +0.000 A 
BRANCH   5   8
ATOM      8  C   UNL     1       1.133   8.701  20.648  0.00  0.00    +0.000 A 
ATOM      9  C   UNL     1       0.652   8.988  21.956  0.00  0.00    +0.000 A 
ATOM     10  C   UNL     1       0.125  10.257  21.910  0.00  0.00    +0.000 A 
ATOM     11  O   UNL     1       0.238  10.770  20.659  0.00  0.00    +0.000 OA
ATOM     12  C   UNL     1       0.845   9.823  19.897  0.00  0.00    +0.000 A 
ENDBRANCH   5   8
ENDBRANCH   1   2
BRANCH   1  13
ATOM     13  C   UNL     1       5.054   4.016  19.064  0.00  0.00    +0.000 C 
BRANCH  13  19
ATOM     14  C   UNL     1       7.820   5.783  19.084  0.00  0.00    +0.000 C 
ATOM     15  C   UNL     1       7.074   5.163  17.966  0.00  0.00    +0.000 A 
ATOM     16  O   UNL     1       7.596   5.326  16.719  0.00  0.00    +0.000 OA
ATOM     17  C   UNL     1       6.762   4.676  15.843  0.00  0.00    +0.000 A 
ATOM     18  C   UNL     1       5.714   4.111  16.536  0.00  0.00    +0.000 A 
ATOM     19  C   UNL     1       5.912   4.414  17.912  0.00  0.00    +0.000 A 
BRANCH  17  20
ATOM     20  C   UNL     1       7.092   4.683  14.440  0.00  0.00    +0.000 C 
ATOM     21  O   UNL     1       7.783   5.511  13.865  0.00  0.00    +0.000 OA
BRANCH  20  22
ATOM     22  O   UNL     1       6.529   3.625  13.800  0.00  0.00    +0.000 OA
ATOM     23  H   UNL     1       5.645   3.448  14.185  0.00  0.00    +0.000 HD
ENDBRANCH  20  22
ENDBRANCH  17  20
ENDBRANCH  13  19
ENDBRANCH   1  13
TORSDOF 6
ENDMDL
MODEL 3
REMARK VINA RESULT:      -7.5      0.521      1.336
REMARK  Name = 
REMARK  7 active torsions:
REMARK  status: ('A' for Active; 'I' for Inactive)
REMARK    1  A    between atoms: C_1  and  C_2
REMARK    2  A    between atoms: C_4  and  C_5
REMARK    3  A    between atoms: C_5  and  O_7
REMARK    4  A    between atoms: C_9  and  C_10
REMARK    5  A    between atoms: C_10  and  O_11
REMARK    6  A    between atoms: O_11  and  C_12
REMARK    7  A    between atoms: C_15  and  C_16
REMARK                            x       y       z     vdW  Elec       q    Type
REMARK                         _______ _______ _______ _____ _____    ______ ____
ROOT
ATOM      1  O   UNL     1       3.552   4.266  17.869  0.00  0.00    +0.000 OA
ENDROOT
BRANCH   1   2
ATOM      2  C   UNL     1       3.046   5.298  18.611  0.00  0.00    +0.000 A 
ATOM      3  C   UNL     1       2.529   5.165  19.899  0.00  0.00    +0.000 A 
ATOM      4  C   UNL     1       1.967   6.266  20.545  0.00  0.00    +0.000 A 
ATOM      5  C   UNL     1       1.938   7.522  19.924  0.00  0.00    +0.000 A 
ATOM      6  C   UNL     1       2.509   7.660  18.652  0.00  0.00    +0.000 A 
ATOM      7  C   UNL     1       3.065   6.553  18.002  0.00  0.00    +0.000 A 
BRANCH   5   8
ATOM      8  C   UNL     1       1.334   8.646  20.617  0.00  0.00    +0.000 A 
ATOM      9  C   UNL     1       0.690   9.800  20.089  0.00  0.00    +0.000 A 
ATOM     10  C   UNL     1       0.324  10.571  21.166  0.00  0.00    +0.000 A 
ATOM     11  O   UNL     1       0.707   9.978  22.325  0.00  0.00    +0.000 OA
ATOM     12  C   UNL     1       1.322   8.815  21.988  0.00  0.00    +0.000 A 
ENDBRANCH   5   8
ENDBRANCH   1   2
BRANCH   1  13
ATOM     13  C   UNL     1       4.931   3.979  18.127  0.00  0.00    +0.000 C 
BRANCH  13  19
ATOM     14  C   UNL     1       7.433   6.098  18.286  0.00  0.00    +0.000 C 
ATOM     15  C   UNL     1       6.855   5.364  17.138  0.00  0.00    +0.000 A 
ATOM     16  O   UNL     1       7.439   5.574  15.924  0.00  0.00    +0.000 OA
ATOM     17  C   UNL     1       6.761   4.803  15.012  0.00  0.00    +0.000 A 
ATOM     18  C   UNL     1       5.751   4.115  15.647  0.00  0.00    +0.000 A 
ATOM     19  C   UNL     1       5.809   4.467  17.025  0.00  0.00    +0.000 A 
BRANCH  17  20
ATOM     20  C   UNL     1       7.186   4.829  13.634  0.00  0.00    +0.000 C 
ATOM     21  O   UNL     1       7.984   5.611  13.140  0.00  0.00    +0.000 OA
BRANCH  20  22
ATOM     22  O   UNL     1       6.578   3.848  12.918  0.00  0.00    +0.000 OA
ATOM     23  H   UNL     1       7.207   3.108  12.784  0.00  0.00    +0.000 HD
ENDBRANCH  20  22
ENDBRANCH  17  20
ENDBRANCH  13  19
ENDBRANCH   1  13
TORSDOF 6
ENDMDL
MODEL 4
REMARK VINA RESULT:      -7.5      0.527      1.483
REMARK  Name = 
REMARK  7 active torsions:
REMARK  status: ('A' for Active; 'I' for Inactive)
REMARK    1  A    between atoms: C_1  and  C_2
REMARK    2  A    between atoms: C_4  and  C_5
REMARK    3  A    between atoms: C_5  and  O_7
REMARK    4  A    between atoms: C_9  and  C_10
REMARK    5  A    between atoms: C_10  and  O_11
REMARK    6  A    between atoms: O_11  and  C_12
REMARK    7  A    between atoms: C_15  and  C_16
REMARK                            x       y       z     vdW  Elec       q    Type
REMARK                         _______ _______ _______ _____ _____    ______ ____
ROOT
ATOM      1  O   UNL     1       3.577   4.021  18.590  0.00  0.00    +0.000 OA
ENDROOT
BRANCH   1   2
ATOM      2  C   UNL     1       3.006   5.128  19.156  0.00  0.00    +0.000 A 
ATOM      3  C   UNL     1       2.346   5.136  20.384  0.00  0.00    +0.000 A 
ATOM      4  C   UNL     1       1.731   6.301  20.842  0.00  0.00    +0.000 A 
ATOM      5  C   UNL     1       1.791   7.483  20.092  0.00  0.00    +0.000 A 
ATOM      6  C   UNL     1       2.503   7.482  18.885  0.00  0.00    +0.000 A 
ATOM      7  C   UNL     1       3.113   6.311  18.424  0.00  0.00    +0.000 A 
BRANCH   5   8
ATOM      8  C   UNL     1       1.130   8.677  20.589  0.00  0.00    +0.000 A 
ATOM      9  C   UNL     1       0.693   8.992  21.907  0.00  0.00    +0.000 A 
ATOM     10  C   UNL     1       0.101  10.230  21.837  0.00  0.00    +0.000 A 
ATOM     11  O   UNL     1       0.133  10.698  20.564  0.00  0.00    +0.000 OA
ATOM     12  C   UNL     1       0.753   9.753  19.811  0.00  0.00    +0.000 A 
ENDBRANCH   5   8
ENDBRANCH   1   2
BRANCH   1  13
ATOM     13  C   UNL     1       4.966   3.855  18.896  0.00  0.00    +0.000 C 
BRANCH  13  19
ATOM     14  C   UNL     1       7.793   5.520  18.987  0.00  0.00    +0.000 C 
ATOM     15  C   UNL     1       7.021   4.983  17.845  0.00  0.00    +0.000 A 
ATOM     16  O   UNL     1       7.544   5.190  16.604  0.00  0.00    +0.000 OA
ATOM     17  C   UNL     1       6.683   4.614  15.701  0.00  0.00    +0.000 A 
ATOM     18  C   UNL     1       5.619   4.052  16.372  0.00  0.00    +0.000 A 
ATOM     19  C   UNL     1       5.833   4.280  17.760  0.00  0.00    +0.000 A 
BRANCH  17  20
ATOM     20  C   UNL     1       7.008   4.679  14.298  0.00  0.00    +0.000 C 
ATOM     21  O   UNL     1       7.730   5.506  13.763  0.00  0.00    +0.000 OA
BRANCH  20  22
ATOM     22  O   UNL     1       6.399   3.679  13.610  0.00  0.00    +0.000 OA
ATOM     23  H   UNL     1       6.423   3.885  12.652  0.00  0.00    +0.000 HD
ENDBRANCH  20  22
ENDBRANCH  17  20
ENDBRANCH  13  19
ENDBRANCH   1  13
TORSDOF 6
ENDMDL
MODEL 5
REMARK VINA RESULT:      -7.5      1.463      1.898
REMARK  Name = 
REMARK  7 active torsions:
REMARK  status: ('A' for Active; 'I' for Inactive)
REMARK    1  A    between atoms: C_1  and  C_2
REMARK    2  A    between atoms: C_4  and  C_5
REMARK    3  A    between atoms: C_5  and  O_7
REMARK    4  A    between atoms: C_9  and  C_10
REMARK    5  A    between atoms: C_10  and  O_11
REMARK    6  A    between atoms: O_11  and  C_12
REMARK    7  A    between atoms: C_15  and  C_16
REMARK                            x       y       z     vdW  Elec       q    Type
REMARK                         _______ _______ _______ _____ _____    ______ ____
ROOT
ATOM      1  O   UNL     1       3.348   7.090  17.468  0.00  0.00    +0.000 OA
ENDROOT
BRANCH   1   2
ATOM      2  C   UNL     1       2.527   7.754  18.339  0.00  0.00    +0.000 A 
ATOM      3  C   UNL     1       1.876   8.954  18.052  0.00  0.00    +0.000 A 
ATOM      4  C   UNL     1       1.119   9.592  19.033  0.00  0.00    +0.000 A 
ATOM      5  C   UNL     1       0.977   9.026  20.307  0.00  0.00    +0.000 A 
ATOM      6  C   UNL     1       1.588   7.793  20.572  0.00  0.00    +0.000 A 
ATOM      7  C   UNL     1       2.355   7.158  19.588  0.00  0.00    +0.000 A 
BRANCH   5   8
ATOM      8  C   UNL     1       0.192   9.721  21.312  0.00  0.00    +0.000 A 
ATOM      9  C   UNL     1      -0.105   9.346  22.653  0.00  0.00    +0.000 A 
ATOM     10  C   UNL     1      -0.910  10.335  23.166  0.00  0.00    +0.000 A 
ATOM     11  O   UNL     1      -1.140  11.291  22.231  0.00  0.00    +0.000 OA
ATOM     12  C   UNL     1      -0.474  10.913  21.109  0.00  0.00    +0.000 A 
ENDBRANCH   5   8
ENDBRANCH   1   2
BRANCH   1  13
ATOM     13  C   UNL     1       4.488   6.481  18.084  0.00  0.00    +0.000 C 
BRANCH  13  19
ATOM     14  C   UNL     1       7.736   6.923  18.255  0.00  0.00    +0.000 C 
ATOM     15  C   UNL     1       6.893   6.330  17.193  0.00  0.00    +0.000 A 
ATOM     16  O   UNL     1       7.540   5.873  16.085  0.00  0.00    +0.000 OA
ATOM     17  C   UNL     1       6.584   5.364  15.240  0.00  0.00    +0.000 A 
ATOM     18  C   UNL     1       5.339   5.506  15.812  0.00  0.00    +0.000 A 
ATOM     19  C   UNL     1       5.530   6.124  17.079  0.00  0.00    +0.000 A 
BRANCH  17  20
ATOM     20  C   UNL     1       7.004   4.799  13.982  0.00  0.00    +0.000 C 
ATOM     21  O   UNL     1       6.477   3.861  13.401  0.00  0.00    +0.000 OA
BRANCH  20  22
ATOM     22  O   UNL     1       8.091   5.449  13.493  0.00  0.00    +0.000 OA
ATOM     23  H   UNL     1       7.997   6.410  13.661  0.00  0.00    +0.000 HD
ENDBRANCH  20  22
ENDBRANCH  17  20
ENDBRANCH  13  19
ENDBRANCH   1  13
TORSDOF 6
ENDMDL
MODEL 6
REMARK VINA RESULT:      -7.4      3.612      4.842
REMARK  Name = 
REMARK  7 active torsions:
REMARK  status: ('A' for Active; 'I' for Inactive)
REMARK    1  A    between atoms: C_1  and  C_2
REMARK    2  A    between atoms: C_4  and  C_5
REMARK    3  A    between atoms: C_5  and  O_7
REMARK    4  A    between atoms: C_9  and  C_10
REMARK    5  A    between atoms: C_10  and  O_11
REMARK    6  A    between atoms: O_11  and  C_12
REMARK    7  A    between atoms: C_15  and  C_16
REMARK                            x       y       z     vdW  Elec       q    Type
REMARK                         _______ _______ _______ _____ _____    ______ ____
ROOT
ATOM      1  O   UNL     1       5.839   6.007  15.982  0.00  0.00    +0.000 OA
ENDROOT
BRANCH   1   2
ATOM      2  C   UNL     1       5.130   5.348  16.949  0.00  0.00    +0.000 A 
ATOM      3  C   UNL     1       4.262   4.285  16.705  0.00  0.00    +0.000 A 
ATOM      4  C   UNL     1       3.528   3.726  17.751  0.00  0.00    +0.000 A 
ATOM      5  C   UNL     1       3.670   4.204  19.060  0.00  0.00    +0.000 A 
ATOM      6  C   UNL     1       4.585   5.236  19.307  0.00  0.00    +0.000 A 
ATOM      7  C   UNL     1       5.316   5.801  18.255  0.00  0.00    +0.000 A 
BRANCH   5   8
ATOM      8  C   UNL     1       2.882   3.611  20.126  0.00  0.00    +0.000 A 
ATOM      9  C   UNL     1       1.555   3.907  20.547  0.00  0.00    +0.000 A 
ATOM     10  C   UNL     1       1.292   3.083  21.616  0.00  0.00    +0.000 A 
ATOM     11  O   UNL     1       2.368   2.305  21.890  0.00  0.00    +0.000 OA
ATOM     12  C   UNL     1       3.331   2.631  20.988  0.00  0.00    +0.000 A 
ENDBRANCH   5   8
ENDBRANCH   1   2
BRANCH   1  13
ATOM     13  C   UNL     1       7.008   5.313  15.534  0.00  0.00    +0.000 C 
BRANCH  13  19
ATOM     14  C   UNL     1       8.601   5.909  12.726  0.00  0.00    +0.000 C 
ATOM     15  C   UNL     1       7.495   4.974  13.035  0.00  0.00    +0.000 A 
ATOM     16  O   UNL     1       7.038   4.209  12.004  0.00  0.00    +0.000 OA
ATOM     17  C   UNL     1       6.030   3.421  12.502  0.00  0.00    +0.000 A 
ATOM     18  C   UNL     1       5.850   3.692  13.841  0.00  0.00    +0.000 A 
ATOM     19  C   UNL     1       6.798   4.691  14.196  0.00  0.00    +0.000 A 
BRANCH  17  20
ATOM     20  C   UNL     1       5.372   2.496  11.613  0.00  0.00    +0.000 C 
ATOM     21  O   UNL     1       4.295   2.668  11.063  0.00  0.00    +0.000 OA
BRANCH  20  22
ATOM     22  O   UNL     1       6.111   1.369  11.446  0.00  0.00    +0.000 OA
ATOM     23  H   UNL     1       5.556   0.586  11.642  0.00  0.00    +0.000 HD
ENDBRANCH  20  22
ENDBRANCH  17  20
ENDBRANCH  13  19
ENDBRANCH   1  13
TORSDOF 6
ENDMDL
MODEL 7
REMARK VINA RESULT:      -7.4      1.621      2.493
REMARK  Name = 
REMARK  7 active torsions:
REMARK  status: ('A' for Active; 'I' for Inactive)
REMARK    1  A    between atoms: C_1  and  C_2
REMARK    2  A    between atoms: C_4  and  C_5
REMARK    3  A    between atoms: C_5  and  O_7
REMARK    4  A    between atoms: C_9  and  C_10
REMARK    5  A    between atoms: C_10  and  O_11
REMARK    6  A    between atoms: O_11  and  C_12
REMARK    7  A    between atoms: C_15  and  C_16
REMARK                            x       y       z     vdW  Elec       q    Type
REMARK                         _______ _______ _______ _____ _____    ______ ____
ROOT
ATOM      1  O   UNL     1       3.166   7.329  17.845  0.00  0.00    +0.000 OA
ENDROOT
BRANCH   1   2
ATOM      2  C   UNL     1       2.332   8.048  18.659  0.00  0.00    +0.000 A 
ATOM      3  C   UNL     1       1.726   9.252  18.302  0.00  0.00    +0.000 A 
ATOM      4  C   UNL     1       0.950   9.946  19.230  0.00  0.00    +0.000 A 
ATOM      5  C   UNL     1       0.746   9.434  20.518  0.00  0.00    +0.000 A 
ATOM      6  C   UNL     1       1.313   8.197  20.851  0.00  0.00    +0.000 A 
ATOM      7  C   UNL     1       2.097   7.504  19.922  0.00  0.00    +0.000 A 
BRANCH   5   8
ATOM      8  C   UNL     1      -0.056  10.187  21.466  0.00  0.00    +0.000 A 
ATOM      9  C   UNL     1      -0.868  11.337  21.257  0.00  0.00    +0.000 A 
ATOM     10  C   UNL     1      -1.388  11.677  22.483  0.00  0.00    +0.000 A 
ATOM     11  O   UNL     1      -0.945  10.822  23.439  0.00  0.00    +0.000 OA
ATOM     12  C   UNL     1      -0.135   9.924  22.819  0.00  0.00    +0.000 A 
ENDBRANCH   5   8
ENDBRANCH   1   2
BRANCH   1  13
ATOM     13  C   UNL     1       3.246   5.937  18.169  0.00  0.00    +0.000 C 
BRANCH  13  19
ATOM     14  C   UNL     1       3.719   2.703  17.864  0.00  0.00    +0.000 C 
ATOM     15  C   UNL     1       4.345   3.845  17.161  0.00  0.00    +0.000 A 
ATOM     16  O   UNL     1       5.278   3.541  16.215  0.00  0.00    +0.000 OA
ATOM     17  C   UNL     1       5.722   4.730  15.690  0.00  0.00    +0.000 A 
ATOM     18  C   UNL     1       5.076   5.778  16.308  0.00  0.00    +0.000 A 
ATOM     19  C   UNL     1       4.178   5.214  17.256  0.00  0.00    +0.000 A 
BRANCH  17  20
ATOM     20  C   UNL     1       6.717   4.696  14.648  0.00  0.00    +0.000 C 
ATOM     21  O   UNL     1       7.653   5.471  14.519  0.00  0.00    +0.000 OA
BRANCH  20  22
ATOM     22  O   UNL     1       6.493   3.666  13.792  0.00  0.00    +0.000 OA
ATOM     23  H   UNL     1       5.690   3.180  14.074  0.00  0.00    +0.000 HD
ENDBRANCH  20  22
ENDBRANCH  17  20
ENDBRANCH  13  19
ENDBRANCH   1  13
TORSDOF 6
ENDMDL
MODEL 8
REMARK VINA RESULT:      -7.4      1.252      1.934
REMARK  Name = 
REMARK  7 active torsions:
REMARK  status: ('A' for Active; 'I' for Inactive)
REMARK    1  A    between atoms: C_1  and  C_2
REMARK    2  A    between atoms: C_4  and  C_5
REMARK    3  A    between atoms: C_5  and  O_7
REMARK    4  A    between atoms: C_9  and  C_10
REMARK    5  A    between atoms: C_10  and  O_11
REMARK    6  A    between atoms: O_11  and  C_12
REMARK    7  A    between atoms: C_15  and  C_16
REMARK                            x       y       z     vdW  Elec       q    Type
REMARK                         _______ _______ _______ _____ _____    ______ ____
ROOT
ATOM      1  O   UNL     1       3.352   5.216  18.717  0.00  0.00    +0.000 OA
ENDROOT
BRANCH   1   2
ATOM      2  C   UNL     1       2.770   6.431  18.959  0.00  0.00    +0.000 A 
ATOM      3  C   UNL     1       2.189   6.801  20.171  0.00  0.00    +0.000 A 
ATOM      4  C   UNL     1       1.554   8.037  20.295  0.00  0.00    +0.000 A 
ATOM      5  C   UNL     1       1.516   8.932  19.218  0.00  0.00    +0.000 A 
ATOM      6  C   UNL     1       2.149   8.576  18.020  0.00  0.00    +0.000 A 
ATOM      7  C   UNL     1       2.779   7.333  17.895  0.00  0.00    +0.000 A 
BRANCH   5   8
ATOM      8  C   UNL     1       0.836  10.206  19.374  0.00  0.00    +0.000 A 
ATOM      9  C   UNL     1       1.139  11.473  18.803  0.00  0.00    +0.000 A 
ATOM     10  C   UNL     1       0.207  12.357  19.294  0.00  0.00    +0.000 A 
ATOM     11  O   UNL     1      -0.645  11.724  20.139  0.00  0.00    +0.000 OA
ATOM     12  C   UNL     1      -0.258  10.422  20.188  0.00  0.00    +0.000 A 
ENDBRANCH   5   8
ENDBRANCH   1   2
BRANCH   1  13
ATOM     13  C   UNL     1       4.697   5.103  19.196  0.00  0.00    +0.000 C 
BRANCH  13  19
ATOM     14  C   UNL     1       7.908   5.780  19.279  0.00  0.00    +0.000 C 
ATOM     15  C   UNL     1       7.029   5.385  18.156  0.00  0.00    +0.000 A 
ATOM     16  O   UNL     1       7.618   5.266  16.933  0.00  0.00    +0.000 OA
ATOM     17  C   UNL     1       6.638   4.892  16.047  0.00  0.00    +0.000 A 
ATOM     18  C   UNL     1       5.435   4.781  16.708  0.00  0.00    +0.000 A 
ATOM     19  C   UNL     1       5.679   5.092  18.075  0.00  0.00    +0.000 A 
BRANCH  17  20
ATOM     20  C   UNL     1       6.998   4.683  14.667  0.00  0.00    +0.000 C 
ATOM     21  O   UNL     1       7.747   5.383  14.003  0.00  0.00    +0.000 OA
BRANCH  20  22
ATOM     22  O   UNL     1       6.388   3.578  14.165  0.00  0.00    +0.000 OA
ATOM     23  H   UNL     1       6.908   2.783  14.408  0.00  0.00    +0.000 HD
ENDBRANCH  20  22
ENDBRANCH  17  20
ENDBRANCH  13  19
ENDBRANCH   1  13
TORSDOF 6
ENDMDL
MODEL 9
REMARK VINA RESULT:      -7.3      1.062      1.366
REMARK  Name = 
REMARK  7 active torsions:
REMARK  status: ('A' for Active; 'I' for Inactive)
REMARK    1  A    between atoms: C_1  and  C_2
REMARK    2  A    between atoms: C_4  and  C_5
REMARK    3  A    between atoms: C_5  and  O_7
REMARK    4  A    between atoms: C_9  and  C_10
REMARK    5  A    between atoms: C_10  and  O_11
REMARK    6  A    between atoms: O_11  and  C_12
REMARK    7  A    between atoms: C_15  and  C_16
REMARK                            x       y       z     vdW  Elec       q    Type
REMARK                         _______ _______ _______ _____ _____    ______ ____
ROOT
ATOM      1  O   UNL     1       3.630   5.351  18.507  0.00  0.00    +0.000 OA
ENDROOT
BRANCH   1   2
ATOM      2  C   UNL     1       2.868   6.445  18.818  0.00  0.00    +0.000 A 
ATOM      3  C   UNL     1       2.650   7.524  17.962  0.00  0.00    +0.000 A 
ATOM      4  C   UNL     1       1.917   8.627  18.399  0.00  0.00    +0.000 A 
ATOM      5  C   UNL     1       1.369   8.656  19.688  0.00  0.00    +0.000 A 
ATOM      6  C   UNL     1       1.546   7.545  20.523  0.00  0.00    +0.000 A 
ATOM      7  C   UNL     1       2.287   6.442  20.086  0.00  0.00    +0.000 A 
BRANCH   5   8
ATOM      8  C   UNL     1       0.622   9.825  20.119  0.00  0.00    +0.000 A 
ATOM      9  C   UNL     1      -0.515  10.445  19.529  0.00  0.00    +0.000 A 
ATOM     10  C   UNL     1      -0.815  11.536  20.310  0.00  0.00    +0.000 A 
ATOM     11  O   UNL     1       0.065  11.638  21.337  0.00  0.00    +0.000 OA
ATOM     12  C   UNL     1       0.936  10.603  21.215  0.00  0.00    +0.000 A 
ENDBRANCH   5   8
ENDBRANCH   1   2
BRANCH   1  13
ATOM     13  C   UNL     1       5.023   5.504  18.799  0.00  0.00    +0.000 C 
BRANCH  13  19
ATOM     14  C   UNL     1       7.802   7.145  18.198  0.00  0.00    +0.000 C 
ATOM     15  C   UNL     1       7.015   6.226  17.346  0.00  0.00    +0.000 A 
ATOM     16  O   UNL     1       7.498   5.992  16.093  0.00  0.00    +0.000 OA
ATOM     17  C   UNL     1       6.630   5.121  15.482  0.00  0.00    +0.000 A 
ATOM     18  C   UNL     1       5.602   4.811  16.345  0.00  0.00    +0.000 A 
ATOM     19  C   UNL     1       5.846   5.517  17.556  0.00  0.00    +0.000 A 
BRANCH  17  20
ATOM     20  C   UNL     1       6.915   4.694  14.135  0.00  0.00    +0.000 C 
ATOM     21  O   UNL     1       7.565   5.311  13.305  0.00  0.00    +0.000 OA
BRANCH  20  22
ATOM     22  O   UNL     1       6.360   3.480  13.880  0.00  0.00    +0.000 OA
ATOM     23  H   UNL     1       6.030   3.463  12.957  0.00  0.00    +0.000 HD
ENDBRANCH  20  22
ENDBRANCH  17  20
ENDBRANCH  13  19
ENDBRANCH   1  13
TORSDOF 6
ENDMDL
