MODEL 1
REMARK VINA RESULT:      -8.7      0.000      0.000
REMARK  Name = 
REMARK  9 active torsions:
REMARK  status: ('A' for Active; 'I' for Inactive)
REMARK    1  A    between atoms: C_1  and  C_2
REMARK    2  A    between atoms: C_4  and  O_5
REMARK    3  A    between atoms: O_5  and  C_6
REMARK    4  A    between atoms: C_6  and  C_7
REMARK    5  A    between atoms: C_6  and  C_8
REMARK    6  A    between atoms: N_10  and  C_11
REMARK    7  A    between atoms: C_11  and  C_12
REMARK    8  A    between atoms: C_12  and  O_13
REMARK    9  A    between atoms: C_12  and  C_14
REMARK                            x       y       z     vdW  Elec       q    Type
REMARK                         _______ _______ _______ _____ _____    ______ ____
ROOT
ATOM      1  O   UNL     1      -0.104  10.272  18.992  0.00  0.00    +0.000 OA
ENDROOT
BRANCH   1   5
ATOM      2  C   UNL     1      -3.079   9.959  15.049  0.00  0.00    +0.000 C 
ATOM      3  C   UNL     1      -2.800  10.407  16.454  0.00  0.00    +0.000 A 
ATOM      4  C   UNL     1      -1.614  10.044  17.101  0.00  0.00    +0.000 A 
ATOM      5  C   UNL     1      -1.302  10.538  18.380  0.00  0.00    +0.000 A 
ATOM      6  C   UNL     1      -2.240  11.316  19.097  0.00  0.00    +0.000 A 
ATOM      7  C   UNL     1      -2.070  11.820  20.483  0.00  0.00    +0.000 A 
ATOM      8  C   UNL     1      -3.025  12.599  21.030  0.00  0.00    +0.000 A 
ATOM      9  C   UNL     1      -4.272  12.945  20.305  0.00  0.00    +0.000 A 
ATOM     10  O   UNL     1      -5.150  13.634  20.819  0.00  0.00    +0.000 OA
ATOM     11  O   UNL     1      -4.407  12.452  19.023  0.00  0.00    +0.000 OA
ATOM     12  C   UNL     1      -3.420  11.647  18.427  0.00  0.00    +0.000 A 
ATOM     13  C   UNL     1      -3.704  11.224  17.124  0.00  0.00    +0.000 A 
ATOM     14  C   UNL     1      -2.920  13.187  22.418  0.00  0.00    +0.000 C 
ATOM     15  C   UNL     1      -1.503  13.135  22.991  0.00  0.00    +0.000 C 
ATOM     16  C   UNL     1      -0.909  11.759  22.770  0.00  0.00    +0.000 C 
ATOM     17  C   UNL     1      -0.838  11.438  21.280  0.00  0.00    +0.000 C 
ENDBRANCH   1   5
BRANCH   1  18
ATOM     18  C   UNL     1       1.033   9.962  18.186  0.00  0.00    +0.000 C 
ATOM     19  C   UNL     1       1.992  11.148  18.242  0.00  0.00    +0.000 C 
BRANCH  18  20
ATOM     20  C   UNL     1       1.753   8.742  18.754  0.00  0.00    +0.000 C 
ATOM     21  O   UNL     1       1.614   8.390  19.929  0.00  0.00    +0.000 OA
ATOM     22  N   UNL     1       2.516   8.039  17.846  0.00  0.00    +0.000 N 
ATOM     23  H   UNL     1       2.867   8.562  17.043  0.00  0.00    +0.000 HD
BRANCH  22  24
ATOM     24  C   UNL     1       3.290   6.909  18.313  0.00  0.00    +0.000 C 
BRANCH  24  25
ATOM     25  C   UNL     1       2.750   5.545  17.856  0.00  0.00    +0.000 C 
BRANCH  25  26
ATOM     26  C   UNL     1       2.223   4.667  18.977  0.00  0.00    +0.000 A 
ATOM     27  C   UNL     1       2.556   4.869  20.328  0.00  0.00    +0.000 A 
ATOM     28  C   UNL     1       2.066   4.023  21.323  0.00  0.00    +0.000 A 
ATOM     29  C   UNL     1       1.230   2.965  20.992  0.00  0.00    +0.000 A 
ATOM     30  C   UNL     1       0.872   2.757  19.661  0.00  0.00    +0.000 A 
ATOM     31  C   UNL     1       1.363   3.601  18.660  0.00  0.00    +0.000 A 
ENDBRANCH  25  26
BRANCH  25  32
ATOM     32  O   UNL     1       3.820   4.860  17.186  0.00  0.00    +0.000 OA
ATOM     33  H   UNL     1       3.448   4.028  16.843  0.00  0.00    +0.000 HD
ENDBRANCH  25  32
ENDBRANCH  24  25
ENDBRANCH  22  24
ENDBRANCH  18  20
ENDBRANCH   1  18
TORSDOF 7
ENDMDL
MODEL 2
REMARK VINA RESULT:      -8.4      1.244      1.573
REMARK  Name = 
REMARK  9 active torsions:
REMARK  status: ('A' for Active; 'I' for Inactive)
REMARK    1  A    between atoms: C_1  and  C_2
REMARK    2  A    between atoms: C_4  and  O_5
REMARK    3  A    between atoms: O_5  and  C_6
REMARK    4  A    between atoms: C_6  and  C_7
REMARK    5  A    between atoms: C_6  and  C_8
REMARK    6  A    between atoms: N_10  and  C_11
REMARK    7  A    between atoms: C_11  and  C_12
REMARK    8  A    between atoms: C_12  and  O_13
REMARK    9  A    between atoms: C_12  and  C_14
REMARK                            x       y       z     vdW  Elec       q    Type
REMARK                         _______ _______ _______ _____ _____    ______ ____
ROOT
ATOM      1  O   UNL     1      -0.466  10.772  19.278  0.00  0.00    +0.000 OA
ENDROOT
BRANCH   1   5
ATOM      2  C   UNL     1      -3.022   9.954  15.120  0.00  0.00    +0.000 C 
ATOM      3  C   UNL     1      -2.922  10.490  16.517  0.00  0.00    +0.000 A 
ATOM      4  C   UNL     1      -1.765  10.294  17.280  0.00  0.00    +0.000 A 
ATOM      5  C   UNL     1      -1.626  10.873  18.554  0.00  0.00    +0.000 A 
ATOM      6  C   UNL     1      -2.705  11.567  19.147  0.00  0.00    +0.000 A 
ATOM      7  C   UNL     1      -2.717  12.145  20.515  0.00  0.00    +0.000 A 
ATOM      8  C   UNL     1      -3.798  12.831  20.939  0.00  0.00    +0.000 A 
ATOM      9  C   UNL     1      -5.005  13.001  20.094  0.00  0.00    +0.000 A 
ATOM     10  O   UNL     1      -5.996  13.606  20.496  0.00  0.00    +0.000 OA
ATOM     11  O   UNL     1      -4.969  12.443  18.833  0.00  0.00    +0.000 OA
ATOM     12  C   UNL     1      -3.849  11.732  18.364  0.00  0.00    +0.000 A 
ATOM     13  C   UNL     1      -3.967  11.226  17.066  0.00  0.00    +0.000 A 
ATOM     14  C   UNL     1      -3.884  13.485  22.298  0.00  0.00    +0.000 C 
ATOM     15  C   UNL     1      -2.526  13.621  22.991  0.00  0.00    +0.000 C 
ATOM     16  C   UNL     1      -1.766  12.314  22.892  0.00  0.00    +0.000 C 
ATOM     17  C   UNL     1      -1.527  11.942  21.432  0.00  0.00    +0.000 C 
ENDBRANCH   1   5
BRANCH   1  18
ATOM     18  C   UNL     1       0.746  11.277  18.717  0.00  0.00    +0.000 C 
ATOM     19  C   UNL     1       1.467  12.084  19.794  0.00  0.00    +0.000 C 
BRANCH  18  20
ATOM     20  C   UNL     1       1.650  10.116  18.309  0.00  0.00    +0.000 C 
ATOM     21  O   UNL     1       2.541  10.248  17.465  0.00  0.00    +0.000 OA
ATOM     22  N   UNL     1       1.433   8.939  18.994  0.00  0.00    +0.000 N 
ATOM     23  H   UNL     1       0.499   8.801  19.380  0.00  0.00    +0.000 HD
BRANCH  22  24
ATOM     24  C   UNL     1       2.197   7.767  18.623  0.00  0.00    +0.000 C 
BRANCH  24  25
ATOM     25  C   UNL     1       2.458   6.794  19.784  0.00  0.00    +0.000 C 
BRANCH  25  26
ATOM     26  C   UNL     1       1.956   5.381  19.547  0.00  0.00    +0.000 A 
ATOM     27  C   UNL     1       1.401   4.585  20.564  0.00  0.00    +0.000 A 
ATOM     28  C   UNL     1       0.972   3.283  20.306  0.00  0.00    +0.000 A 
ATOM     29  C   UNL     1       1.085   2.751  19.028  0.00  0.00    +0.000 A 
ATOM     30  C   UNL     1       1.617   3.527  18.000  0.00  0.00    +0.000 A 
ATOM     31  C   UNL     1       2.049   4.833  18.256  0.00  0.00    +0.000 A 
ENDBRANCH  25  26
BRANCH  25  32
ATOM     32  O   UNL     1       1.814   7.332  20.950  0.00  0.00    +0.000 OA
ATOM     33  H   UNL     1       2.413   7.168  21.701  0.00  0.00    +0.000 HD
ENDBRANCH  25  32
ENDBRANCH  24  25
ENDBRANCH  22  24
ENDBRANCH  18  20
ENDBRANCH   1  18
TORSDOF 7
ENDMDL
MODEL 3
REMARK VINA RESULT:      -8.3      0.846      1.177
REMARK  Name = 
REMARK  9 active torsions:
REMARK  status: ('A' for Active; 'I' for Inactive)
REMARK    1  A    between atoms: C_1  and  C_2
REMARK    2  A    between atoms: C_4  and  O_5
REMARK    3  A    between atoms: O_5  and  C_6
REMARK    4  A    between atoms: C_6  and  C_7
REMARK    5  A    between atoms: C_6  and  C_8
REMARK    6  A    between atoms: N_10  and  C_11
REMARK    7  A    between atoms: C_11  and  C_12
REMARK    8  A    between atoms: C_12  and  O_13
REMARK    9  A    between atoms: C_12  and  C_14
REMARK                            x       y       z     vdW  Elec       q    Type
REMARK                         _______ _______ _______ _____ _____    ______ ____
ROOT
ATOM      1  O   UNL     1      -0.153  10.085  18.793  0.00  0.00    +0.000 OA
ENDROOT
BRANCH   1   5
ATOM      2  C   UNL     1      -3.304  10.032  14.977  0.00  0.00    +0.000 C 
ATOM      3  C   UNL     1      -2.946  10.421  16.381  0.00  0.00    +0.000 A 
ATOM      4  C   UNL     1      -1.751   9.986  16.964  0.00  0.00    +0.000 A 
ATOM      5  C   UNL     1      -1.364  10.422  18.243  0.00  0.00    +0.000 A 
ATOM      6  C   UNL     1      -2.234  11.216  19.024  0.00  0.00    +0.000 A 
ATOM      7  C   UNL     1      -1.984  11.665  20.417  0.00  0.00    +0.000 A 
ATOM      8  C   UNL     1      -2.879  12.466  21.030  0.00  0.00    +0.000 A 
ATOM      9  C   UNL     1      -4.139  12.890  20.371  0.00  0.00    +0.000 A 
ATOM     10  O   UNL     1      -4.963  13.598  20.945  0.00  0.00    +0.000 OA
ATOM     11  O   UNL     1      -4.350  12.446  19.081  0.00  0.00    +0.000 OA
ATOM     12  C   UNL     1      -3.426  11.619  18.417  0.00  0.00    +0.000 A 
ATOM     13  C   UNL     1      -3.783  11.253  17.115  0.00  0.00    +0.000 A 
ATOM     14  C   UNL     1      -2.690  13.003  22.430  0.00  0.00    +0.000 C 
ATOM     15  C   UNL     1      -1.253  12.870  22.938  0.00  0.00    +0.000 C 
ATOM     16  C   UNL     1      -0.731  11.478  22.648  0.00  0.00    +0.000 C 
ATOM     17  C   UNL     1      -0.738  11.205  21.146  0.00  0.00    +0.000 C 
ENDBRANCH   1   5
BRANCH   1  18
ATOM     18  C   UNL     1       1.036  10.291  18.031  0.00  0.00    +0.000 C 
ATOM     19  C   UNL     1       1.777  11.487  18.623  0.00  0.00    +0.000 C 
BRANCH  18  20
ATOM     20  C   UNL     1       1.942   9.068  18.146  0.00  0.00    +0.000 C 
ATOM     21  O   UNL     1       2.805   8.813  17.300  0.00  0.00    +0.000 OA
ATOM     22  N   UNL     1       1.763   8.313  19.285  0.00  0.00    +0.000 N 
ATOM     23  H   UNL     1       0.843   8.360  19.724  0.00  0.00    +0.000 HD
BRANCH  22  24
ATOM     24  C   UNL     1       2.531   7.096  19.443  0.00  0.00    +0.000 C 
BRANCH  24  25
ATOM     25  C   UNL     1       2.336   6.078  18.308  0.00  0.00    +0.000 C 
BRANCH  25  26
ATOM     26  C   UNL     1       1.963   4.681  18.772  0.00  0.00    +0.000 A 
ATOM     27  C   UNL     1       2.045   3.551  17.940  0.00  0.00    +0.000 A 
ATOM     28  C   UNL     1       1.671   2.289  18.401  0.00  0.00    +0.000 A 
ATOM     29  C   UNL     1       1.213   2.129  19.703  0.00  0.00    +0.000 A 
ATOM     30  C   UNL     1       1.140   3.232  20.551  0.00  0.00    +0.000 A 
ATOM     31  C   UNL     1       1.513   4.499  20.091  0.00  0.00    +0.000 A 
ENDBRANCH  25  26
BRANCH  25  32
ATOM     32  O   UNL     1       3.565   6.015  17.569  0.00  0.00    +0.000 OA
ATOM     33  H   UNL     1       4.220   5.587  18.150  0.00  0.00    +0.000 HD
ENDBRANCH  25  32
ENDBRANCH  24  25
ENDBRANCH  22  24
ENDBRANCH  18  20
ENDBRANCH   1  18
TORSDOF 7
ENDMDL
MODEL 4
REMARK VINA RESULT:      -8.2      1.020      1.149
REMARK  Name = 
REMARK  9 active torsions:
REMARK  status: ('A' for Active; 'I' for Inactive)
REMARK    1  A    between atoms: C_1  and  C_2
REMARK    2  A    between atoms: C_4  and  O_5
REMARK    3  A    between atoms: O_5  and  C_6
REMARK    4  A    between atoms: C_6  and  C_7
REMARK    5  A    between atoms: C_6  and  C_8
REMARK    6  A    between atoms: N_10  and  C_11
REMARK    7  A    between atoms: C_11  and  C_12
REMARK    8  A    between atoms: C_12  and  O_13
REMARK    9  A    between atoms: C_12  and  C_14
REMARK                            x       y       z     vdW  Elec       q    Type
REMARK                         _______ _______ _______ _____ _____    ______ ____
ROOT
ATOM      1  O   UNL     1      -0.464  11.614  19.108  0.00  0.00    +0.000 OA
ENDROOT
BRANCH   1   5
ATOM      2  C   UNL     1      -3.145  10.343  15.147  0.00  0.00    +0.000 C 
ATOM      3  C   UNL     1      -3.040  10.844  16.557  0.00  0.00    +0.000 A 
ATOM      4  C   UNL     1      -1.801  10.903  17.207  0.00  0.00    +0.000 A 
ATOM      5  C   UNL     1      -1.680  11.459  18.492  0.00  0.00    +0.000 A 
ATOM      6  C   UNL     1      -2.829  11.859  19.212  0.00  0.00    +0.000 A 
ATOM      7  C   UNL     1      -2.845  12.374  20.604  0.00  0.00    +0.000 A 
ATOM      8  C   UNL     1      -4.010  12.771  21.155  0.00  0.00    +0.000 A 
ATOM      9  C   UNL     1      -5.299  12.676  20.426  0.00  0.00    +0.000 A 
ATOM     10  O   UNL     1      -6.361  13.016  20.943  0.00  0.00    +0.000 OA
ATOM     11  O   UNL     1      -5.255  12.182  19.139  0.00  0.00    +0.000 OA
ATOM     12  C   UNL     1      -4.050  11.772  18.539  0.00  0.00    +0.000 A 
ATOM     13  C   UNL     1      -4.170  11.293  17.231  0.00  0.00    +0.000 A 
ATOM     14  C   UNL     1      -4.116  13.344  22.549  0.00  0.00    +0.000 C 
ATOM     15  C   UNL     1      -2.768  13.775  23.129  0.00  0.00    +0.000 C 
ATOM     16  C   UNL     1      -1.737  12.690  22.897  0.00  0.00    +0.000 C 
ATOM     17  C   UNL     1      -1.558  12.430  21.404  0.00  0.00    +0.000 C 
ENDBRANCH   1   5
BRANCH   1  18
ATOM     18  C   UNL     1       0.689  11.007  18.526  0.00  0.00    +0.000 C 
ATOM     19  C   UNL     1       1.836  12.013  18.588  0.00  0.00    +0.000 C 
BRANCH  18  20
ATOM     20  C   UNL     1       1.092   9.778  19.337  0.00  0.00    +0.000 C 
ATOM     21  O   UNL     1       0.822   9.671  20.537  0.00  0.00    +0.000 OA
ATOM     22  N   UNL     1       1.722   8.786  18.618  0.00  0.00    +0.000 N 
ATOM     23  H   UNL     1       2.218   9.076  17.775  0.00  0.00    +0.000 HD
BRANCH  22  24
ATOM     24  C   UNL     1       2.202   7.614  19.320  0.00  0.00    +0.000 C 
BRANCH  24  25
ATOM     25  C   UNL     1       2.534   6.425  18.405  0.00  0.00    +0.000 C 
BRANCH  25  26
ATOM     26  C   UNL     1       2.003   5.089  18.891  0.00  0.00    +0.000 A 
ATOM     27  C   UNL     1       1.608   4.859  20.221  0.00  0.00    +0.000 A 
ATOM     28  C   UNL     1       1.146   3.608  20.629  0.00  0.00    +0.000 A 
ATOM     29  C   UNL     1       1.064   2.563  19.717  0.00  0.00    +0.000 A 
ATOM     30  C   UNL     1       1.434   2.771  18.390  0.00  0.00    +0.000 A 
ATOM     31  C   UNL     1       1.899   4.024  17.979  0.00  0.00    +0.000 A 
ENDBRANCH  25  26
BRANCH  25  32
ATOM     32  O   UNL     1       3.964   6.351  18.297  0.00  0.00    +0.000 OA
ATOM     33  H   UNL     1       4.329   6.853  19.048  0.00  0.00    +0.000 HD
ENDBRANCH  25  32
ENDBRANCH  24  25
ENDBRANCH  22  24
ENDBRANCH  18  20
ENDBRANCH   1  18
TORSDOF 7
ENDMDL
MODEL 5
REMARK VINA RESULT:      -8.0      1.490      2.578
REMARK  Name = 
REMARK  9 active torsions:
REMARK  status: ('A' for Active; 'I' for Inactive)
REMARK    1  A    between atoms: C_1  and  C_2
REMARK    2  A    between atoms: C_4  and  O_5
REMARK    3  A    between atoms: O_5  and  C_6
REMARK    4  A    between atoms: C_6  and  C_7
REMARK    5  A    between atoms: C_6  and  C_8
REMARK    6  A    between atoms: N_10  and  C_11
REMARK    7  A    between atoms: C_11  and  C_12
REMARK    8  A    between atoms: C_12  and  O_13
REMARK    9  A    between atoms: C_12  and  C_14
REMARK                            x       y       z     vdW  Elec       q    Type
REMARK                         _______ _______ _______ _____ _____    ______ ____
ROOT
ATOM      1  O   UNL     1      -0.040  10.309  19.044  0.00  0.00    +0.000 OA
ENDROOT
BRANCH   1   5
ATOM      2  C   UNL     1      -3.038   9.846  15.134  0.00  0.00    +0.000 C 
ATOM      3  C   UNL     1      -2.757  10.334  16.525  0.00  0.00    +0.000 A 
ATOM      4  C   UNL     1      -1.559  10.008  17.171  0.00  0.00    +0.000 A 
ATOM      5  C   UNL     1      -1.247  10.538  18.436  0.00  0.00    +0.000 A 
ATOM      6  C   UNL     1      -2.193  11.317  19.141  0.00  0.00    +0.000 A 
ATOM      7  C   UNL     1      -2.022  11.857  20.513  0.00  0.00    +0.000 A 
ATOM      8  C   UNL     1      -2.987  12.632  21.049  0.00  0.00    +0.000 A 
ATOM      9  C   UNL     1      -4.245  12.938  20.325  0.00  0.00    +0.000 A 
ATOM     10  O   UNL     1      -5.131  13.624  20.830  0.00  0.00    +0.000 OA
ATOM     11  O   UNL     1      -4.381  12.412  19.057  0.00  0.00    +0.000 OA
ATOM     12  C   UNL     1      -3.384  11.610  18.472  0.00  0.00    +0.000 A 
ATOM     13  C   UNL     1      -3.670  11.151  17.182  0.00  0.00    +0.000 A 
ATOM     14  C   UNL     1      -2.882  13.256  22.421  0.00  0.00    +0.000 C 
ATOM     15  C   UNL     1      -1.460  13.243  22.984  0.00  0.00    +0.000 C 
ATOM     16  C   UNL     1      -0.843  11.872  22.792  0.00  0.00    +0.000 C 
ATOM     17  C   UNL     1      -0.778  11.517  21.309  0.00  0.00    +0.000 C 
ENDBRANCH   1   5
BRANCH   1  18
ATOM     18  C   UNL     1       0.986   9.632  18.317  0.00  0.00    +0.000 C 
ATOM     19  C   UNL     1       2.081  10.643  17.991  0.00  0.00    +0.000 C 
BRANCH  18  20
ATOM     20  C   UNL     1       1.597   8.534  19.184  0.00  0.00    +0.000 C 
ATOM     21  O   UNL     1       1.415   8.490  20.404  0.00  0.00    +0.000 OA
ATOM     22  N   UNL     1       2.309   7.576  18.496  0.00  0.00    +0.000 N 
ATOM     23  H   UNL     1       2.711   7.860  17.602  0.00  0.00    +0.000 HD
BRANCH  22  24
ATOM     24  C   UNL     1       2.983   6.536  19.246  0.00  0.00    +0.000 C 
BRANCH  24  25
ATOM     25  C   UNL     1       3.111   5.203  18.494  0.00  0.00    +0.000 C 
BRANCH  25  26
ATOM     26  C   UNL     1       4.322   5.106  17.584  0.00  0.00    +0.000 A 
ATOM     27  C   UNL     1       4.459   4.117  16.594  0.00  0.00    +0.000 A 
ATOM     28  C   UNL     1       5.600   4.052  15.794  0.00  0.00    +0.000 A 
ATOM     29  C   UNL     1       6.624   4.976  15.963  0.00  0.00    +0.000 A 
ATOM     30  C   UNL     1       6.503   5.975  16.926  0.00  0.00    +0.000 A 
ATOM     31  C   UNL     1       5.361   6.042  17.730  0.00  0.00    +0.000 A 
ENDBRANCH  25  26
BRANCH  25  32
ATOM     32  O   UNL     1       1.920   5.033  17.710  0.00  0.00    +0.000 OA
ATOM     33  H   UNL     1       1.791   5.861  17.214  0.00  0.00    +0.000 HD
ENDBRANCH  25  32
ENDBRANCH  24  25
ENDBRANCH  22  24
ENDBRANCH  18  20
ENDBRANCH   1  18
TORSDOF 7
ENDMDL
MODEL 6
REMARK VINA RESULT:      -7.9      1.176      1.514
REMARK  Name = 
REMARK  9 active torsions:
REMARK  status: ('A' for Active; 'I' for Inactive)
REMARK    1  A    between atoms: C_1  and  C_2
REMARK    2  A    between atoms: C_4  and  O_5
REMARK    3  A    between atoms: O_5  and  C_6
REMARK    4  A    between atoms: C_6  and  C_7
REMARK    5  A    between atoms: C_6  and  C_8
REMARK    6  A    between atoms: N_10  and  C_11
REMARK    7  A    between atoms: C_11  and  C_12
REMARK    8  A    between atoms: C_12  and  O_13
REMARK    9  A    between atoms: C_12  and  C_14
REMARK                            x       y       z     vdW  Elec       q    Type
REMARK                         _______ _______ _______ _____ _____    ______ ____
ROOT
ATOM      1  O   UNL     1      -0.734  11.011  19.091  0.00  0.00    +0.000 OA
ENDROOT
BRANCH   1   5
ATOM      2  C   UNL     1      -2.986   9.904  14.824  0.00  0.00    +0.000 C 
ATOM      3  C   UNL     1      -3.001  10.491  16.205  0.00  0.00    +0.000 A 
ATOM      4  C   UNL     1      -1.882  10.390  17.040  0.00  0.00    +0.000 A 
ATOM      5  C   UNL     1      -1.853  11.018  18.297  0.00  0.00    +0.000 A 
ATOM      6  C   UNL     1      -3.004  11.667  18.802  0.00  0.00    +0.000 A 
ATOM      7  C   UNL     1      -3.131  12.288  20.144  0.00  0.00    +0.000 A 
ATOM      8  C   UNL     1      -4.273  12.923  20.479  0.00  0.00    +0.000 A 
ATOM      9  C   UNL     1      -5.435  12.992  19.560  0.00  0.00    +0.000 A 
ATOM     10  O   UNL     1      -6.482  13.549  19.882  0.00  0.00    +0.000 OA
ATOM     11  O   UNL     1      -5.292  12.395  18.325  0.00  0.00    +0.000 OA
ATOM     12  C   UNL     1      -4.107  11.737  17.948  0.00  0.00    +0.000 A 
ATOM     13  C   UNL     1      -4.117  11.181  16.664  0.00  0.00    +0.000 A 
ATOM     14  C   UNL     1      -4.478  13.615  21.806  0.00  0.00    +0.000 C 
ATOM     15  C   UNL     1      -3.174  13.854  22.571  0.00  0.00    +0.000 C 
ATOM     16  C   UNL     1      -2.336  12.592  22.565  0.00  0.00    +0.000 C 
ATOM     17  C   UNL     1      -1.988  12.186  21.135  0.00  0.00    +0.000 C 
ENDBRANCH   1   5
BRANCH   1  18
ATOM     18  C   UNL     1       0.524  10.667  18.511  0.00  0.00    +0.000 C 
ATOM     19  C   UNL     1       1.481  11.836  18.726  0.00  0.00    +0.000 C 
BRANCH  18  20
ATOM     20  C   UNL     1       1.102   9.444  19.218  0.00  0.00    +0.000 C 
ATOM     21  O   UNL     1       0.919   9.240  20.422  0.00  0.00    +0.000 OA
ATOM     22  N   UNL     1       1.787   8.568  18.404  0.00  0.00    +0.000 N 
ATOM     23  H   UNL     1       2.198   8.959  17.555  0.00  0.00    +0.000 HD
BRANCH  22  24
ATOM     24  C   UNL     1       2.430   7.418  19.003  0.00  0.00    +0.000 C 
BRANCH  24  25
ATOM     25  C   UNL     1       2.948   6.388  17.987  0.00  0.00    +0.000 C 
BRANCH  25  26
ATOM     26  C   UNL     1       2.689   4.941  18.368  0.00  0.00    +0.000 A 
ATOM     27  C   UNL     1       1.523   4.248  17.996  0.00  0.00    +0.000 A 
ATOM     28  C   UNL     1       1.317   2.925  18.388  0.00  0.00    +0.000 A 
ATOM     29  C   UNL     1       2.271   2.267  19.153  0.00  0.00    +0.000 A 
ATOM     30  C   UNL     1       3.441   2.928  19.519  0.00  0.00    +0.000 A 
ATOM     31  C   UNL     1       3.651   4.255  19.130  0.00  0.00    +0.000 A 
ENDBRANCH  25  26
BRANCH  25  32
ATOM     32  O   UNL     1       4.363   6.591  17.849  0.00  0.00    +0.000 OA
ATOM     33  H   UNL     1       4.524   6.814  16.914  0.00  0.00    +0.000 HD
ENDBRANCH  25  32
ENDBRANCH  24  25
ENDBRANCH  22  24
ENDBRANCH  18  20
ENDBRANCH   1  18
TORSDOF 7
ENDMDL
MODEL 7
REMARK VINA RESULT:      -7.8      2.724      9.223
REMARK  Name = 
REMARK  9 active torsions:
REMARK  status: ('A' for Active; 'I' for Inactive)
REMARK    1  A    between atoms: C_1  and  C_2
REMARK    2  A    between atoms: C_4  and  O_5
REMARK    3  A    between atoms: O_5  and  C_6
REMARK    4  A    between atoms: C_6  and  C_7
REMARK    5  A    between atoms: C_6  and  C_8
REMARK    6  A    between atoms: N_10  and  C_11
REMARK    7  A    between atoms: C_11  and  C_12
REMARK    8  A    between atoms: C_12  and  O_13
REMARK    9  A    between atoms: C_12  and  C_14
REMARK                            x       y       z     vdW  Elec       q    Type
REMARK                         _______ _______ _______ _____ _____    ______ ____
ROOT
ATOM      1  O   UNL     1       2.581   7.032  18.143  0.00  0.00    +0.000 OA
ENDROOT
BRANCH   1   5
ATOM      2  C   UNL     1       7.397   7.519  17.110  0.00  0.00    +0.000 C 
ATOM      3  C   UNL     1       6.251   6.758  17.708  0.00  0.00    +0.000 A 
ATOM      4  C   UNL     1       4.961   7.300  17.729  0.00  0.00    +0.000 A 
ATOM      5  C   UNL     1       3.866   6.556  18.201  0.00  0.00    +0.000 A 
ATOM      6  C   UNL     1       4.062   5.282  18.783  0.00  0.00    +0.000 A 
ATOM      7  C   UNL     1       3.007   4.438  19.397  0.00  0.00    +0.000 A 
ATOM      8  C   UNL     1       3.323   3.215  19.870  0.00  0.00    +0.000 A 
ATOM      9  C   UNL     1       4.711   2.691  19.835  0.00  0.00    +0.000 A 
ATOM     10  O   UNL     1       4.997   1.587  20.291  0.00  0.00    +0.000 OA
ATOM     11  O   UNL     1       5.672   3.503  19.270  0.00  0.00    +0.000 OA
ATOM     12  C   UNL     1       5.364   4.778  18.759  0.00  0.00    +0.000 A 
ATOM     13  C   UNL     1       6.447   5.480  18.220  0.00  0.00    +0.000 A 
ATOM     14  C   UNL     1       2.309   2.272  20.476  0.00  0.00    +0.000 C 
ATOM     15  C   UNL     1       0.862   2.663  20.169  0.00  0.00    +0.000 C 
ATOM     16  C   UNL     1       0.668   4.146  20.411  0.00  0.00    +0.000 C 
ATOM     17  C   UNL     1       1.589   4.962  19.508  0.00  0.00    +0.000 C 
ENDBRANCH   1   5
BRANCH   1  18
ATOM     18  C   UNL     1       2.327   8.388  18.509  0.00  0.00    +0.000 C 
ATOM     19  C   UNL     1       1.369   8.985  17.483  0.00  0.00    +0.000 C 
BRANCH  18  20
ATOM     20  C   UNL     1       1.648   8.436  19.876  0.00  0.00    +0.000 C 
ATOM     21  O   UNL     1       2.035   7.743  20.821  0.00  0.00    +0.000 OA
ATOM     22  N   UNL     1       0.620   9.347  19.985  0.00  0.00    +0.000 N 
ATOM     23  H   UNL     1       0.137   9.597  19.121  0.00  0.00    +0.000 HD
BRANCH  22  24
ATOM     24  C   UNL     1      -0.126   9.410  21.224  0.00  0.00    +0.000 C 
BRANCH  24  25
ATOM     25  C   UNL     1       0.018  10.741  21.977  0.00  0.00    +0.000 C 
BRANCH  25  26
ATOM     26  C   UNL     1      -1.261  11.553  22.074  0.00  0.00    +0.000 A 
ATOM     27  C   UNL     1      -2.018  11.651  23.255  0.00  0.00    +0.000 A 
ATOM     28  C   UNL     1      -3.200  12.390  23.294  0.00  0.00    +0.000 A 
ATOM     29  C   UNL     1      -3.647  13.051  22.157  0.00  0.00    +0.000 A 
ATOM     30  C   UNL     1      -2.905  12.982  20.980  0.00  0.00    +0.000 A 
ATOM     31  C   UNL     1      -1.720  12.241  20.937  0.00  0.00    +0.000 A 
ENDBRANCH  25  26
BRANCH  25  32
ATOM     32  O   UNL     1       1.016  11.517  21.294  0.00  0.00    +0.000 OA
ATOM     33  H   UNL     1       0.773  11.518  20.350  0.00  0.00    +0.000 HD
ENDBRANCH  25  32
ENDBRANCH  24  25
ENDBRANCH  22  24
ENDBRANCH  18  20
ENDBRANCH   1  18
TORSDOF 7
ENDMDL
MODEL 8
REMARK VINA RESULT:      -7.7      1.590      2.549
REMARK  Name = 
REMARK  9 active torsions:
REMARK  status: ('A' for Active; 'I' for Inactive)
REMARK    1  A    between atoms: C_1  and  C_2
REMARK    2  A    between atoms: C_4  and  O_5
REMARK    3  A    between atoms: O_5  and  C_6
REMARK    4  A    between atoms: C_6  and  C_7
REMARK    5  A    between atoms: C_6  and  C_8
REMARK    6  A    between atoms: N_10  and  C_11
REMARK    7  A    between atoms: C_11  and  C_12
REMARK    8  A    between atoms: C_12  and  O_13
REMARK    9  A    between atoms: C_12  and  C_14
REMARK                            x       y       z     vdW  Elec       q    Type
REMARK                         _______ _______ _______ _____ _____    ______ ____
ROOT
ATOM      1  O   UNL     1      -0.022  10.508  18.951  0.00  0.00    +0.000 OA
ENDROOT
BRANCH   1   5
ATOM      2  C   UNL     1      -3.051   9.872  15.089  0.00  0.00    +0.000 C 
ATOM      3  C   UNL     1      -2.774  10.381  16.473  0.00  0.00    +0.000 A 
ATOM      4  C   UNL     1      -1.552  10.120  17.103  0.00  0.00    +0.000 A 
ATOM      5  C   UNL     1      -1.248  10.672  18.359  0.00  0.00    +0.000 A 
ATOM      6  C   UNL     1      -2.222  11.406  19.074  0.00  0.00    +0.000 A 
ATOM      7  C   UNL     1      -2.058  11.962  20.441  0.00  0.00    +0.000 A 
ATOM      8  C   UNL     1      -3.053  12.691  20.988  0.00  0.00    +0.000 A 
ATOM      9  C   UNL     1      -4.335  12.929  20.281  0.00  0.00    +0.000 A 
ATOM     10  O   UNL     1      -5.248  13.572  20.796  0.00  0.00    +0.000 OA
ATOM     11  O   UNL     1      -4.463  12.389  19.018  0.00  0.00    +0.000 OA
ATOM     12  C   UNL     1      -3.436  11.635  18.423  0.00  0.00    +0.000 A 
ATOM     13  C   UNL     1      -3.717  11.155  17.139  0.00  0.00    +0.000 A 
ATOM     14  C   UNL     1      -2.960  13.327  22.355  0.00  0.00    +0.000 C 
ATOM     15  C   UNL     1      -1.530  13.389  22.897  0.00  0.00    +0.000 C 
ATOM     16  C   UNL     1      -0.848  12.051  22.702  0.00  0.00    +0.000 C 
ATOM     17  C   UNL     1      -0.787  11.691  21.220  0.00  0.00    +0.000 C 
ENDBRANCH   1   5
BRANCH   1  18
ATOM     18  C   UNL     1       1.036   9.915  18.199  0.00  0.00    +0.000 C 
ATOM     19  C   UNL     1       2.197  10.905  18.150  0.00  0.00    +0.000 C 
BRANCH  18  20
ATOM     20  C   UNL     1       1.523   8.648  18.899  0.00  0.00    +0.000 C 
ATOM     21  O   UNL     1       1.491   8.529  20.127  0.00  0.00    +0.000 OA
ATOM     22  N   UNL     1       1.939   7.639  18.058  0.00  0.00    +0.000 N 
ATOM     23  H   UNL     1       2.274   7.922  17.136  0.00  0.00    +0.000 HD
BRANCH  22  24
ATOM     24  C   UNL     1       2.483   6.429  18.637  0.00  0.00    +0.000 C 
BRANCH  24  25
ATOM     25  C   UNL     1       4.016   6.346  18.596  0.00  0.00    +0.000 C 
BRANCH  25  26
ATOM     26  C   UNL     1       4.579   5.695  17.345  0.00  0.00    +0.000 A 
ATOM     27  C   UNL     1       5.092   6.432  16.263  0.00  0.00    +0.000 A 
ATOM     28  C   UNL     1       5.580   5.792  15.123  0.00  0.00    +0.000 A 
ATOM     29  C   UNL     1       5.570   4.406  15.043  0.00  0.00    +0.000 A 
ATOM     30  C   UNL     1       5.081   3.654  16.110  0.00  0.00    +0.000 A 
ATOM     31  C   UNL     1       4.591   4.292  17.253  0.00  0.00    +0.000 A 
ENDBRANCH  25  26
BRANCH  25  32
ATOM     32  O   UNL     1       4.439   5.597  19.746  0.00  0.00    +0.000 OA
ATOM     33  H   UNL     1       3.835   5.835  20.473  0.00  0.00    +0.000 HD
ENDBRANCH  25  32
ENDBRANCH  24  25
ENDBRANCH  22  24
ENDBRANCH  18  20
ENDBRANCH   1  18
TORSDOF 7
ENDMDL
MODEL 9
REMARK VINA RESULT:      -7.7      1.270      3.750
REMARK  Name = 
REMARK  9 active torsions:
REMARK  status: ('A' for Active; 'I' for Inactive)
REMARK    1  A    between atoms: C_1  and  C_2
REMARK    2  A    between atoms: C_4  and  O_5
REMARK    3  A    between atoms: O_5  and  C_6
REMARK    4  A    between atoms: C_6  and  C_7
REMARK    5  A    between atoms: C_6  and  C_8
REMARK    6  A    between atoms: N_10  and  C_11
REMARK    7  A    between atoms: C_11  and  C_12
REMARK    8  A    between atoms: C_12  and  O_13
REMARK    9  A    between atoms: C_12  and  C_14
REMARK                            x       y       z     vdW  Elec       q    Type
REMARK                         _______ _______ _______ _____ _____    ______ ____
ROOT
ATOM      1  O   UNL     1      -0.004  11.346  19.233  0.00  0.00    +0.000 OA
ENDROOT
BRANCH   1   5
ATOM      2  C   UNL     1      -0.949  13.903  23.364  0.00  0.00    +0.000 C 
ATOM      3  C   UNL     1      -1.386  13.304  22.060  0.00  0.00    +0.000 A 
ATOM      4  C   UNL     1      -0.463  12.685  21.209  0.00  0.00    +0.000 A 
ATOM      5  C   UNL     1      -0.878  12.040  20.031  0.00  0.00    +0.000 A 
ATOM      6  C   UNL     1      -2.227  12.106  19.614  0.00  0.00    +0.000 A 
ATOM      7  C   UNL     1      -2.773  11.546  18.352  0.00  0.00    +0.000 A 
ATOM      8  C   UNL     1      -4.095  11.635  18.101  0.00  0.00    +0.000 A 
ATOM      9  C   UNL     1      -5.031  12.313  19.032  0.00  0.00    +0.000 A 
ATOM     10  O   UNL     1      -6.230  12.413  18.785  0.00  0.00    +0.000 OA
ATOM     11  O   UNL     1      -4.492  12.834  20.190  0.00  0.00    +0.000 OA
ATOM     12  C   UNL     1      -3.119  12.744  20.479  0.00  0.00    +0.000 A 
ATOM     13  C   UNL     1      -2.727  13.322  21.691  0.00  0.00    +0.000 A 
ATOM     14  C   UNL     1      -4.745  11.061  16.863  0.00  0.00    +0.000 C 
ATOM     15  C   UNL     1      -3.853  10.064  16.120  0.00  0.00    +0.000 C 
ATOM     16  C   UNL     1      -2.456  10.633  15.975  0.00  0.00    +0.000 C 
ATOM     17  C   UNL     1      -1.841  10.900  17.347  0.00  0.00    +0.000 C 
ENDBRANCH   1   5
BRANCH   1  18
ATOM     18  C   UNL     1       0.780  10.302  19.809  0.00  0.00    +0.000 C 
ATOM     19  C   UNL     1      -0.157   9.372  20.575  0.00  0.00    +0.000 C 
BRANCH  18  20
ATOM     20  C   UNL     1       1.454   9.492  18.704  0.00  0.00    +0.000 C 
ATOM     21  O   UNL     1       1.631   9.952  17.573  0.00  0.00    +0.000 OA
ATOM     22  N   UNL     1       1.895   8.242  19.083  0.00  0.00    +0.000 N 
ATOM     23  H   UNL     1       1.413   7.807  19.870  0.00  0.00    +0.000 HD
BRANCH  22  24
ATOM     24  C   UNL     1       2.483   7.378  18.082  0.00  0.00    +0.000 C 
BRANCH  24  25
ATOM     25  C   UNL     1       3.218   6.158  18.658  0.00  0.00    +0.000 C 
BRANCH  25  26
ATOM     26  C   UNL     1       2.318   4.987  19.010  0.00  0.00    +0.000 A 
ATOM     27  C   UNL     1       1.850   4.746  20.314  0.00  0.00    +0.000 A 
ATOM     28  C   UNL     1       1.042   3.644  20.596  0.00  0.00    +0.000 A 
ATOM     29  C   UNL     1       0.680   2.766  19.583  0.00  0.00    +0.000 A 
ATOM     30  C   UNL     1       1.118   2.994  18.280  0.00  0.00    +0.000 A 
ATOM     31  C   UNL     1       1.930   4.097  17.994  0.00  0.00    +0.000 A 
ENDBRANCH  25  26
BRANCH  25  32
ATOM     32  O   UNL     1       3.910   6.590  19.841  0.00  0.00    +0.000 OA
ATOM     33  H   UNL     1       4.576   7.240  19.554  0.00  0.00    +0.000 HD
ENDBRANCH  25  32
ENDBRANCH  24  25
ENDBRANCH  22  24
ENDBRANCH  18  20
ENDBRANCH   1  18
TORSDOF 7
ENDMDL
