MODEL 1
REMARK VINA RESULT:      -8.4      0.000      0.000
REMARK  Name = 
REMARK  5 active torsions:
REMARK  status: ('A' for Active; 'I' for Inactive)
REMARK    1  A    between atoms: C_1  and  S_2
REMARK    2  A    between atoms: S_2  and  C_3
REMARK    3  A    between atoms: N_5  and  C_6
REMARK    4  A    between atoms: C_14  and  N_15
REMARK    5  A    between atoms: C_19  and  C_21
REMARK                            x       y       z     vdW  Elec       q    Type
REMARK                         _______ _______ _______ _____ _____    ______ ____
ROOT
ATOM      1  C   UNL     1      -1.902  12.619  21.223  0.00  0.00    +0.000 A 
ATOM      2  N   UNL     1      -2.541  12.774  20.066  0.00  0.00    +0.000 NA
ATOM      3  N   UNL     1      -2.170  11.692  19.332  0.00  0.00    +0.000 N 
ATOM      4  C   UNL     1      -1.169  10.951  19.949  0.00  0.00    +0.000 A 
ATOM      5  C   UNL     1      -0.362   9.873  19.510  0.00  0.00    +0.000 A 
ATOM      6  C   UNL     1       0.588   9.323  20.379  0.00  0.00    +0.000 A 
ATOM      7  C   UNL     1       0.723   9.895  21.651  0.00  0.00    +0.000 A 
ATOM      8  C   UNL     1      -0.049  10.980  22.083  0.00  0.00    +0.000 A 
ATOM      9  C   UNL     1      -1.000  11.529  21.202  0.00  0.00    +0.000 A 
ENDROOT
BRANCH   6  10
ATOM     10  N   UNL     1       1.413   8.274  20.018  0.00  0.00    +0.000 N 
ATOM     11  C   UNL     1       1.889   7.249  20.967  0.00  0.00    +0.000 C 
ATOM     12  C   UNL     1       2.038   5.901  20.219  0.00  0.00    +0.000 C 
ATOM     13  N   UNL     1       2.820   6.040  18.976  0.00  0.00    +0.000 N 
ATOM     14  C   UNL     1       3.944   5.251  18.777  0.00  0.00    +0.000 C 
ATOM     15  O   UNL     1       4.306   4.439  19.633  0.00  0.00    +0.000 OA
ATOM     16  C   UNL     1       2.324   7.096  18.082  0.00  0.00    +0.000 C 
ATOM     17  C   UNL     1       2.265   8.437  18.828  0.00  0.00    +0.000 C 
BRANCH  14  18
ATOM     18  C   UNL     1       4.742   5.440  17.457  0.00  0.00    +0.000 C 
ATOM     19  C   UNL     1       4.619   4.189  16.575  0.00  0.00    +0.000 C 
ATOM     20  C   UNL     1       5.496   4.283  15.330  0.00  0.00    +0.000 C 
ATOM     21  C   UNL     1       6.929   4.640  15.706  0.00  0.00    +0.000 C 
ATOM     22  C   UNL     1       6.970   5.890  16.581  0.00  0.00    +0.000 C 
ATOM     23  N   UNL     1       6.160   5.720  17.785  0.00  0.00    +0.000 NA
ATOM     24  H   UNL     1       6.232   6.545  18.373  0.00  0.00    +0.000 HD
ENDBRANCH  14  18
ENDBRANCH   6  10
BRANCH   3  25
ATOM     25  C   UNL     1      -2.803  11.450  18.084  0.00  0.00    +0.000 A 
ATOM     26  C   UNL     1      -4.192  11.601  17.985  0.00  0.00    +0.000 A 
ATOM     27  C   UNL     1      -4.829  11.380  16.763  0.00  0.00    +0.000 A 
ATOM     28  C   UNL     1      -4.091  10.975  15.654  0.00  0.00    +0.000 A 
ATOM     29  C   UNL     1      -2.712  10.793  15.758  0.00  0.00    +0.000 A 
ATOM     30  C   UNL     1      -2.064  11.033  16.970  0.00  0.00    +0.000 A 
ENDBRANCH   3  25
BRANCH   1  32
ATOM     31  C   UNL     1      -3.229  12.751  23.648  0.00  0.00    +0.000 C 
ATOM     32  S   UNL     1      -2.143  13.713  22.569  0.00  0.00    +0.000 S 
ENDBRANCH   1  32
TORSDOF 4
ENDMDL
MODEL 2
REMARK VINA RESULT:      -8.2      3.643      9.822
REMARK  Name = 
REMARK  5 active torsions:
REMARK  status: ('A' for Active; 'I' for Inactive)
REMARK    1  A    between atoms: C_1  and  S_2
REMARK    2  A    between atoms: S_2  and  C_3
REMARK    3  A    between atoms: N_5  and  C_6
REMARK    4  A    between atoms: C_14  and  N_15
REMARK    5  A    between atoms: C_19  and  C_21
REMARK                            x       y       z     vdW  Elec       q    Type
REMARK                         _______ _______ _______ _____ _____    ______ ____
ROOT
ATOM      1  C   UNL     1       3.941   6.561  17.425  0.00  0.00    +0.000 A 
ATOM      2  N   UNL     1       3.823   5.446  18.143  0.00  0.00    +0.000 NA
ATOM      3  N   UNL     1       2.777   5.695  18.975  0.00  0.00    +0.000 N 
ATOM      4  C   UNL     1       2.349   7.016  18.909  0.00  0.00    +0.000 A 
ATOM      5  C   UNL     1       1.436   7.770  19.686  0.00  0.00    +0.000 A 
ATOM      6  C   UNL     1       1.209   9.115  19.372  0.00  0.00    +0.000 A 
ATOM      7  C   UNL     1       1.932   9.672  18.308  0.00  0.00    +0.000 A 
ATOM      8  C   UNL     1       2.858   8.943  17.554  0.00  0.00    +0.000 A 
ATOM      9  C   UNL     1       3.083   7.591  17.878  0.00  0.00    +0.000 A 
ENDROOT
BRANCH   6  10
ATOM     10  N   UNL     1       0.337   9.914  20.088  0.00  0.00    +0.000 N 
ATOM     11  C   UNL     1       0.292   9.953  21.563  0.00  0.00    +0.000 C 
ATOM     12  C   UNL     1      -0.099  11.381  22.018  0.00  0.00    +0.000 C 
ATOM     13  N   UNL     1      -1.304  11.873  21.323  0.00  0.00    +0.000 N 
ATOM     14  C   UNL     1      -2.396  12.306  22.061  0.00  0.00    +0.000 C 
ATOM     15  O   UNL     1      -2.378  12.274  23.295  0.00  0.00    +0.000 OA
ATOM     16  C   UNL     1      -1.220  11.782  19.858  0.00  0.00    +0.000 C 
ATOM     17  C   UNL     1      -0.913  10.338  19.435  0.00  0.00    +0.000 C 
BRANCH  14  18
ATOM     18  C   UNL     1      -3.647  12.806  21.286  0.00  0.00    +0.000 C 
ATOM     19  C   UNL     1      -3.647  14.340  21.207  0.00  0.00    +0.000 C 
ATOM     20  C   UNL     1      -4.926  14.876  20.570  0.00  0.00    +0.000 C 
ATOM     21  C   UNL     1      -6.155  14.288  21.251  0.00  0.00    +0.000 C 
ATOM     22  C   UNL     1      -6.082  12.764  21.292  0.00  0.00    +0.000 C 
ATOM     23  N   UNL     1      -4.867  12.310  21.965  0.00  0.00    +0.000 NA
ATOM     24  H   UNL     1      -4.856  11.296  22.017  0.00  0.00    +0.000 HD
ENDBRANCH  14  18
ENDBRANCH   6  10
BRANCH   3  25
ATOM     25  C   UNL     1       2.265   4.643  19.780  0.00  0.00    +0.000 A 
ATOM     26  C   UNL     1       1.292   3.788  19.245  0.00  0.00    +0.000 A 
ATOM     27  C   UNL     1       0.788   2.741  20.016  0.00  0.00    +0.000 A 
ATOM     28  C   UNL     1       1.224   2.567  21.329  0.00  0.00    +0.000 A 
ATOM     29  C   UNL     1       2.169   3.436  21.874  0.00  0.00    +0.000 A 
ATOM     30  C   UNL     1       2.695   4.472  21.101  0.00  0.00    +0.000 A 
ENDBRANCH   3  25
BRANCH   1  32
ATOM     31  C   UNL     1       6.644   6.248  16.926  0.00  0.00    +0.000 C 
ATOM     32  S   UNL     1       5.093   6.701  16.115  0.00  0.00    +0.000 S 
ENDBRANCH   1  32
TORSDOF 4
ENDMDL
MODEL 3
REMARK VINA RESULT:      -8.0      3.542      9.816
REMARK  Name = 
REMARK  5 active torsions:
REMARK  status: ('A' for Active; 'I' for Inactive)
REMARK    1  A    between atoms: C_1  and  S_2
REMARK    2  A    between atoms: S_2  and  C_3
REMARK    3  A    between atoms: N_5  and  C_6
REMARK    4  A    between atoms: C_14  and  N_15
REMARK    5  A    between atoms: C_19  and  C_21
REMARK                            x       y       z     vdW  Elec       q    Type
REMARK                         _______ _______ _______ _____ _____    ______ ____
ROOT
ATOM      1  C   UNL     1       4.025   6.522  17.397  0.00  0.00    +0.000 A 
ATOM      2  N   UNL     1       3.884   5.413  18.120  0.00  0.00    +0.000 NA
ATOM      3  N   UNL     1       2.815   5.669  18.918  0.00  0.00    +0.000 N 
ATOM      4  C   UNL     1       2.391   6.991  18.830  0.00  0.00    +0.000 A 
ATOM      5  C   UNL     1       1.458   7.753  19.574  0.00  0.00    +0.000 A 
ATOM      6  C   UNL     1       1.243   9.095  19.244  0.00  0.00    +0.000 A 
ATOM      7  C   UNL     1       1.998   9.643  18.197  0.00  0.00    +0.000 A 
ATOM      8  C   UNL     1       2.944   8.906  17.476  0.00  0.00    +0.000 A 
ATOM      9  C   UNL     1       3.156   7.557  17.817  0.00  0.00    +0.000 A 
ENDROOT
BRANCH   6  10
ATOM     10  N   UNL     1       0.352   9.901  19.928  0.00  0.00    +0.000 N 
ATOM     11  C   UNL     1      -0.060   9.658  21.324  0.00  0.00    +0.000 C 
ATOM     12  C   UNL     1      -0.328  11.018  22.015  0.00  0.00    +0.000 C 
ATOM     13  N   UNL     1      -1.225  11.877  21.219  0.00  0.00    +0.000 N 
ATOM     14  C   UNL     1      -2.389  12.374  21.789  0.00  0.00    +0.000 C 
ATOM     15  O   UNL     1      -2.690  12.097  22.953  0.00  0.00    +0.000 OA
ATOM     16  C   UNL     1      -0.787  12.060  19.827  0.00  0.00    +0.000 C 
ATOM     17  C   UNL     1      -0.609  10.696  19.145  0.00  0.00    +0.000 C 
BRANCH  14  18
ATOM     18  C   UNL     1      -3.308  13.265  20.908  0.00  0.00    +0.000 C 
ATOM     19  C   UNL     1      -3.660  14.564  21.649  0.00  0.00    +0.000 C 
ATOM     20  C   UNL     1      -4.668  15.406  20.872  0.00  0.00    +0.000 C 
ATOM     21  C   UNL     1      -5.878  14.569  20.476  0.00  0.00    +0.000 C 
ATOM     22  C   UNL     1      -5.449  13.298  19.747  0.00  0.00    +0.000 C 
ATOM     23  N   UNL     1      -4.532  12.505  20.563  0.00  0.00    +0.000 NA
ATOM     24  H   UNL     1      -4.291  11.645  20.078  0.00  0.00    +0.000 HD
ENDBRANCH  14  18
ENDBRANCH   6  10
BRANCH   3  25
ATOM     25  C   UNL     1       2.278   4.625  19.716  0.00  0.00    +0.000 A 
ATOM     26  C   UNL     1       2.730   4.473  21.034  0.00  0.00    +0.000 A 
ATOM     27  C   UNL     1       2.205   3.461  21.837  0.00  0.00    +0.000 A 
ATOM     28  C   UNL     1       1.258   2.580  21.319  0.00  0.00    +0.000 A 
ATOM     29  C   UNL     1       0.829   2.709  19.998  0.00  0.00    +0.000 A 
ATOM     30  C   UNL     1       1.333   3.732  19.196  0.00  0.00    +0.000 A 
ENDBRANCH   3  25
BRANCH   1  32
ATOM     31  C   UNL     1       5.440   4.922  15.638  0.00  0.00    +0.000 C 
ATOM     32  S   UNL     1       5.216   6.650  16.119  0.00  0.00    +0.000 S 
ENDBRANCH   1  32
TORSDOF 4
ENDMDL
MODEL 4
REMARK VINA RESULT:      -7.8      3.931      9.825
REMARK  Name = 
REMARK  5 active torsions:
REMARK  status: ('A' for Active; 'I' for Inactive)
REMARK    1  A    between atoms: C_1  and  S_2
REMARK    2  A    between atoms: S_2  and  C_3
REMARK    3  A    between atoms: N_5  and  C_6
REMARK    4  A    between atoms: C_14  and  N_15
REMARK    5  A    between atoms: C_19  and  C_21
REMARK                            x       y       z     vdW  Elec       q    Type
REMARK                         _______ _______ _______ _____ _____    ______ ____
ROOT
ATOM      1  C   UNL     1       3.978   6.410  17.291  0.00  0.00    +0.000 A 
ATOM      2  N   UNL     1       3.885   5.267  17.968  0.00  0.00    +0.000 NA
ATOM      3  N   UNL     1       2.913   5.503  18.887  0.00  0.00    +0.000 N 
ATOM      4  C   UNL     1       2.517   6.835  18.912  0.00  0.00    +0.000 A 
ATOM      5  C   UNL     1       1.687   7.575  19.788  0.00  0.00    +0.000 A 
ATOM      6  C   UNL     1       1.473   8.938  19.551  0.00  0.00    +0.000 A 
ATOM      7  C   UNL     1       2.127   9.524  18.459  0.00  0.00    +0.000 A 
ATOM      8  C   UNL     1       2.973   8.808  17.605  0.00  0.00    +0.000 A 
ATOM      9  C   UNL     1       3.185   7.439  17.852  0.00  0.00    +0.000 A 
ENDROOT
BRANCH   6  10
ATOM     10  N   UNL     1       0.680   9.724  20.365  0.00  0.00    +0.000 N 
ATOM     11  C   UNL     1      -0.297   9.175  21.327  0.00  0.00    +0.000 C 
ATOM     12  C   UNL     1      -0.381  10.118  22.553  0.00  0.00    +0.000 C 
ATOM     13  N   UNL     1      -0.587  11.524  22.158  0.00  0.00    +0.000 N 
ATOM     14  C   UNL     1      -1.667  12.232  22.665  0.00  0.00    +0.000 C 
ATOM     15  O   UNL     1      -2.468  11.696  23.437  0.00  0.00    +0.000 OA
ATOM     16  C   UNL     1       0.392  12.011  21.175  0.00  0.00    +0.000 C 
ATOM     17  C   UNL     1       0.394  11.103  19.936  0.00  0.00    +0.000 C 
BRANCH  14  18
ATOM     18  C   UNL     1      -1.849  13.707  22.213  0.00  0.00    +0.000 C 
ATOM     19  C   UNL     1      -1.271  14.664  23.266  0.00  0.00    +0.000 C 
ATOM     20  C   UNL     1      -1.549  16.124  22.921  0.00  0.00    +0.000 C 
ATOM     21  C   UNL     1      -3.030  16.338  22.633  0.00  0.00    +0.000 C 
ATOM     22  C   UNL     1      -3.530  15.353  21.579  0.00  0.00    +0.000 C 
ATOM     23  N   UNL     1      -3.290  13.971  21.991  0.00  0.00    +0.000 NA
ATOM     24  H   UNL     1      -3.665  13.331  21.297  0.00  0.00    +0.000 HD
ENDBRANCH  14  18
ENDBRANCH   6  10
BRANCH   3  25
ATOM     25  C   UNL     1       2.436   4.428  19.684  0.00  0.00    +0.000 A 
ATOM     26  C   UNL     1       1.770   3.364  19.062  0.00  0.00    +0.000 A 
ATOM     27  C   UNL     1       1.306   2.293  19.827  0.00  0.00    +0.000 A 
ATOM     28  C   UNL     1       1.473   2.299  21.210  0.00  0.00    +0.000 A 
ATOM     29  C   UNL     1       2.107   3.372  21.835  0.00  0.00    +0.000 A 
ATOM     30  C   UNL     1       2.594   4.436  21.075  0.00  0.00    +0.000 A 
ENDBRANCH   3  25
BRANCH   1  32
ATOM     31  C   UNL     1       5.458   4.863  15.538  0.00  0.00    +0.000 C 
ATOM     32  S   UNL     1       5.031   6.581  15.902  0.00  0.00    +0.000 S 
ENDBRANCH   1  32
TORSDOF 4
ENDMDL
MODEL 5
REMARK VINA RESULT:      -7.7      3.886      9.785
REMARK  Name = 
REMARK  5 active torsions:
REMARK  status: ('A' for Active; 'I' for Inactive)
REMARK    1  A    between atoms: C_1  and  S_2
REMARK    2  A    between atoms: S_2  and  C_3
REMARK    3  A    between atoms: N_5  and  C_6
REMARK    4  A    between atoms: C_14  and  N_15
REMARK    5  A    between atoms: C_19  and  C_21
REMARK                            x       y       z     vdW  Elec       q    Type
REMARK                         _______ _______ _______ _____ _____    ______ ____
ROOT
ATOM      1  C   UNL     1       3.901   6.530  17.308  0.00  0.00    +0.000 A 
ATOM      2  N   UNL     1       3.802   5.368  17.950  0.00  0.00    +0.000 NA
ATOM      3  N   UNL     1       2.821   5.576  18.868  0.00  0.00    +0.000 N 
ATOM      4  C   UNL     1       2.425   6.907  18.928  0.00  0.00    +0.000 A 
ATOM      5  C   UNL     1       1.587   7.622  19.818  0.00  0.00    +0.000 A 
ATOM      6  C   UNL     1       1.375   8.990  19.619  0.00  0.00    +0.000 A 
ATOM      7  C   UNL     1       2.039   9.609  18.551  0.00  0.00    +0.000 A 
ATOM      8  C   UNL     1       2.893   8.918  17.684  0.00  0.00    +0.000 A 
ATOM      9  C   UNL     1       3.103   7.542  17.893  0.00  0.00    +0.000 A 
ENDROOT
BRANCH   6  10
ATOM     10  N   UNL     1       0.575   9.752  20.450  0.00  0.00    +0.000 N 
ATOM     11  C   UNL     1      -0.379   9.175  21.417  0.00  0.00    +0.000 C 
ATOM     12  C   UNL     1      -0.470  10.104  22.652  0.00  0.00    +0.000 C 
ATOM     13  N   UNL     1      -0.709  11.510  22.272  0.00  0.00    +0.000 N 
ATOM     14  C   UNL     1      -1.799  12.190  22.798  0.00  0.00    +0.000 C 
ATOM     15  O   UNL     1      -2.579  11.630  23.574  0.00  0.00    +0.000 OA
ATOM     16  C   UNL     1       0.248  12.025  21.283  0.00  0.00    +0.000 C 
ATOM     17  C   UNL     1       0.255  11.129  20.036  0.00  0.00    +0.000 C 
BRANCH  14  18
ATOM     18  C   UNL     1      -2.017  13.665  22.361  0.00  0.00    +0.000 C 
ATOM     19  C   UNL     1      -2.371  14.535  23.576  0.00  0.00    +0.000 C 
ATOM     20  C   UNL     1      -2.723  15.963  23.169  0.00  0.00    +0.000 C 
ATOM     21  C   UNL     1      -3.781  15.966  22.072  0.00  0.00    +0.000 C 
ATOM     22  C   UNL     1      -3.358  15.081  20.902  0.00  0.00    +0.000 C 
ATOM     23  N   UNL     1      -3.092  13.713  21.343  0.00  0.00    +0.000 NA
ATOM     24  H   UNL     1      -2.853  13.132  20.546  0.00  0.00    +0.000 HD
ENDBRANCH  14  18
ENDBRANCH   6  10
BRANCH   3  25
ATOM     25  C   UNL     1       2.338   4.479  19.628  0.00  0.00    +0.000 A 
ATOM     26  C   UNL     1       2.577   4.449  21.008  0.00  0.00    +0.000 A 
ATOM     27  C   UNL     1       2.097   3.385  21.774  0.00  0.00    +0.000 A 
ATOM     28  C   UNL     1       1.414   2.337  21.161  0.00  0.00    +0.000 A 
ATOM     29  C   UNL     1       1.202   2.349  19.783  0.00  0.00    +0.000 A 
ATOM     30  C   UNL     1       1.658   3.420  19.014  0.00  0.00    +0.000 A 
ENDBRANCH   3  25
BRANCH   1  32
ATOM     31  C   UNL     1       6.470   5.907  16.491  0.00  0.00    +0.000 C 
ATOM     32  S   UNL     1       4.966   6.742  15.935  0.00  0.00    +0.000 S 
ENDBRANCH   1  32
TORSDOF 4
ENDMDL
MODEL 6
REMARK VINA RESULT:      -7.7      3.656      9.804
REMARK  Name = 
REMARK  5 active torsions:
REMARK  status: ('A' for Active; 'I' for Inactive)
REMARK    1  A    between atoms: C_1  and  S_2
REMARK    2  A    between atoms: S_2  and  C_3
REMARK    3  A    between atoms: N_5  and  C_6
REMARK    4  A    between atoms: C_14  and  N_15
REMARK    5  A    between atoms: C_19  and  C_21
REMARK                            x       y       z     vdW  Elec       q    Type
REMARK                         _______ _______ _______ _____ _____    ______ ____
ROOT
ATOM      1  C   UNL     1       4.962   5.280  17.612  0.00  0.00    +0.000 A 
ATOM      2  N   UNL     1       4.652   4.336  18.499  0.00  0.00    +0.000 NA
ATOM      3  N   UNL     1       3.499   4.778  19.067  0.00  0.00    +0.000 N 
ATOM      4  C   UNL     1       3.176   6.072  18.673  0.00  0.00    +0.000 A 
ATOM      5  C   UNL     1       2.197   6.995  19.115  0.00  0.00    +0.000 A 
ATOM      6  C   UNL     1       2.115   8.255  18.513  0.00  0.00    +0.000 A 
ATOM      7  C   UNL     1       3.042   8.565  17.509  0.00  0.00    +0.000 A 
ATOM      8  C   UNL     1       4.032   7.671  17.086  0.00  0.00    +0.000 A 
ATOM      9  C   UNL     1       4.110   6.406  17.698  0.00  0.00    +0.000 A 
ENDROOT
BRANCH   6  10
ATOM     10  N   UNL     1       1.189   9.208  18.895  0.00  0.00    +0.000 N 
ATOM     11  C   UNL     1       0.646  10.230  17.979  0.00  0.00    +0.000 C 
ATOM     12  C   UNL     1      -0.816  10.544  18.383  0.00  0.00    +0.000 C 
ATOM     13  N   UNL     1      -0.942  10.838  19.823  0.00  0.00    +0.000 N 
ATOM     14  C   UNL     1      -1.516  12.033  20.235  0.00  0.00    +0.000 C 
ATOM     15  O   UNL     1      -1.914  12.859  19.410  0.00  0.00    +0.000 OA
ATOM     16  C   UNL     1      -0.357   9.805  20.690  0.00  0.00    +0.000 C 
ATOM     17  C   UNL     1       1.116   9.575  20.320  0.00  0.00    +0.000 C 
BRANCH  14  18
ATOM     18  C   UNL     1      -1.618  12.303  21.761  0.00  0.00    +0.000 C 
ATOM     19  C   UNL     1      -3.086  12.281  22.210  0.00  0.00    +0.000 C 
ATOM     20  C   UNL     1      -3.238  12.674  23.677  0.00  0.00    +0.000 C 
ATOM     21  C   UNL     1      -2.521  13.989  23.960  0.00  0.00    +0.000 C 
ATOM     22  C   UNL     1      -1.071  13.934  23.487  0.00  0.00    +0.000 C 
ATOM     23  N   UNL     1      -0.991  13.611  22.063  0.00  0.00    +0.000 NA
ATOM     24  H   UNL     1      -0.022  13.619  21.759  0.00  0.00    +0.000 HD
ENDBRANCH  14  18
ENDBRANCH   6  10
BRANCH   3  25
ATOM     25  C   UNL     1       2.791   3.926  19.954  0.00  0.00    +0.000 A 
ATOM     26  C   UNL     1       3.512   3.043  20.770  0.00  0.00    +0.000 A 
ATOM     27  C   UNL     1       2.834   2.208  21.659  0.00  0.00    +0.000 A 
ATOM     28  C   UNL     1       1.441   2.224  21.708  0.00  0.00    +0.000 A 
ATOM     29  C   UNL     1       0.721   3.079  20.875  0.00  0.00    +0.000 A 
ATOM     30  C   UNL     1       1.392   3.934  20.000  0.00  0.00    +0.000 A 
ENDBRANCH   3  25
BRANCH   1  32
ATOM     31  C   UNL     1       7.652   4.633  17.656  0.00  0.00    +0.000 C 
ATOM     32  S   UNL     1       6.326   5.118  16.526  0.00  0.00    +0.000 S 
ENDBRANCH   1  32
TORSDOF 4
ENDMDL
MODEL 7
REMARK VINA RESULT:      -7.5      2.844      3.460
REMARK  Name = 
REMARK  5 active torsions:
REMARK  status: ('A' for Active; 'I' for Inactive)
REMARK    1  A    between atoms: C_1  and  S_2
REMARK    2  A    between atoms: S_2  and  C_3
REMARK    3  A    between atoms: N_5  and  C_6
REMARK    4  A    between atoms: C_14  and  N_15
REMARK    5  A    between atoms: C_19  and  C_21
REMARK                            x       y       z     vdW  Elec       q    Type
REMARK                         _______ _______ _______ _____ _____    ______ ____
ROOT
ATOM      1  C   UNL     1      -0.891  11.815  22.415  0.00  0.00    +0.000 A 
ATOM      2  N   UNL     1      -0.132  12.810  21.960  0.00  0.00    +0.000 NA
ATOM      3  N   UNL     1       0.714  12.209  21.083  0.00  0.00    +0.000 N 
ATOM      4  C   UNL     1       0.614  10.822  21.113  0.00  0.00    +0.000 A 
ATOM      5  C   UNL     1       1.385   9.789  20.528  0.00  0.00    +0.000 A 
ATOM      6  C   UNL     1       1.031   8.454  20.748  0.00  0.00    +0.000 A 
ATOM      7  C   UNL     1      -0.068   8.194  21.578  0.00  0.00    +0.000 A 
ATOM      8  C   UNL     1      -0.818   9.207  22.185  0.00  0.00    +0.000 A 
ATOM      9  C   UNL     1      -0.454  10.548  21.961  0.00  0.00    +0.000 A 
ENDROOT
BRANCH   6  10
ATOM     10  N   UNL     1       1.739   7.394  20.213  0.00  0.00    +0.000 N 
ATOM     11  C   UNL     1       1.934   6.108  20.912  0.00  0.00    +0.000 C 
ATOM     12  C   UNL     1       1.989   4.968  19.865  0.00  0.00    +0.000 C 
ATOM     13  N   UNL     1       2.941   5.260  18.776  0.00  0.00    +0.000 N 
ATOM     14  C   UNL     1       3.958   4.360  18.491  0.00  0.00    +0.000 C 
ATOM     15  O   UNL     1       4.084   3.321  19.144  0.00  0.00    +0.000 OA
ATOM     16  C   UNL     1       2.723   6.565  18.136  0.00  0.00    +0.000 C 
ATOM     17  C   UNL     1       2.757   7.683  19.188  0.00  0.00    +0.000 C 
BRANCH  14  18
ATOM     18  C   UNL     1       4.943   4.715  17.343  0.00  0.00    +0.000 C 
ATOM     19  C   UNL     1       4.455   4.114  16.016  0.00  0.00    +0.000 C 
ATOM     20  C   UNL     1       5.464   4.328  14.891  0.00  0.00    +0.000 C 
ATOM     21  C   UNL     1       6.851   3.860  15.314  0.00  0.00    +0.000 C 
ATOM     22  C   UNL     1       7.264   4.498  16.637  0.00  0.00    +0.000 C 
ATOM     23  N   UNL     1       6.292   4.210  17.689  0.00  0.00    +0.000 NA
ATOM     24  H   UNL     1       6.604   4.608  18.570  0.00  0.00    +0.000 HD
ENDBRANCH  14  18
ENDBRANCH   6  10
BRANCH   3  25
ATOM     25  C   UNL     1       1.567  13.011  20.280  0.00  0.00    +0.000 A 
ATOM     26  C   UNL     1       1.464  12.929  18.885  0.00  0.00    +0.000 A 
ATOM     27  C   UNL     1       2.283  13.720  18.079  0.00  0.00    +0.000 A 
ATOM     28  C   UNL     1       3.228  14.564  18.660  0.00  0.00    +0.000 A 
ATOM     29  C   UNL     1       3.354  14.624  20.048  0.00  0.00    +0.000 A 
ATOM     30  C   UNL     1       2.523  13.853  20.860  0.00  0.00    +0.000 A 
ENDBRANCH   3  25
BRANCH   1  32
ATOM     31  C   UNL     1      -2.157  13.888  23.741  0.00  0.00    +0.000 C 
ATOM     32  S   UNL     1      -2.232  12.097  23.505  0.00  0.00    +0.000 S 
ENDBRANCH   1  32
TORSDOF 4
ENDMDL
MODEL 8
REMARK VINA RESULT:      -7.4      1.589      2.437
REMARK  Name = 
REMARK  5 active torsions:
REMARK  status: ('A' for Active; 'I' for Inactive)
REMARK    1  A    between atoms: C_1  and  S_2
REMARK    2  A    between atoms: S_2  and  C_3
REMARK    3  A    between atoms: N_5  and  C_6
REMARK    4  A    between atoms: C_14  and  N_15
REMARK    5  A    between atoms: C_19  and  C_21
REMARK                            x       y       z     vdW  Elec       q    Type
REMARK                         _______ _______ _______ _____ _____    ______ ____
ROOT
ATOM      1  C   UNL     1      -1.447  12.001  21.362  0.00  0.00    +0.000 A 
ATOM      2  N   UNL     1      -2.244  12.293  20.337  0.00  0.00    +0.000 NA
ATOM      3  N   UNL     1      -1.909  11.384  19.384  0.00  0.00    +0.000 N 
ATOM      4  C   UNL     1      -0.790  10.637  19.734  0.00  0.00    +0.000 A 
ATOM      5  C   UNL     1       0.016   9.719  19.017  0.00  0.00    +0.000 A 
ATOM      6  C   UNL     1       1.106   9.114  19.653  0.00  0.00    +0.000 A 
ATOM      7  C   UNL     1       1.375   9.475  20.980  0.00  0.00    +0.000 A 
ATOM      8  C   UNL     1       0.603  10.403  21.687  0.00  0.00    +0.000 A 
ATOM      9  C   UNL     1      -0.490  11.010  21.040  0.00  0.00    +0.000 A 
ENDROOT
BRANCH   6  10
ATOM     10  N   UNL     1       1.939   8.213  19.015  0.00  0.00    +0.000 N 
ATOM     11  C   UNL     1       2.587   8.481  17.716  0.00  0.00    +0.000 C 
ATOM     12  C   UNL     1       3.962   7.770  17.683  0.00  0.00    +0.000 C 
ATOM     13  N   UNL     1       3.862   6.350  18.073  0.00  0.00    +0.000 N 
ATOM     14  C   UNL     1       4.336   5.366  17.217  0.00  0.00    +0.000 C 
ATOM     15  O   UNL     1       4.832   5.662  16.127  0.00  0.00    +0.000 OA
ATOM     16  C   UNL     1       3.180   6.137  19.357  0.00  0.00    +0.000 C 
ATOM     17  C   UNL     1       1.787   6.783  19.330  0.00  0.00    +0.000 C 
BRANCH  14  18
ATOM     18  C   UNL     1       4.199   3.884  17.665  0.00  0.00    +0.000 C 
ATOM     19  C   UNL     1       2.788   3.362  17.358  0.00  0.00    +0.000 C 
ATOM     20  C   UNL     1       2.572   1.953  17.903  0.00  0.00    +0.000 C 
ATOM     21  C   UNL     1       2.955   1.881  19.376  0.00  0.00    +0.000 C 
ATOM     22  C   UNL     1       4.367   2.416  19.602  0.00  0.00    +0.000 C 
ATOM     23  N   UNL     1       4.496   3.788  19.113  0.00  0.00    +0.000 NA
ATOM     24  H   UNL     1       5.429   4.140  19.308  0.00  0.00    +0.000 HD
ENDBRANCH  14  18
ENDBRANCH   6  10
BRANCH   3  25
ATOM     25  C   UNL     1      -2.687  11.301  18.200  0.00  0.00    +0.000 A 
ATOM     26  C   UNL     1      -2.050  11.009  16.986  0.00  0.00    +0.000 A 
ATOM     27  C   UNL     1      -2.800  10.910  15.814  0.00  0.00    +0.000 A 
ATOM     28  C   UNL     1      -4.174  11.137  15.843  0.00  0.00    +0.000 A 
ATOM     29  C   UNL     1      -4.806  11.458  17.044  0.00  0.00    +0.000 A 
ATOM     30  C   UNL     1      -4.067  11.537  18.224  0.00  0.00    +0.000 A 
ENDBRANCH   3  25
BRANCH   1  32
ATOM     31  C   UNL     1      -3.152  12.219  23.530  0.00  0.00    +0.000 C 
ATOM     32  S   UNL     1      -1.573  12.831  22.899  0.00  0.00    +0.000 S 
ENDBRANCH   1  32
TORSDOF 4
ENDMDL
MODEL 9
REMARK VINA RESULT:      -7.3      3.173      4.738
REMARK  Name = 
REMARK  5 active torsions:
REMARK  status: ('A' for Active; 'I' for Inactive)
REMARK    1  A    between atoms: C_1  and  S_2
REMARK    2  A    between atoms: S_2  and  C_3
REMARK    3  A    between atoms: N_5  and  C_6
REMARK    4  A    between atoms: C_14  and  N_15
REMARK    5  A    between atoms: C_19  and  C_21
REMARK                            x       y       z     vdW  Elec       q    Type
REMARK                         _______ _______ _______ _____ _____    ______ ____
ROOT
ATOM      1  C   UNL     1       0.251  15.265  19.202  0.00  0.00    +0.000 A 
ATOM      2  N   UNL     1      -0.882  15.165  19.894  0.00  0.00    +0.000 NA
ATOM      3  N   UNL     1      -0.939  13.856  20.253  0.00  0.00    +0.000 N 
ATOM      4  C   UNL     1       0.054  13.095  19.647  0.00  0.00    +0.000 A 
ATOM      5  C   UNL     1       0.289  11.701  19.576  0.00  0.00    +0.000 A 
ATOM      6  C   UNL     1       1.399  11.222  18.871  0.00  0.00    +0.000 A 
ATOM      7  C   UNL     1       2.221  12.157  18.228  0.00  0.00    +0.000 A 
ATOM      8  C   UNL     1       1.981  13.535  18.266  0.00  0.00    +0.000 A 
ATOM      9  C   UNL     1       0.861  14.008  18.975  0.00  0.00    +0.000 A 
ENDROOT
BRANCH   6  10
ATOM     10  N   UNL     1       1.689   9.875  18.756  0.00  0.00    +0.000 N 
ATOM     11  C   UNL     1       2.211   9.257  17.521  0.00  0.00    +0.000 C 
ATOM     12  C   UNL     1       3.148   8.084  17.903  0.00  0.00    +0.000 C 
ATOM     13  N   UNL     1       2.519   7.163  18.868  0.00  0.00    +0.000 N 
ATOM     14  C   UNL     1       2.422   5.811  18.569  0.00  0.00    +0.000 C 
ATOM     15  O   UNL     1       2.848   5.369  17.498  0.00  0.00    +0.000 OA
ATOM     16  C   UNL     1       1.986   7.833  20.063  0.00  0.00    +0.000 C 
ATOM     17  C   UNL     1       0.998   8.936  19.656  0.00  0.00    +0.000 C 
BRANCH  14  18
ATOM     18  C   UNL     1       1.742   4.881  19.612  0.00  0.00    +0.000 C 
ATOM     19  C   UNL     1       2.716   4.558  20.754  0.00  0.00    +0.000 C 
ATOM     20  C   UNL     1       2.130   3.541  21.729  0.00  0.00    +0.000 C 
ATOM     21  C   UNL     1       1.615   2.315  20.985  0.00  0.00    +0.000 C 
ATOM     22  C   UNL     1       0.656   2.716  19.868  0.00  0.00    +0.000 C 
ATOM     23  N   UNL     1       1.290   3.644  18.934  0.00  0.00    +0.000 NA
ATOM     24  H   UNL     1       0.651   3.867  18.177  0.00  0.00    +0.000 HD
ENDBRANCH  14  18
ENDBRANCH   6  10
BRANCH   3  25
ATOM     25  C   UNL     1      -1.950  13.426  21.152  0.00  0.00    +0.000 A 
ATOM     26  C   UNL     1      -3.282  13.401  20.717  0.00  0.00    +0.000 A 
ATOM     27  C   UNL     1      -4.288  12.969  21.582  0.00  0.00    +0.000 A 
ATOM     28  C   UNL     1      -3.974  12.597  22.887  0.00  0.00    +0.000 A 
ATOM     29  C   UNL     1      -2.653  12.650  23.333  0.00  0.00    +0.000 A 
ATOM     30  C   UNL     1      -1.639  13.060  22.467  0.00  0.00    +0.000 A 
ENDBRANCH   3  25
BRANCH   1  32
ATOM     31  C   UNL     1       2.144  17.193  19.798  0.00  0.00    +0.000 C 
ATOM     32  S   UNL     1       0.841  16.802  18.608  0.00  0.00    +0.000 S 
ENDBRANCH   1  32
TORSDOF 4
ENDMDL
