MODEL 1
REMARK VINA RESULT:      -6.5      0.000      0.000
REMARK  Name = 
REMARK  8 active torsions:
REMARK  status: ('A' for Active; 'I' for Inactive)
REMARK    1  A    between atoms: C_1  and  C_2
REMARK    2  A    between atoms: C_2  and  C_3
REMARK    3  A    between atoms: C_2  and  S_4
REMARK    4  A    between atoms: S_4  and  C_5
REMARK    5  A    between atoms: C_10  and  C_11
REMARK    6  A    between atoms: C_14  and  P_15
REMARK    7  A    between atoms: P_15  and  O_17
REMARK    8  A    between atoms: P_15  and  O_18
REMARK                            x       y       z     vdW  Elec       q    Type
REMARK                         _______ _______ _______ _____ _____    ______ ____
ROOT
ATOM      1  C   UNL     1       3.087   5.157  17.919  0.00  0.00    +0.000 A 
ATOM      2  S   UNL     1       4.272   4.382  16.945  0.00  0.00    +0.000 S 
ATOM      3  C   UNL     1       5.004   5.897  16.627  0.00  0.00    +0.000 A 
ATOM      4  N   UNL     1       6.108   5.990  15.870  0.00  0.00    +0.000 N 
ATOM      5  N   UNL     1       4.431   6.933  17.179  0.00  0.00    +0.000 NA
ATOM      6  C   UNL     1       3.323   6.524  17.909  0.00  0.00    +0.000 A 
ATOM      7  H   UNL     1       6.686   5.167  15.758  0.00  0.00    +0.000 HD
ATOM      8  H   UNL     1       6.624   6.861  15.940  0.00  0.00    +0.000 HD
ENDROOT
BRANCH   6   9
ATOM      9  C   UNL     1       2.494   7.536  18.634  0.00  0.00    +0.000 A 
ATOM     10  C   UNL     1       1.836   8.608  18.060  0.00  0.00    +0.000 A 
ATOM     11  C   UNL     1       1.185   9.307  19.109  0.00  0.00    +0.000 A 
ATOM     12  C   UNL     1       1.500   8.623  20.264  0.00  0.00    +0.000 A 
ATOM     13  O   UNL     1       2.281   7.546  19.980  0.00  0.00    +0.000 OA
BRANCH  12  14
ATOM     14  P   UNL     1       1.020   9.130  21.954  0.00  0.00    +0.000 P 
ATOM     15  O   UNL     1       0.989  10.601  21.533  0.00  0.00    +0.000 OA
BRANCH  14  16
ATOM     16  O   UNL     1      -0.521   8.608  21.748  0.00  0.00    +0.000 OA
ATOM     17  H   UNL     1      -0.738   8.625  20.795  0.00  0.00    +0.000 HD
ENDBRANCH  14  16
BRANCH  14  18
ATOM     18  O   UNL     1       0.567   9.610  23.553  0.00  0.00    +0.000 OA
ATOM     19  H   UNL     1       1.385   9.488  24.075  0.00  0.00    +0.000 HD
ENDBRANCH  14  18
ENDBRANCH  12  14
ENDBRANCH   6   9
BRANCH   1  20
ATOM     20  S   UNL     1       1.806   4.246  18.717  0.00  0.00    +0.000 S 
BRANCH  20  22
ATOM     21  C   UNL     1       1.545   3.300  21.329  0.00  0.00    +0.000 C 
ATOM     22  C   UNL     1       2.565   3.848  20.333  0.00  0.00    +0.000 C 
ATOM     23  C   UNL     1       3.675   2.821  20.107  0.00  0.00    +0.000 C 
ENDBRANCH  20  22
ENDBRANCH   1  20
TORSDOF 6
ENDMDL
MODEL 2
REMARK VINA RESULT:      -6.5      0.788      1.059
REMARK  Name = 
REMARK  8 active torsions:
REMARK  status: ('A' for Active; 'I' for Inactive)
REMARK    1  A    between atoms: C_1  and  C_2
REMARK    2  A    between atoms: C_2  and  C_3
REMARK    3  A    between atoms: C_2  and  S_4
REMARK    4  A    between atoms: S_4  and  C_5
REMARK    5  A    between atoms: C_10  and  C_11
REMARK    6  A    between atoms: C_14  and  P_15
REMARK    7  A    between atoms: P_15  and  O_17
REMARK    8  A    between atoms: P_15  and  O_18
REMARK                            x       y       z     vdW  Elec       q    Type
REMARK                         _______ _______ _______ _____ _____    ______ ____
ROOT
ATOM      1  C   UNL     1       3.076   5.409  18.108  0.00  0.00    +0.000 A 
ATOM      2  S   UNL     1       4.307   4.600  17.224  0.00  0.00    +0.000 S 
ATOM      3  C   UNL     1       4.963   6.110  16.751  0.00  0.00    +0.000 A 
ATOM      4  N   UNL     1       6.067   6.181  15.992  0.00  0.00    +0.000 N 
ATOM      5  N   UNL     1       4.333   7.166  17.190  0.00  0.00    +0.000 NA
ATOM      6  C   UNL     1       3.241   6.778  17.956  0.00  0.00    +0.000 A 
ATOM      7  H   UNL     1       6.687   5.382  15.968  0.00  0.00    +0.000 HD
ATOM      8  H   UNL     1       6.536   7.081  15.972  0.00  0.00    +0.000 HD
ENDROOT
BRANCH   6   9
ATOM      9  C   UNL     1       2.354   7.815  18.569  0.00  0.00    +0.000 A 
ATOM     10  C   UNL     1       1.718   8.840  17.894  0.00  0.00    +0.000 A 
ATOM     11  C   UNL     1       0.994   9.587  18.860  0.00  0.00    +0.000 A 
ATOM     12  C   UNL     1       1.247   8.976  20.069  0.00  0.00    +0.000 A 
ATOM     13  O   UNL     1       2.058   7.898  19.897  0.00  0.00    +0.000 OA
BRANCH  12  14
ATOM     14  P   UNL     1       0.656   9.571  21.695  0.00  0.00    +0.000 P 
ATOM     15  O   UNL     1      -0.438   8.502  21.718  0.00  0.00    +0.000 OA
BRANCH  14  16
ATOM     16  O   UNL     1       1.920   8.885  22.483  0.00  0.00    +0.000 OA
ATOM     17  H   UNL     1       2.745   9.086  21.998  0.00  0.00    +0.000 HD
ENDBRANCH  14  16
BRANCH  14  18
ATOM     18  O   UNL     1       0.097  10.134  23.232  0.00  0.00    +0.000 OA
ATOM     19  H   UNL     1      -0.767   9.690  23.344  0.00  0.00    +0.000 HD
ENDBRANCH  14  18
ENDBRANCH  12  14
ENDBRANCH   6   9
BRANCH   1  20
ATOM     20  S   UNL     1       1.836   4.520  18.992  0.00  0.00    +0.000 S 
BRANCH  20  22
ATOM     21  C   UNL     1       2.526   2.962  21.201  0.00  0.00    +0.000 C 
ATOM     22  C   UNL     1       2.793   3.135  19.708  0.00  0.00    +0.000 C 
ATOM     23  C   UNL     1       2.421   1.853  18.962  0.00  0.00    +0.000 C 
ENDBRANCH  20  22
ENDBRANCH   1  20
TORSDOF 6
ENDMDL
MODEL 3
REMARK VINA RESULT:      -6.4      2.217      3.431
REMARK  Name = 
REMARK  8 active torsions:
REMARK  status: ('A' for Active; 'I' for Inactive)
REMARK    1  A    between atoms: C_1  and  C_2
REMARK    2  A    between atoms: C_2  and  C_3
REMARK    3  A    between atoms: C_2  and  S_4
REMARK    4  A    between atoms: S_4  and  C_5
REMARK    5  A    between atoms: C_10  and  C_11
REMARK    6  A    between atoms: C_14  and  P_15
REMARK    7  A    between atoms: P_15  and  O_17
REMARK    8  A    between atoms: P_15  and  O_18
REMARK                            x       y       z     vdW  Elec       q    Type
REMARK                         _______ _______ _______ _____ _____    ______ ____
ROOT
ATOM      1  C   UNL     1       4.009   4.423  18.998  0.00  0.00    +0.000 A 
ATOM      2  S   UNL     1       4.007   2.734  18.682  0.00  0.00    +0.000 S 
ATOM      3  C   UNL     1       2.295   2.724  18.738  0.00  0.00    +0.000 A 
ATOM      4  N   UNL     1       1.600   1.596  18.522  0.00  0.00    +0.000 N 
ATOM      5  N   UNL     1       1.727   3.874  18.982  0.00  0.00    +0.000 NA
ATOM      6  C   UNL     1       2.698   4.853  19.149  0.00  0.00    +0.000 A 
ATOM      7  H   UNL     1       2.049   0.842  18.018  0.00  0.00    +0.000 HD
ATOM      8  H   UNL     1       0.614   1.715  18.314  0.00  0.00    +0.000 HD
ENDROOT
BRANCH   6   9
ATOM      9  C   UNL     1       2.293   6.262  19.444  0.00  0.00    +0.000 A 
ATOM     10  C   UNL     1       2.397   7.334  18.577  0.00  0.00    +0.000 A 
ATOM     11  C   UNL     1       1.910   8.475  19.267  0.00  0.00    +0.000 A 
ATOM     12  C   UNL     1       1.553   8.027  20.521  0.00  0.00    +0.000 A 
ATOM     13  O   UNL     1       1.772   6.689  20.628  0.00  0.00    +0.000 OA
BRANCH  12  14
ATOM     14  P   UNL     1       0.953   9.085  21.887  0.00  0.00    +0.000 P 
ATOM     15  O   UNL     1       0.962  10.313  20.975  0.00  0.00    +0.000 OA
BRANCH  14  16
ATOM     16  O   UNL     1      -0.572   8.493  21.769  0.00  0.00    +0.000 OA
ATOM     17  H   UNL     1      -1.009   8.895  20.992  0.00  0.00    +0.000 HD
ENDBRANCH  14  16
BRANCH  14  18
ATOM     18  O   UNL     1       0.387  10.086  23.180  0.00  0.00    +0.000 OA
ATOM     19  H   UNL     1       1.081   9.999  23.863  0.00  0.00    +0.000 HD
ENDBRANCH  14  18
ENDBRANCH  12  14
ENDBRANCH   6   9
BRANCH   1  20
ATOM     20  S   UNL     1       5.510   5.339  19.124  0.00  0.00    +0.000 S 
BRANCH  20  22
ATOM     21  C   UNL     1       4.985   5.761  16.417  0.00  0.00    +0.000 C 
ATOM     22  C   UNL     1       6.093   5.364  17.390  0.00  0.00    +0.000 C 
ATOM     23  C   UNL     1       7.256   6.350  17.284  0.00  0.00    +0.000 C 
ENDBRANCH  20  22
ENDBRANCH   1  20
TORSDOF 6
ENDMDL
MODEL 4
REMARK VINA RESULT:      -6.4      1.989      2.509
REMARK  Name = 
REMARK  8 active torsions:
REMARK  status: ('A' for Active; 'I' for Inactive)
REMARK    1  A    between atoms: C_1  and  C_2
REMARK    2  A    between atoms: C_2  and  C_3
REMARK    3  A    between atoms: C_2  and  S_4
REMARK    4  A    between atoms: S_4  and  C_5
REMARK    5  A    between atoms: C_10  and  C_11
REMARK    6  A    between atoms: C_14  and  P_15
REMARK    7  A    between atoms: P_15  and  O_17
REMARK    8  A    between atoms: P_15  and  O_18
REMARK                            x       y       z     vdW  Elec       q    Type
REMARK                         _______ _______ _______ _____ _____    ______ ____
ROOT
ATOM      1  C   UNL     1       3.982   4.646  17.076  0.00  0.00    +0.000 A 
ATOM      2  S   UNL     1       5.346   4.032  16.231  0.00  0.00    +0.000 S 
ATOM      3  C   UNL     1       6.153   5.528  16.441  0.00  0.00    +0.000 A 
ATOM      4  N   UNL     1       7.401   5.714  15.985  0.00  0.00    +0.000 N 
ATOM      5  N   UNL     1       5.484   6.450  17.080  0.00  0.00    +0.000 NA
ATOM      6  C   UNL     1       4.233   5.962  17.436  0.00  0.00    +0.000 A 
ATOM      7  H   UNL     1       7.977   4.900  15.812  0.00  0.00    +0.000 HD
ATOM      8  H   UNL     1       7.900   6.512  16.366  0.00  0.00    +0.000 HD
ENDROOT
BRANCH   6   9
ATOM      9  C   UNL     1       3.276   6.839  18.179  0.00  0.00    +0.000 A 
ATOM     10  C   UNL     1       2.788   6.610  19.452  0.00  0.00    +0.000 A 
ATOM     11  C   UNL     1       1.908   7.680  19.758  0.00  0.00    +0.000 A 
ATOM     12  C   UNL     1       1.903   8.489  18.642  0.00  0.00    +0.000 A 
ATOM     13  O   UNL     1       2.737   7.991  17.691  0.00  0.00    +0.000 OA
BRANCH  12  14
ATOM     14  P   UNL     1       0.861   9.976  18.422  0.00  0.00    +0.000 P 
ATOM     15  O   UNL     1       1.162  10.432  19.851  0.00  0.00    +0.000 OA
BRANCH  14  16
ATOM     16  O   UNL     1       1.996  10.721  17.502  0.00  0.00    +0.000 OA
ATOM     17  H   UNL     1       2.688  11.088  18.087  0.00  0.00    +0.000 HD
ENDBRANCH  14  16
BRANCH  14  18
ATOM     18  O   UNL     1      -0.127  11.382  18.214  0.00  0.00    +0.000 OA
ATOM     19  H   UNL     1      -0.286  11.414  17.250  0.00  0.00    +0.000 HD
ENDBRANCH  14  18
ENDBRANCH  12  14
ENDBRANCH   6   9
BRANCH   1  20
ATOM     20  S   UNL     1       2.540   3.667  17.342  0.00  0.00    +0.000 S 
BRANCH  20  22
ATOM     21  C   UNL     1       1.685   2.617  19.781  0.00  0.00    +0.000 C 
ATOM     22  C   UNL     1       2.929   2.830  18.921  0.00  0.00    +0.000 C 
ATOM     23  C   UNL     1       3.581   1.483  18.608  0.00  0.00    +0.000 C 
ENDBRANCH  20  22
ENDBRANCH   1  20
TORSDOF 6
ENDMDL
MODEL 5
REMARK VINA RESULT:      -6.4      4.062      5.227
REMARK  Name = 
REMARK  8 active torsions:
REMARK  status: ('A' for Active; 'I' for Inactive)
REMARK    1  A    between atoms: C_1  and  C_2
REMARK    2  A    between atoms: C_2  and  C_3
REMARK    3  A    between atoms: C_2  and  S_4
REMARK    4  A    between atoms: S_4  and  C_5
REMARK    5  A    between atoms: C_10  and  C_11
REMARK    6  A    between atoms: C_14  and  P_15
REMARK    7  A    between atoms: P_15  and  O_17
REMARK    8  A    between atoms: P_15  and  O_18
REMARK                            x       y       z     vdW  Elec       q    Type
REMARK                         _______ _______ _______ _____ _____    ______ ____
ROOT
ATOM      1  C   UNL     1       5.675   5.400  16.334  0.00  0.00    +0.000 A 
ATOM      2  S   UNL     1       6.824   5.282  15.062  0.00  0.00    +0.000 S 
ATOM      3  C   UNL     1       6.041   3.874  14.483  0.00  0.00    +0.000 A 
ATOM      4  N   UNL     1       6.475   3.241  13.382  0.00  0.00    +0.000 N 
ATOM      5  N   UNL     1       5.000   3.479  15.166  0.00  0.00    +0.000 NA
ATOM      6  C   UNL     1       4.789   4.336  16.238  0.00  0.00    +0.000 A 
ATOM      7  H   UNL     1       7.043   3.756  12.722  0.00  0.00    +0.000 HD
ATOM      8  H   UNL     1       5.824   2.587  12.958  0.00  0.00    +0.000 HD
ENDROOT
BRANCH   6   9
ATOM      9  C   UNL     1       3.651   4.090  17.177  0.00  0.00    +0.000 A 
ATOM     10  C   UNL     1       2.311   4.273  16.892  0.00  0.00    +0.000 A 
ATOM     11  C   UNL     1       1.587   3.931  18.063  0.00  0.00    +0.000 A 
ATOM     12  C   UNL     1       2.536   3.573  18.997  0.00  0.00    +0.000 A 
ATOM     13  O   UNL     1       3.784   3.657  18.462  0.00  0.00    +0.000 OA
BRANCH  12  14
ATOM     14  P   UNL     1       2.189   3.134  20.738  0.00  0.00    +0.000 P 
ATOM     15  O   UNL     1       2.387   4.588  21.172  0.00  0.00    +0.000 OA
BRANCH  14  16
ATOM     16  O   UNL     1       0.579   3.002  20.457  0.00  0.00    +0.000 OA
ATOM     17  H   UNL     1       0.440   2.468  19.650  0.00  0.00    +0.000 HD
ENDBRANCH  14  16
BRANCH  14  18
ATOM     18  O   UNL     1       1.862   2.719  22.386  0.00  0.00    +0.000 OA
ATOM     19  H   UNL     1       2.585   3.149  22.883  0.00  0.00    +0.000 HD
ENDBRANCH  14  18
ENDBRANCH  12  14
ENDBRANCH   6   9
BRANCH   1  20
ATOM     20  S   UNL     1       5.747   6.695  17.529  0.00  0.00    +0.000 S 
BRANCH  20  22
ATOM     21  C   UNL     1       7.943   8.385  17.853  0.00  0.00    +0.000 C 
ATOM     22  C   UNL     1       7.550   6.912  17.753  0.00  0.00    +0.000 C 
ATOM     23  C   UNL     1       7.973   6.173  19.022  0.00  0.00    +0.000 C 
ENDBRANCH  20  22
ENDBRANCH   1  20
TORSDOF 6
ENDMDL
MODEL 6
REMARK VINA RESULT:      -6.4      4.752      6.763
REMARK  Name = 
REMARK  8 active torsions:
REMARK  status: ('A' for Active; 'I' for Inactive)
REMARK    1  A    between atoms: C_1  and  C_2
REMARK    2  A    between atoms: C_2  and  C_3
REMARK    3  A    between atoms: C_2  and  S_4
REMARK    4  A    between atoms: S_4  and  C_5
REMARK    5  A    between atoms: C_10  and  C_11
REMARK    6  A    between atoms: C_14  and  P_15
REMARK    7  A    between atoms: P_15  and  O_17
REMARK    8  A    between atoms: P_15  and  O_18
REMARK                            x       y       z     vdW  Elec       q    Type
REMARK                         _______ _______ _______ _____ _____    ______ ____
ROOT
ATOM      1  C   UNL     1       2.197   4.648  19.228  0.00  0.00    +0.000 A 
ATOM      2  S   UNL     1       1.033   3.985  20.304  0.00  0.00    +0.000 S 
ATOM      3  C   UNL     1       2.253   3.040  21.046  0.00  0.00    +0.000 A 
ATOM      4  N   UNL     1       1.973   2.235  22.083  0.00  0.00    +0.000 N 
ATOM      5  N   UNL     1       3.454   3.171  20.551  0.00  0.00    +0.000 NA
ATOM      6  C   UNL     1       3.433   4.078  19.499  0.00  0.00    +0.000 A 
ATOM      7  H   UNL     1       1.140   2.422  22.626  0.00  0.00    +0.000 HD
ATOM      8  H   UNL     1       2.769   1.917  22.626  0.00  0.00    +0.000 HD
ENDROOT
BRANCH   6   9
ATOM      9  C   UNL     1       4.696   4.394  18.762  0.00  0.00    +0.000 A 
ATOM     10  C   UNL     1       5.893   4.781  19.335  0.00  0.00    +0.000 A 
ATOM     11  C   UNL     1       6.814   4.987  18.275  0.00  0.00    +0.000 A 
ATOM     12  C   UNL     1       6.113   4.725  17.118  0.00  0.00    +0.000 A 
ATOM     13  O   UNL     1       4.837   4.355  17.408  0.00  0.00    +0.000 OA
BRANCH  12  14
ATOM     14  P   UNL     1       6.765   4.929  15.421  0.00  0.00    +0.000 P 
ATOM     15  O   UNL     1       5.445   5.549  14.959  0.00  0.00    +0.000 OA
BRANCH  14  16
ATOM     16  O   UNL     1       7.693   6.209  15.857  0.00  0.00    +0.000 OA
ATOM     17  H   UNL     1       7.866   6.164  16.818  0.00  0.00    +0.000 HD
ENDBRANCH  14  16
BRANCH  14  18
ATOM     18  O   UNL     1       7.382   5.120  13.816  0.00  0.00    +0.000 OA
ATOM     19  H   UNL     1       6.888   4.458  13.295  0.00  0.00    +0.000 HD
ENDBRANCH  14  18
ENDBRANCH  12  14
ENDBRANCH   6   9
BRANCH   1  20
ATOM     20  S   UNL     1       1.754   5.829  17.996  0.00  0.00    +0.000 S 
BRANCH  20  22
ATOM     21  C   UNL     1       2.184   8.576  17.774  0.00  0.00    +0.000 C 
ATOM     22  C   UNL     1       2.506   7.364  18.646  0.00  0.00    +0.000 C 
ATOM     23  C   UNL     1       1.989   7.594  20.066  0.00  0.00    +0.000 C 
ENDBRANCH  20  22
ENDBRANCH   1  20
TORSDOF 6
ENDMDL
MODEL 7
REMARK VINA RESULT:      -6.3      2.314      3.589
REMARK  Name = 
REMARK  8 active torsions:
REMARK  status: ('A' for Active; 'I' for Inactive)
REMARK    1  A    between atoms: C_1  and  C_2
REMARK    2  A    between atoms: C_2  and  C_3
REMARK    3  A    between atoms: C_2  and  S_4
REMARK    4  A    between atoms: S_4  and  C_5
REMARK    5  A    between atoms: C_10  and  C_11
REMARK    6  A    between atoms: C_14  and  P_15
REMARK    7  A    between atoms: P_15  and  O_17
REMARK    8  A    between atoms: P_15  and  O_18
REMARK                            x       y       z     vdW  Elec       q    Type
REMARK                         _______ _______ _______ _____ _____    ______ ____
ROOT
ATOM      1  C   UNL     1       4.085   4.366  19.076  0.00  0.00    +0.000 A 
ATOM      2  S   UNL     1       4.068   2.654  18.928  0.00  0.00    +0.000 S 
ATOM      3  C   UNL     1       2.358   2.675  18.856  0.00  0.00    +0.000 A 
ATOM      4  N   UNL     1       1.655   1.542  18.701  0.00  0.00    +0.000 N 
ATOM      5  N   UNL     1       1.799   3.852  18.943  0.00  0.00    +0.000 NA
ATOM      6  C   UNL     1       2.777   4.828  19.085  0.00  0.00    +0.000 A 
ATOM      7  H   UNL     1       2.122   0.735  18.309  0.00  0.00    +0.000 HD
ATOM      8  H   UNL     1       0.689   1.654  18.409  0.00  0.00    +0.000 HD
ENDROOT
BRANCH   6   9
ATOM      9  C   UNL     1       2.383   6.266  19.209  0.00  0.00    +0.000 A 
ATOM     10  C   UNL     1       2.546   7.238  18.240  0.00  0.00    +0.000 A 
ATOM     11  C   UNL     1       2.048   8.451  18.781  0.00  0.00    +0.000 A 
ATOM     12  C   UNL     1       1.624   8.144  20.056  0.00  0.00    +0.000 A 
ATOM     13  O   UNL     1       1.815   6.823  20.315  0.00  0.00    +0.000 OA
BRANCH  12  14
ATOM     14  P   UNL     1       0.980   9.350  21.272  0.00  0.00    +0.000 P 
ATOM     15  O   UNL     1      -0.272   8.498  21.493  0.00  0.00    +0.000 OA
BRANCH  14  16
ATOM     16  O   UNL     1       2.030   8.849  22.429  0.00  0.00    +0.000 OA
ATOM     17  H   UNL     1       1.593   8.908  23.301  0.00  0.00    +0.000 HD
ENDBRANCH  14  16
BRANCH  14  18
ATOM     18  O   UNL     1       0.370  10.490  22.421  0.00  0.00    +0.000 OA
ATOM     19  H   UNL     1       0.395  10.004  23.269  0.00  0.00    +0.000 HD
ENDBRANCH  14  18
ENDBRANCH  12  14
ENDBRANCH   6   9
BRANCH   1  20
ATOM     20  S   UNL     1       5.594   5.267  19.223  0.00  0.00    +0.000 S 
BRANCH  20  22
ATOM     21  C   UNL     1       6.904   6.921  17.398  0.00  0.00    +0.000 C 
ATOM     22  C   UNL     1       5.920   5.756  17.491  0.00  0.00    +0.000 C 
ATOM     23  C   UNL     1       6.476   4.545  16.742  0.00  0.00    +0.000 C 
ENDBRANCH  20  22
ENDBRANCH   1  20
TORSDOF 6
ENDMDL
MODEL 8
REMARK VINA RESULT:      -6.3      4.834      6.602
REMARK  Name = 
REMARK  8 active torsions:
REMARK  status: ('A' for Active; 'I' for Inactive)
REMARK    1  A    between atoms: C_1  and  C_2
REMARK    2  A    between atoms: C_2  and  C_3
REMARK    3  A    between atoms: C_2  and  S_4
REMARK    4  A    between atoms: S_4  and  C_5
REMARK    5  A    between atoms: C_10  and  C_11
REMARK    6  A    between atoms: C_14  and  P_15
REMARK    7  A    between atoms: P_15  and  O_17
REMARK    8  A    between atoms: P_15  and  O_18
REMARK                            x       y       z     vdW  Elec       q    Type
REMARK                         _______ _______ _______ _____ _____    ______ ____
ROOT
ATOM      1  C   UNL     1       3.131   4.368  19.972  0.00  0.00    +0.000 A 
ATOM      2  S   UNL     1       1.908   5.165  20.877  0.00  0.00    +0.000 S 
ATOM      3  C   UNL     1       2.349   6.658  20.164  0.00  0.00    +0.000 A 
ATOM      4  N   UNL     1       1.692   7.790  20.460  0.00  0.00    +0.000 N 
ATOM      5  N   UNL     1       3.339   6.612  19.314  0.00  0.00    +0.000 NA
ATOM      6  C   UNL     1       3.806   5.308  19.206  0.00  0.00    +0.000 A 
ATOM      7  H   UNL     1       0.756   7.719  20.839  0.00  0.00    +0.000 HD
ATOM      8  H   UNL     1       1.830   8.565  19.819  0.00  0.00    +0.000 HD
ENDROOT
BRANCH   6   9
ATOM      9  C   UNL     1       4.948   4.999  18.291  0.00  0.00    +0.000 A 
ATOM     10  C   UNL     1       6.290   5.057  18.620  0.00  0.00    +0.000 A 
ATOM     11  C   UNL     1       7.018   4.696  17.457  0.00  0.00    +0.000 A 
ATOM     12  C   UNL     1       6.072   4.454  16.485  0.00  0.00    +0.000 A 
ATOM     13  O   UNL     1       4.820   4.624  16.987  0.00  0.00    +0.000 OA
BRANCH  12  14
ATOM     14  P   UNL     1       6.434   4.049  14.738  0.00  0.00    +0.000 P 
ATOM     15  O   UNL     1       5.098   4.649  14.294  0.00  0.00    +0.000 OA
BRANCH  14  16
ATOM     16  O   UNL     1       7.506   5.282  14.602  0.00  0.00    +0.000 OA
ATOM     17  H   UNL     1       8.280   4.976  14.088  0.00  0.00    +0.000 HD
ENDBRANCH  14  16
BRANCH  14  18
ATOM     18  O   UNL     1       6.776   3.665  13.086  0.00  0.00    +0.000 OA
ATOM     19  H   UNL     1       7.510   4.267  12.853  0.00  0.00    +0.000 HD
ENDBRANCH  14  18
ENDBRANCH  12  14
ENDBRANCH   6   9
BRANCH   1  20
ATOM     20  S   UNL     1       3.406   2.632  20.114  0.00  0.00    +0.000 S 
BRANCH  20  22
ATOM     21  C   UNL     1       0.782   2.583  19.169  0.00  0.00    +0.000 C 
ATOM     22  C   UNL     1       2.157   1.950  18.965  0.00  0.00    +0.000 C 
ATOM     23  C   UNL     1       2.633   2.190  17.533  0.00  0.00    +0.000 C 
ENDBRANCH  20  22
ENDBRANCH   1  20
TORSDOF 6
ENDMDL
MODEL 9
REMARK VINA RESULT:      -6.3      0.926      1.198
REMARK  Name = 
REMARK  8 active torsions:
REMARK  status: ('A' for Active; 'I' for Inactive)
REMARK    1  A    between atoms: C_1  and  C_2
REMARK    2  A    between atoms: C_2  and  C_3
REMARK    3  A    between atoms: C_2  and  S_4
REMARK    4  A    between atoms: S_4  and  C_5
REMARK    5  A    between atoms: C_10  and  C_11
REMARK    6  A    between atoms: C_14  and  P_15
REMARK    7  A    between atoms: P_15  and  O_17
REMARK    8  A    between atoms: P_15  and  O_18
REMARK                            x       y       z     vdW  Elec       q    Type
REMARK                         _______ _______ _______ _____ _____    ______ ____
ROOT
ATOM      1  C   UNL     1       3.842   5.319  18.373  0.00  0.00    +0.000 A 
ATOM      2  S   UNL     1       4.950   4.577  17.290  0.00  0.00    +0.000 S 
ATOM      3  C   UNL     1       5.001   6.010  16.355  0.00  0.00    +0.000 A 
ATOM      4  N   UNL     1       5.783   6.103  15.268  0.00  0.00    +0.000 N 
ATOM      5  N   UNL     1       4.251   6.992  16.778  0.00  0.00    +0.000 NA
ATOM      6  C   UNL     1       3.570   6.604  17.925  0.00  0.00    +0.000 A 
ATOM      7  H   UNL     1       6.568   5.471  15.184  0.00  0.00    +0.000 HD
ATOM      8  H   UNL     1       5.958   7.042  14.926  0.00  0.00    +0.000 HD
ENDROOT
BRANCH   6   9
ATOM      9  C   UNL     1       2.640   7.561  18.599  0.00  0.00    +0.000 A 
ATOM     10  C   UNL     1       1.894   8.543  17.974  0.00  0.00    +0.000 A 
ATOM     11  C   UNL     1       1.165   9.219  18.987  0.00  0.00    +0.000 A 
ATOM     12  C   UNL     1       1.525   8.614  20.172  0.00  0.00    +0.000 A 
ATOM     13  O   UNL     1       2.407   7.605  19.941  0.00  0.00    +0.000 OA
BRANCH  12  14
ATOM     14  P   UNL     1       0.975   9.140  21.835  0.00  0.00    +0.000 P 
ATOM     15  O   UNL     1       0.786  10.578  21.346  0.00  0.00    +0.000 OA
BRANCH  14  16
ATOM     16  O   UNL     1      -0.497   8.442  21.645  0.00  0.00    +0.000 OA
ATOM     17  H   UNL     1      -0.461   7.526  21.984  0.00  0.00    +0.000 HD
ENDBRANCH  14  16
BRANCH  14  18
ATOM     18  O   UNL     1       0.455   9.639  23.408  0.00  0.00    +0.000 OA
ATOM     19  H   UNL     1       1.118  10.308  23.672  0.00  0.00    +0.000 HD
ENDBRANCH  14  18
ENDBRANCH  12  14
ENDBRANCH   6   9
BRANCH   1  20
ATOM     20  S   UNL     1       3.198   4.460  19.772  0.00  0.00    +0.000 S 
BRANCH  20  22
ATOM     21  C   UNL     1       1.830   2.599  18.208  0.00  0.00    +0.000 C 
ATOM     22  C   UNL     1       1.619   3.801  19.125  0.00  0.00    +0.000 C 
ATOM     23  C   UNL     1       0.739   3.403  20.310  0.00  0.00    +0.000 C 
ENDBRANCH  20  22
ENDBRANCH   1  20
TORSDOF 6
ENDMDL
