MODEL 1
REMARK VINA RESULT:      -8.3      0.000      0.000
REMARK  Name = 
REMARK  10 active torsions:
REMARK  status: ('A' for Active; 'I' for Inactive)
REMARK    1  A    between atoms: C_1  and  C_2
REMARK    2  A    between atoms: C_2  and  C_3
REMARK    3  A    between atoms: C_5  and  N_6
REMARK    4  A    between atoms: C_9  and  N_10
REMARK    5  A    between atoms: N_10  and  C_11
REMARK    6  A    between atoms: C_13  and  O_14
REMARK    7  A    between atoms: C_15  and  C_16
REMARK    8  A    between atoms: C_16  and  O_17
REMARK    9  A    between atoms: O_17  and  S_18
REMARK   10  A    between atoms: S_18  and  N_19
REMARK                            x       y       z     vdW  Elec       q    Type
REMARK                         _______ _______ _______ _____ _____    ______ ____
ROOT
ATOM      1  N   UNL     1       8.499   9.874  18.094  0.00  0.00    +0.000 N 
ATOM      2  C   UNL     1       8.145   8.528  18.194  0.00  0.00    +0.000 A 
ATOM      3  C   UNL     1       7.325   8.020  17.203  0.00  0.00    +0.000 A 
ATOM      4  C   UNL     1       7.117   6.652  17.151  0.00  0.00    +0.000 A 
ATOM      5  N   UNL     1       7.605   5.840  18.097  0.00  0.00    +0.000 NA
ATOM      6  C   UNL     1       8.327   6.431  19.066  0.00  0.00    +0.000 A 
ATOM      7  N   UNL     1       8.647   7.734  19.151  0.00  0.00    +0.000 NA
ATOM      8  H   UNL     1       7.702  10.490  18.175  0.00  0.00    +0.000 HD
ENDROOT
BRANCH   1  13
ATOM      9  C   UNL     1      10.835  13.889  18.049  0.00  0.00    +0.000 C 
ATOM     10  C   UNL     1       9.798  12.772  18.207  0.00  0.00    +0.000 C 
ATOM     11  C   UNL     1       8.587  13.058  17.310  0.00  0.00    +0.000 C 
ATOM     12  C   UNL     1      10.445  11.389  17.917  0.00  0.00    +0.000 C 
ATOM     13  C   UNL     1       9.699  10.337  18.773  0.00  0.00    +0.000 C 
ATOM     14  C   UNL     1       9.316  11.199  19.956  0.00  0.00    +0.000 A 
ATOM     15  C   UNL     1       8.951  10.786  21.231  0.00  0.00    +0.000 A 
ATOM     16  C   UNL     1       8.635  11.758  22.189  0.00  0.00    +0.000 A 
ATOM     17  C   UNL     1       8.668  13.120  21.863  0.00  0.00    +0.000 A 
ATOM     18  C   UNL     1       9.028  13.534  20.580  0.00  0.00    +0.000 A 
ATOM     19  C   UNL     1       9.360  12.566  19.639  0.00  0.00    +0.000 A 
ENDBRANCH   1  13
BRANCH   4  20
ATOM     20  N   UNL     1       6.469   6.154  16.010  0.00  0.00    +0.000 N 
ATOM     21  H   UNL     1       6.751   6.686  15.191  0.00  0.00    +0.000 HD
BRANCH  20  22
ATOM     22  C   UNL     1       5.041   5.862  16.094  0.00  0.00    +0.000 C 
ATOM     23  C   UNL     1       4.836   4.340  16.070  0.00  0.00    +0.000 C 
ATOM     24  C   UNL     1       4.727   3.940  17.535  0.00  0.00    +0.000 C 
ATOM     25  C   UNL     1       3.922   5.078  18.171  0.00  0.00    +0.000 C 
ATOM     26  C   UNL     1       4.495   6.321  17.469  0.00  0.00    +0.000 C 
BRANCH  24  27
ATOM     27  O   UNL     1       4.169   2.650  17.686  0.00  0.00    +0.000 OA
ATOM     28  H   UNL     1       4.736   2.131  18.281  0.00  0.00    +0.000 HD
ENDBRANCH  24  27
BRANCH  25  29
ATOM     29  C   UNL     1       2.400   4.991  18.019  0.00  0.00    +0.000 C 
BRANCH  29  30
ATOM     30  O   UNL     1       1.907   3.848  18.708  0.00  0.00    +0.000 OA
BRANCH  30  31
ATOM     31  S   UNL     1       2.076   3.820  20.320  0.00  0.00    +0.000 S 
ATOM     32  O   UNL     1       3.206   2.981  20.639  0.00  0.00    +0.000 OA
ATOM     33  O   UNL     1       1.942   5.173  20.797  0.00  0.00    +0.000 OA
BRANCH  31  34
ATOM     34  N   UNL     1       0.706   3.001  20.811  0.00  0.00    +0.000 NA
ATOM     35  H   UNL     1       0.807   1.996  20.684  0.00  0.00    +0.000 HD
ATOM     36  H   UNL     1      -0.136   3.396  20.398  0.00  0.00    +0.000 HD
ENDBRANCH  31  34
ENDBRANCH  30  31
ENDBRANCH  29  30
ENDBRANCH  25  29
ENDBRANCH  20  22
ENDBRANCH   4  20
TORSDOF 8
ENDMDL
MODEL 2
REMARK VINA RESULT:      -7.6      5.925      7.145
REMARK  Name = 
REMARK  10 active torsions:
REMARK  status: ('A' for Active; 'I' for Inactive)
REMARK    1  A    between atoms: C_1  and  C_2
REMARK    2  A    between atoms: C_2  and  C_3
REMARK    3  A    between atoms: C_5  and  N_6
REMARK    4  A    between atoms: C_9  and  N_10
REMARK    5  A    between atoms: N_10  and  C_11
REMARK    6  A    between atoms: C_13  and  O_14
REMARK    7  A    between atoms: C_15  and  C_16
REMARK    8  A    between atoms: C_16  and  O_17
REMARK    9  A    between atoms: O_17  and  S_18
REMARK   10  A    between atoms: S_18  and  N_19
REMARK                            x       y       z     vdW  Elec       q    Type
REMARK                         _______ _______ _______ _____ _____    ______ ____
ROOT
ATOM      1  N   UNL     1       0.655  12.342  19.723  0.00  0.00    +0.000 N 
ATOM      2  C   UNL     1       0.786  11.049  20.231  0.00  0.00    +0.000 A 
ATOM      3  C   UNL     1       0.952  10.028  19.314  0.00  0.00    +0.000 A 
ATOM      4  C   UNL     1       1.288   8.768  19.778  0.00  0.00    +0.000 A 
ATOM      5  N   UNL     1       1.346   8.505  21.090  0.00  0.00    +0.000 NA
ATOM      6  C   UNL     1       1.094   9.540  21.910  0.00  0.00    +0.000 A 
ATOM      7  N   UNL     1       0.842  10.811  21.550  0.00  0.00    +0.000 NA
ATOM      8  H   UNL     1      -0.179  12.454  19.163  0.00  0.00    +0.000 HD
ENDROOT
BRANCH   1  13
ATOM      9  C   UNL     1       4.176  15.368  19.856  0.00  0.00    +0.000 C 
ATOM     10  C   UNL     1       2.953  14.525  19.485  0.00  0.00    +0.000 C 
ATOM     11  C   UNL     1       3.265  13.674  18.247  0.00  0.00    +0.000 C 
ATOM     12  C   UNL     1       2.498  13.668  20.700  0.00  0.00    +0.000 C 
ATOM     13  C   UNL     1       0.967  13.471  20.584  0.00  0.00    +0.000 C 
ATOM     14  C   UNL     1       0.597  14.763  19.887  0.00  0.00    +0.000 A 
ATOM     15  C   UNL     1      -0.651  15.369  19.819  0.00  0.00    +0.000 A 
ATOM     16  C   UNL     1      -0.775  16.575  19.119  0.00  0.00    +0.000 A 
ATOM     17  C   UNL     1       0.333  17.151  18.484  0.00  0.00    +0.000 A 
ATOM     18  C   UNL     1       1.585  16.538  18.548  0.00  0.00    +0.000 A 
ATOM     19  C   UNL     1       1.707  15.351  19.261  0.00  0.00    +0.000 A 
ENDBRANCH   1  13
BRANCH   4  20
ATOM     20  N   UNL     1       1.666   7.819  18.815  0.00  0.00    +0.000 N 
ATOM     21  H   UNL     1       0.839   7.377  18.421  0.00  0.00    +0.000 HD
BRANCH  20  22
ATOM     22  C   UNL     1       2.763   6.908  19.130  0.00  0.00    +0.000 C 
ATOM     23  C   UNL     1       2.184   5.555  19.568  0.00  0.00    +0.000 C 
ATOM     24  C   UNL     1       2.198   4.701  18.308  0.00  0.00    +0.000 C 
ATOM     25  C   UNL     1       3.509   5.085  17.614  0.00  0.00    +0.000 C 
ATOM     26  C   UNL     1       3.573   6.604  17.845  0.00  0.00    +0.000 C 
BRANCH  24  27
ATOM     27  O   UNL     1       2.054   3.326  18.605  0.00  0.00    +0.000 OA
ATOM     28  H   UNL     1       2.552   3.128  19.416  0.00  0.00    +0.000 HD
ENDBRANCH  24  27
BRANCH  25  29
ATOM     29  C   UNL     1       4.770   4.380  18.124  0.00  0.00    +0.000 C 
BRANCH  29  30
ATOM     30  O   UNL     1       5.895   5.244  18.000  0.00  0.00    +0.000 OA
BRANCH  30  31
ATOM     31  S   UNL     1       6.962   4.914  16.826  0.00  0.00    +0.000 S 
ATOM     32  O   UNL     1       6.364   3.953  15.931  0.00  0.00    +0.000 OA
ATOM     33  O   UNL     1       7.518   6.165  16.377  0.00  0.00    +0.000 OA
BRANCH  31  34
ATOM     34  N   UNL     1       8.175   4.120  17.655  0.00  0.00    +0.000 NA
ATOM     35  H   UNL     1       8.077   3.109  17.581  0.00  0.00    +0.000 HD
ATOM     36  H   UNL     1       8.267   4.466  18.607  0.00  0.00    +0.000 HD
ENDBRANCH  31  34
ENDBRANCH  30  31
ENDBRANCH  29  30
ENDBRANCH  25  29
ENDBRANCH  20  22
ENDBRANCH   4  20
TORSDOF 8
ENDMDL
MODEL 3
REMARK VINA RESULT:      -7.5      5.944      7.049
REMARK  Name = 
REMARK  10 active torsions:
REMARK  status: ('A' for Active; 'I' for Inactive)
REMARK    1  A    between atoms: C_1  and  C_2
REMARK    2  A    between atoms: C_2  and  C_3
REMARK    3  A    between atoms: C_5  and  N_6
REMARK    4  A    between atoms: C_9  and  N_10
REMARK    5  A    between atoms: N_10  and  C_11
REMARK    6  A    between atoms: C_13  and  O_14
REMARK    7  A    between atoms: C_15  and  C_16
REMARK    8  A    between atoms: C_16  and  O_17
REMARK    9  A    between atoms: O_17  and  S_18
REMARK   10  A    between atoms: S_18  and  N_19
REMARK                            x       y       z     vdW  Elec       q    Type
REMARK                         _______ _______ _______ _____ _____    ______ ____
ROOT
ATOM      1  N   UNL     1       0.807  12.365  19.546  0.00  0.00    +0.000 N 
ATOM      2  C   UNL     1       0.890  11.062  20.039  0.00  0.00    +0.000 A 
ATOM      3  C   UNL     1       1.132  10.057  19.121  0.00  0.00    +0.000 A 
ATOM      4  C   UNL     1       1.423   8.787  19.589  0.00  0.00    +0.000 A 
ATOM      5  N   UNL     1       1.367   8.500  20.896  0.00  0.00    +0.000 NA
ATOM      6  C   UNL     1       1.049   9.522  21.711  0.00  0.00    +0.000 A 
ATOM      7  N   UNL     1       0.832  10.800  21.353  0.00  0.00    +0.000 NA
ATOM      8  H   UNL     1       0.025  12.491  18.919  0.00  0.00    +0.000 HD
ENDROOT
BRANCH   1  13
ATOM      9  C   UNL     1       4.222  15.492  19.913  0.00  0.00    +0.000 C 
ATOM     10  C   UNL     1       3.042  14.623  19.468  0.00  0.00    +0.000 C 
ATOM     11  C   UNL     1       3.431  13.820  18.220  0.00  0.00    +0.000 C 
ATOM     12  C   UNL     1       2.565  13.717  20.637  0.00  0.00    +0.000 C 
ATOM     13  C   UNL     1       1.048  13.476  20.452  0.00  0.00    +0.000 C 
ATOM     14  C   UNL     1       0.666  14.777  19.777  0.00  0.00    +0.000 A 
ATOM     15  C   UNL     1      -0.597  15.346  19.674  0.00  0.00    +0.000 A 
ATOM     16  C   UNL     1      -0.731  16.569  19.005  0.00  0.00    +0.000 A 
ATOM     17  C   UNL     1       0.383  17.197  18.433  0.00  0.00    +0.000 A 
ATOM     18  C   UNL     1       1.650  16.621  18.532  0.00  0.00    +0.000 A 
ATOM     19  C   UNL     1       1.781  15.418  19.215  0.00  0.00    +0.000 A 
ENDBRANCH   1  13
BRANCH   4  20
ATOM     20  N   UNL     1       1.879   7.854  18.644  0.00  0.00    +0.000 N 
ATOM     21  H   UNL     1       1.090   7.448  18.149  0.00  0.00    +0.000 HD
BRANCH  20  22
ATOM     22  C   UNL     1       2.911   6.904  19.049  0.00  0.00    +0.000 C 
ATOM     23  C   UNL     1       2.295   5.499  19.131  0.00  0.00    +0.000 C 
ATOM     24  C   UNL     1       2.615   4.857  17.789  0.00  0.00    +0.000 C 
ATOM     25  C   UNL     1       4.033   5.344  17.472  0.00  0.00    +0.000 C 
ATOM     26  C   UNL     1       3.993   6.807  17.946  0.00  0.00    +0.000 C 
BRANCH  24  27
ATOM     27  O   UNL     1       2.456   3.452  17.828  0.00  0.00    +0.000 OA
ATOM     28  H   UNL     1       3.194   3.040  17.347  0.00  0.00    +0.000 HD
ENDBRANCH  24  27
BRANCH  25  29
ATOM     29  C   UNL     1       5.174   4.565  18.133  0.00  0.00    +0.000 C 
BRANCH  29  30
ATOM     30  O   UNL     1       5.908   5.420  19.002  0.00  0.00    +0.000 OA
BRANCH  30  31
ATOM     31  S   UNL     1       7.496   5.582  18.722  0.00  0.00    +0.000 S 
ATOM     32  O   UNL     1       7.701   6.810  17.992  0.00  0.00    +0.000 OA
ATOM     33  O   UNL     1       8.190   5.271  19.946  0.00  0.00    +0.000 OA
BRANCH  31  34
ATOM     34  N   UNL     1       7.805   4.328  17.663  0.00  0.00    +0.000 NA
ATOM     35  H   UNL     1       8.713   3.904  17.842  0.00  0.00    +0.000 HD
ATOM     36  H   UNL     1       7.652   4.606  16.696  0.00  0.00    +0.000 HD
ENDBRANCH  31  34
ENDBRANCH  30  31
ENDBRANCH  29  30
ENDBRANCH  25  29
ENDBRANCH  20  22
ENDBRANCH   4  20
TORSDOF 8
ENDMDL
MODEL 4
REMARK VINA RESULT:      -7.5      5.921      7.151
REMARK  Name = 
REMARK  10 active torsions:
REMARK  status: ('A' for Active; 'I' for Inactive)
REMARK    1  A    between atoms: C_1  and  C_2
REMARK    2  A    between atoms: C_2  and  C_3
REMARK    3  A    between atoms: C_5  and  N_6
REMARK    4  A    between atoms: C_9  and  N_10
REMARK    5  A    between atoms: N_10  and  C_11
REMARK    6  A    between atoms: C_13  and  O_14
REMARK    7  A    between atoms: C_15  and  C_16
REMARK    8  A    between atoms: C_16  and  O_17
REMARK    9  A    between atoms: O_17  and  S_18
REMARK   10  A    between atoms: S_18  and  N_19
REMARK                            x       y       z     vdW  Elec       q    Type
REMARK                         _______ _______ _______ _____ _____    ______ ____
ROOT
ATOM      1  N   UNL     1       2.155  13.011  18.741  0.00  0.00    +0.000 N 
ATOM      2  C   UNL     1       1.269  11.933  18.730  0.00  0.00    +0.000 A 
ATOM      3  C   UNL     1       1.714  10.762  18.145  0.00  0.00    +0.000 A 
ATOM      4  C   UNL     1       0.951   9.616  18.293  0.00  0.00    +0.000 A 
ATOM      5  N   UNL     1      -0.245   9.651  18.894  0.00  0.00    +0.000 NA
ATOM      6  C   UNL     1      -0.632  10.850  19.366  0.00  0.00    +0.000 A 
ATOM      7  N   UNL     1       0.076  11.993  19.340  0.00  0.00    +0.000 NA
ATOM      8  H   UNL     1       2.376  13.338  17.811  0.00  0.00    +0.000 HD
ENDROOT
BRANCH   1  13
ATOM      9  C   UNL     1       4.465  16.927  19.694  0.00  0.00    +0.000 C 
ATOM     10  C   UNL     1       3.638  15.804  19.061  0.00  0.00    +0.000 C 
ATOM     11  C   UNL     1       4.367  15.255  17.828  0.00  0.00    +0.000 C 
ATOM     12  C   UNL     1       3.327  14.702  20.112  0.00  0.00    +0.000 C 
ATOM     13  C   UNL     1       1.971  14.062  19.729  0.00  0.00    +0.000 C 
ATOM     14  C   UNL     1       1.300  15.257  19.085  0.00  0.00    +0.000 A 
ATOM     15  C   UNL     1      -0.056  15.455  18.860  0.00  0.00    +0.000 A 
ATOM     16  C   UNL     1      -0.469  16.645  18.247  0.00  0.00    +0.000 A 
ATOM     17  C   UNL     1       0.468  17.608  17.851  0.00  0.00    +0.000 A 
ATOM     18  C   UNL     1       1.831  17.405  18.072  0.00  0.00    +0.000 A 
ATOM     19  C   UNL     1       2.234  16.232  18.699  0.00  0.00    +0.000 A 
ENDBRANCH   1  13
BRANCH   4  20
ATOM     20  N   UNL     1       1.538   8.409  17.881  0.00  0.00    +0.000 N 
ATOM     21  H   UNL     1       0.826   7.690  17.793  0.00  0.00    +0.000 HD
BRANCH  20  22
ATOM     22  C   UNL     1       2.773   7.980  18.532  0.00  0.00    +0.000 C 
ATOM     23  C   UNL     1       2.433   7.357  19.894  0.00  0.00    +0.000 C 
ATOM     24  C   UNL     1       2.372   5.859  19.632  0.00  0.00    +0.000 C 
ATOM     25  C   UNL     1       3.514   5.609  18.640  0.00  0.00    +0.000 C 
ATOM     26  C   UNL     1       3.422   6.835  17.716  0.00  0.00    +0.000 C 
BRANCH  24  27
ATOM     27  O   UNL     1       2.443   5.113  20.832  0.00  0.00    +0.000 OA
ATOM     28  H   UNL     1       2.579   5.727  21.573  0.00  0.00    +0.000 HD
ENDBRANCH  24  27
BRANCH  25  29
ATOM     29  C   UNL     1       4.912   5.460  19.249  0.00  0.00    +0.000 C 
BRANCH  29  30
ATOM     30  O   UNL     1       5.820   4.970  18.269  0.00  0.00    +0.000 OA
BRANCH  30  31
ATOM     31  S   UNL     1       7.375   5.404  18.410  0.00  0.00    +0.000 S 
ATOM     32  O   UNL     1       8.191   4.322  17.915  0.00  0.00    +0.000 OA
ATOM     33  O   UNL     1       7.495   6.759  17.935  0.00  0.00    +0.000 OA
BRANCH  31  34
ATOM     34  N   UNL     1       7.585   5.456  20.066  0.00  0.00    +0.000 NA
ATOM     35  H   UNL     1       6.922   6.091  20.506  0.00  0.00    +0.000 HD
ATOM     36  H   UNL     1       8.557   5.622  20.316  0.00  0.00    +0.000 HD
ENDBRANCH  31  34
ENDBRANCH  30  31
ENDBRANCH  29  30
ENDBRANCH  25  29
ENDBRANCH  20  22
ENDBRANCH   4  20
TORSDOF 8
ENDMDL
MODEL 5
REMARK VINA RESULT:      -7.4      6.619      9.186
REMARK  Name = 
REMARK  10 active torsions:
REMARK  status: ('A' for Active; 'I' for Inactive)
REMARK    1  A    between atoms: C_1  and  C_2
REMARK    2  A    between atoms: C_2  and  C_3
REMARK    3  A    between atoms: C_5  and  N_6
REMARK    4  A    between atoms: C_9  and  N_10
REMARK    5  A    between atoms: N_10  and  C_11
REMARK    6  A    between atoms: C_13  and  O_14
REMARK    7  A    between atoms: C_15  and  C_16
REMARK    8  A    between atoms: C_16  and  O_17
REMARK    9  A    between atoms: O_17  and  S_18
REMARK   10  A    between atoms: S_18  and  N_19
REMARK                            x       y       z     vdW  Elec       q    Type
REMARK                         _______ _______ _______ _____ _____    ______ ____
ROOT
ATOM      1  N   UNL     1      -0.837  11.042  19.848  0.00  0.00    +0.000 N 
ATOM      2  C   UNL     1       0.356  10.523  19.343  0.00  0.00    +0.000 A 
ATOM      3  C   UNL     1       0.663   9.217  19.678  0.00  0.00    +0.000 A 
ATOM      4  C   UNL     1       1.724   8.601  19.038  0.00  0.00    +0.000 A 
ATOM      5  N   UNL     1       2.512   9.278  18.192  0.00  0.00    +0.000 NA
ATOM      6  C   UNL     1       2.185  10.565  17.985  0.00  0.00    +0.000 A 
ATOM      7  N   UNL     1       1.128  11.221  18.497  0.00  0.00    +0.000 NA
ATOM      8  H   UNL     1      -0.836  11.101  20.856  0.00  0.00    +0.000 HD
ENDROOT
BRANCH   1  13
ATOM      9  C   UNL     1      -3.864  11.390  16.342  0.00  0.00    +0.000 C 
ATOM     10  C   UNL     1      -3.147  11.111  17.666  0.00  0.00    +0.000 C 
ATOM     11  C   UNL     1      -3.032   9.597  17.884  0.00  0.00    +0.000 C 
ATOM     12  C   UNL     1      -1.768  11.827  17.696  0.00  0.00    +0.000 C 
ATOM     13  C   UNL     1      -1.454  12.172  19.171  0.00  0.00    +0.000 C 
ATOM     14  C   UNL     1      -2.862  12.372  19.689  0.00  0.00    +0.000 A 
ATOM     15  C   UNL     1      -3.262  13.048  20.835  0.00  0.00    +0.000 A 
ATOM     16  C   UNL     1      -4.629  13.117  21.132  0.00  0.00    +0.000 A 
ATOM     17  C   UNL     1      -5.573  12.502  20.301  0.00  0.00    +0.000 A 
ATOM     18  C   UNL     1      -5.170  11.817  19.154  0.00  0.00    +0.000 A 
ATOM     19  C   UNL     1      -3.814  11.768  18.853  0.00  0.00    +0.000 A 
ENDBRANCH   1  13
BRANCH   4  20
ATOM     20  N   UNL     1       1.865   7.218  19.236  0.00  0.00    +0.000 N 
ATOM     21  H   UNL     1       1.390   6.940  20.090  0.00  0.00    +0.000 HD
BRANCH  20  22
ATOM     22  C   UNL     1       3.182   6.619  19.038  0.00  0.00    +0.000 C 
ATOM     23  C   UNL     1       3.294   5.355  19.903  0.00  0.00    +0.000 C 
ATOM     24  C   UNL     1       2.934   4.211  18.966  0.00  0.00    +0.000 C 
ATOM     25  C   UNL     1       3.576   4.608  17.632  0.00  0.00    +0.000 C 
ATOM     26  C   UNL     1       3.316   6.122  17.577  0.00  0.00    +0.000 C 
BRANCH  24  27
ATOM     27  O   UNL     1       3.344   2.960  19.483  0.00  0.00    +0.000 OA
ATOM     28  H   UNL     1       4.314   2.953  19.552  0.00  0.00    +0.000 HD
ENDBRANCH  24  27
BRANCH  25  29
ATOM     29  C   UNL     1       5.066   4.282  17.480  0.00  0.00    +0.000 C 
BRANCH  29  30
ATOM     30  O   UNL     1       5.527   4.698  16.200  0.00  0.00    +0.000 OA
BRANCH  30  31
ATOM     31  S   UNL     1       7.024   5.311  16.110  0.00  0.00    +0.000 S 
ATOM     32  O   UNL     1       7.492   5.159  14.753  0.00  0.00    +0.000 OA
ATOM     33  O   UNL     1       7.020   6.575  16.802  0.00  0.00    +0.000 OA
BRANCH  31  34
ATOM     34  N   UNL     1       7.905   4.251  17.052  0.00  0.00    +0.000 NA
ATOM     35  H   UNL     1       7.307   3.543  17.474  0.00  0.00    +0.000 HD
ATOM     36  H   UNL     1       8.506   4.743  17.710  0.00  0.00    +0.000 HD
ENDBRANCH  31  34
ENDBRANCH  30  31
ENDBRANCH  29  30
ENDBRANCH  25  29
ENDBRANCH  20  22
ENDBRANCH   4  20
TORSDOF 8
ENDMDL
MODEL 6
REMARK VINA RESULT:      -7.3      5.895      7.164
REMARK  Name = 
REMARK  10 active torsions:
REMARK  status: ('A' for Active; 'I' for Inactive)
REMARK    1  A    between atoms: C_1  and  C_2
REMARK    2  A    between atoms: C_2  and  C_3
REMARK    3  A    between atoms: C_5  and  N_6
REMARK    4  A    between atoms: C_9  and  N_10
REMARK    5  A    between atoms: N_10  and  C_11
REMARK    6  A    between atoms: C_13  and  O_14
REMARK    7  A    between atoms: C_15  and  C_16
REMARK    8  A    between atoms: C_16  and  O_17
REMARK    9  A    between atoms: O_17  and  S_18
REMARK   10  A    between atoms: S_18  and  N_19
REMARK                            x       y       z     vdW  Elec       q    Type
REMARK                         _______ _______ _______ _____ _____    ______ ____
ROOT
ATOM      1  N   UNL     1       2.076  13.081  18.700  0.00  0.00    +0.000 N 
ATOM      2  C   UNL     1       1.205  12.001  18.852  0.00  0.00    +0.000 A 
ATOM      3  C   UNL     1       1.542  10.826  18.205  0.00  0.00    +0.000 A 
ATOM      4  C   UNL     1       0.820   9.681  18.493  0.00  0.00    +0.000 A 
ATOM      5  N   UNL     1      -0.251   9.719  19.295  0.00  0.00    +0.000 NA
ATOM      6  C   UNL     1      -0.552  10.920  19.820  0.00  0.00    +0.000 A 
ATOM      7  N   UNL     1       0.137  12.064  19.662  0.00  0.00    +0.000 NA
ATOM      8  H   UNL     1       2.129  13.401  17.743  0.00  0.00    +0.000 HD
ENDROOT
BRANCH   1  13
ATOM      9  C   UNL     1       4.664  16.885  19.334  0.00  0.00    +0.000 C 
ATOM     10  C   UNL     1       3.713  15.802  18.816  0.00  0.00    +0.000 C 
ATOM     11  C   UNL     1       4.255  15.221  17.504  0.00  0.00    +0.000 C 
ATOM     12  C   UNL     1       3.487  14.715  19.904  0.00  0.00    +0.000 C 
ATOM     13  C   UNL     1       2.066  14.138  19.698  0.00  0.00    +0.000 C 
ATOM     14  C   UNL     1       1.375  15.363  19.138  0.00  0.00    +0.000 A 
ATOM     15  C   UNL     1       0.011  15.624  19.084  0.00  0.00    +0.000 A 
ATOM     16  C   UNL     1      -0.421  16.831  18.522  0.00  0.00    +0.000 A 
ATOM     17  C   UNL     1       0.502  17.751  18.007  0.00  0.00    +0.000 A 
ATOM     18  C   UNL     1       1.871  17.485  18.055  0.00  0.00    +0.000 A 
ATOM     19  C   UNL     1       2.296  16.294  18.632  0.00  0.00    +0.000 A 
ENDBRANCH   1  13
BRANCH   4  20
ATOM     20  N   UNL     1       1.328   8.471  17.992  0.00  0.00    +0.000 N 
ATOM     21  H   UNL     1       0.579   7.791  17.904  0.00  0.00    +0.000 HD
BRANCH  20  22
ATOM     22  C   UNL     1       2.571   7.953  18.558  0.00  0.00    +0.000 C 
ATOM     23  C   UNL     1       2.301   6.582  19.194  0.00  0.00    +0.000 C 
ATOM     24  C   UNL     1       2.688   5.574  18.121  0.00  0.00    +0.000 C 
ATOM     25  C   UNL     1       3.937   6.182  17.474  0.00  0.00    +0.000 C 
ATOM     26  C   UNL     1       3.587   7.679  17.422  0.00  0.00    +0.000 C 
BRANCH  24  27
ATOM     27  O   UNL     1       2.859   4.276  18.657  0.00  0.00    +0.000 OA
ATOM     28  H   UNL     1       3.705   4.245  19.135  0.00  0.00    +0.000 HD
ENDBRANCH  24  27
BRANCH  25  29
ATOM     29  C   UNL     1       5.261   5.935  18.206  0.00  0.00    +0.000 C 
BRANCH  29  30
ATOM     30  O   UNL     1       5.808   4.682  17.811  0.00  0.00    +0.000 OA
BRANCH  30  31
ATOM     31  S   UNL     1       7.026   4.704  16.742  0.00  0.00    +0.000 S 
ATOM     32  O   UNL     1       6.727   3.755  15.698  0.00  0.00    +0.000 OA
ATOM     33  O   UNL     1       7.352   6.084  16.481  0.00  0.00    +0.000 OA
BRANCH  31  34
ATOM     34  N   UNL     1       8.293   4.073  17.628  0.00  0.00    +0.000 NA
ATOM     35  H   UNL     1       9.126   3.955  17.055  0.00  0.00    +0.000 HD
ATOM     36  H   UNL     1       8.014   3.240  18.142  0.00  0.00    +0.000 HD
ENDBRANCH  31  34
ENDBRANCH  30  31
ENDBRANCH  29  30
ENDBRANCH  25  29
ENDBRANCH  20  22
ENDBRANCH   4  20
TORSDOF 8
ENDMDL
MODEL 7
REMARK VINA RESULT:      -7.3      6.414      8.079
REMARK  Name = 
REMARK  10 active torsions:
REMARK  status: ('A' for Active; 'I' for Inactive)
REMARK    1  A    between atoms: C_1  and  C_2
REMARK    2  A    between atoms: C_2  and  C_3
REMARK    3  A    between atoms: C_5  and  N_6
REMARK    4  A    between atoms: C_9  and  N_10
REMARK    5  A    between atoms: N_10  and  C_11
REMARK    6  A    between atoms: C_13  and  O_14
REMARK    7  A    between atoms: C_15  and  C_16
REMARK    8  A    between atoms: C_16  and  O_17
REMARK    9  A    between atoms: O_17  and  S_18
REMARK   10  A    between atoms: S_18  and  N_19
REMARK                            x       y       z     vdW  Elec       q    Type
REMARK                         _______ _______ _______ _____ _____    ______ ____
ROOT
ATOM      1  N   UNL     1      -0.098  10.968  20.033  0.00  0.00    +0.000 N 
ATOM      2  C   UNL     1       0.820  10.040  19.539  0.00  0.00    +0.000 A 
ATOM      3  C   UNL     1       1.195   9.015  20.388  0.00  0.00    +0.000 A 
ATOM      4  C   UNL     1       1.940   7.968  19.874  0.00  0.00    +0.000 A 
ATOM      5  N   UNL     1       2.387   7.989  18.612  0.00  0.00    +0.000 NA
ATOM      6  C   UNL     1       2.039   9.062  17.881  0.00  0.00    +0.000 A 
ATOM      7  N   UNL     1       1.253  10.082  18.271  0.00  0.00    +0.000 NA
ATOM      8  H   UNL     1       0.266  11.494  20.815  0.00  0.00    +0.000 HD
ENDROOT
BRANCH   1  13
ATOM      9  C   UNL     1      -4.050  13.379  20.419  0.00  0.00    +0.000 C 
ATOM     10  C   UNL     1      -2.622  12.835  20.528  0.00  0.00    +0.000 C 
ATOM     11  C   UNL     1      -2.356  12.362  21.963  0.00  0.00    +0.000 C 
ATOM     12  C   UNL     1      -2.388  11.716  19.476  0.00  0.00    +0.000 C 
ATOM     13  C   UNL     1      -0.889  11.744  19.091  0.00  0.00    +0.000 C 
ATOM     14  C   UNL     1      -0.607  13.218  19.280  0.00  0.00    +0.000 A 
ATOM     15  C   UNL     1       0.445  13.960  18.758  0.00  0.00    +0.000 A 
ATOM     16  C   UNL     1       0.518  15.326  19.057  0.00  0.00    +0.000 A 
ATOM     17  C   UNL     1      -0.439  15.930  19.882  0.00  0.00    +0.000 A 
ATOM     18  C   UNL     1      -1.492  15.183  20.411  0.00  0.00    +0.000 A 
ATOM     19  C   UNL     1      -1.572  13.832  20.095  0.00  0.00    +0.000 A 
ENDBRANCH   1  13
BRANCH   4  20
ATOM     20  N   UNL     1       2.109   6.847  20.702  0.00  0.00    +0.000 N 
ATOM     21  H   UNL     1       2.637   7.104  21.531  0.00  0.00    +0.000 HD
BRANCH  20  22
ATOM     22  C   UNL     1       2.502   5.582  20.087  0.00  0.00    +0.000 C 
ATOM     23  C   UNL     1       2.424   4.465  21.138  0.00  0.00    +0.000 C 
ATOM     24  C   UNL     1       1.058   3.829  20.928  0.00  0.00    +0.000 C 
ATOM     25  C   UNL     1       0.880   3.826  19.406  0.00  0.00    +0.000 C 
ATOM     26  C   UNL     1       1.470   5.187  19.001  0.00  0.00    +0.000 C 
BRANCH  24  27
ATOM     27  O   UNL     1       0.969   2.561  21.548  0.00  0.00    +0.000 OA
ATOM     28  H   UNL     1       1.838   2.128  21.500  0.00  0.00    +0.000 HD
ENDBRANCH  24  27
BRANCH  25  29
ATOM     29  C   UNL     1       1.549   2.671  18.654  0.00  0.00    +0.000 C 
BRANCH  29  30
ATOM     30  O   UNL     1       2.497   2.026  19.497  0.00  0.00    +0.000 OA
BRANCH  30  31
ATOM     31  S   UNL     1       4.052   2.070  19.041  0.00  0.00    +0.000 S 
ATOM     32  O   UNL     1       4.199   3.102  18.044  0.00  0.00    +0.000 OA
ATOM     33  O   UNL     1       4.858   2.008  20.233  0.00  0.00    +0.000 OA
BRANCH  31  34
ATOM     34  N   UNL     1       4.239   0.606  18.260  0.00  0.00    +0.000 NA
ATOM     35  H   UNL     1       3.344   0.142  18.118  0.00  0.00    +0.000 HD
ATOM     36  H   UNL     1       4.947   0.029  18.709  0.00  0.00    +0.000 HD
ENDBRANCH  31  34
ENDBRANCH  30  31
ENDBRANCH  29  30
ENDBRANCH  25  29
ENDBRANCH  20  22
ENDBRANCH   4  20
TORSDOF 8
ENDMDL
MODEL 8
REMARK VINA RESULT:      -7.3      6.722      7.881
REMARK  Name = 
REMARK  10 active torsions:
REMARK  status: ('A' for Active; 'I' for Inactive)
REMARK    1  A    between atoms: C_1  and  C_2
REMARK    2  A    between atoms: C_2  and  C_3
REMARK    3  A    between atoms: C_5  and  N_6
REMARK    4  A    between atoms: C_9  and  N_10
REMARK    5  A    between atoms: N_10  and  C_11
REMARK    6  A    between atoms: C_13  and  O_14
REMARK    7  A    between atoms: C_15  and  C_16
REMARK    8  A    between atoms: C_16  and  O_17
REMARK    9  A    between atoms: O_17  and  S_18
REMARK   10  A    between atoms: S_18  and  N_19
REMARK                            x       y       z     vdW  Elec       q    Type
REMARK                         _______ _______ _______ _____ _____    ______ ____
ROOT
ATOM      1  N   UNL     1       0.651  12.138  20.291  0.00  0.00    +0.000 N 
ATOM      2  C   UNL     1       0.844  10.802  20.644  0.00  0.00    +0.000 A 
ATOM      3  C   UNL     1       1.036   9.901  19.613  0.00  0.00    +0.000 A 
ATOM      4  C   UNL     1       1.431   8.612  19.924  0.00  0.00    +0.000 A 
ATOM      5  N   UNL     1       1.524   8.202  21.195  0.00  0.00    +0.000 NA
ATOM      6  C   UNL     1       1.245   9.124  22.134  0.00  0.00    +0.000 A 
ATOM      7  N   UNL     1       0.934  10.416  21.926  0.00  0.00    +0.000 NA
ATOM      8  H   UNL     1      -0.196  12.278  19.759  0.00  0.00    +0.000 HD
ENDROOT
BRANCH   1  13
ATOM      9  C   UNL     1       0.544  16.780  20.148  0.00  0.00    +0.000 C 
ATOM     10  C   UNL     1       0.219  15.283  20.134  0.00  0.00    +0.000 C 
ATOM     11  C   UNL     1      -0.287  14.875  18.744  0.00  0.00    +0.000 C 
ATOM     12  C   UNL     1       1.456  14.457  20.586  0.00  0.00    +0.000 C 
ATOM     13  C   UNL     1       0.932  13.172  21.273  0.00  0.00    +0.000 C 
ATOM     14  C   UNL     1      -0.366  13.702  21.844  0.00  0.00    +0.000 A 
ATOM     15  C   UNL     1      -1.130  13.162  22.871  0.00  0.00    +0.000 A 
ATOM     16  C   UNL     1      -2.307  13.819  23.249  0.00  0.00    +0.000 A 
ATOM     17  C   UNL     1      -2.717  14.987  22.594  0.00  0.00    +0.000 A 
ATOM     18  C   UNL     1      -1.953  15.525  21.558  0.00  0.00    +0.000 A 
ATOM     19  C   UNL     1      -0.774  14.880  21.199  0.00  0.00    +0.000 A 
ENDBRANCH   1  13
BRANCH   4  20
ATOM     20  N   UNL     1       1.830   7.797  18.852  0.00  0.00    +0.000 N 
ATOM     21  H   UNL     1       1.014   7.478  18.337  0.00  0.00    +0.000 HD
BRANCH  20  22
ATOM     22  C   UNL     1       2.845   6.776  19.096  0.00  0.00    +0.000 C 
ATOM     23  C   UNL     1       2.152   5.435  19.378  0.00  0.00    +0.000 C 
ATOM     24  C   UNL     1       2.141   4.715  18.037  0.00  0.00    +0.000 C 
ATOM     25  C   UNL     1       3.499   5.064  17.417  0.00  0.00    +0.000 C 
ATOM     26  C   UNL     1       3.670   6.542  17.806  0.00  0.00    +0.000 C 
BRANCH  24  27
ATOM     27  O   UNL     1       1.885   3.332  18.186  0.00  0.00    +0.000 OA
ATOM     28  H   UNL     1       2.437   2.842  17.553  0.00  0.00    +0.000 HD
ENDBRANCH  24  27
BRANCH  25  29
ATOM     29  C   UNL     1       4.687   4.214  17.880  0.00  0.00    +0.000 C 
BRANCH  29  30
ATOM     30  O   UNL     1       5.877   4.994  17.867  0.00  0.00    +0.000 OA
BRANCH  30  31
ATOM     31  S   UNL     1       7.006   4.613  16.769  0.00  0.00    +0.000 S 
ATOM     32  O   UNL     1       8.195   4.194  17.472  0.00  0.00    +0.000 OA
ATOM     33  O   UNL     1       6.372   3.813  15.751  0.00  0.00    +0.000 OA
BRANCH  31  34
ATOM     34  N   UNL     1       7.346   6.092  16.073  0.00  0.00    +0.000 NA
ATOM     35  H   UNL     1       7.596   5.994  15.092  0.00  0.00    +0.000 HD
ATOM     36  H   UNL     1       8.013   6.623  16.628  0.00  0.00    +0.000 HD
ENDBRANCH  31  34
ENDBRANCH  30  31
ENDBRANCH  29  30
ENDBRANCH  25  29
ENDBRANCH  20  22
ENDBRANCH   4  20
TORSDOF 8
ENDMDL
MODEL 9
REMARK VINA RESULT:      -7.3      6.205      7.543
REMARK  Name = 
REMARK  10 active torsions:
REMARK  status: ('A' for Active; 'I' for Inactive)
REMARK    1  A    between atoms: C_1  and  C_2
REMARK    2  A    between atoms: C_2  and  C_3
REMARK    3  A    between atoms: C_5  and  N_6
REMARK    4  A    between atoms: C_9  and  N_10
REMARK    5  A    between atoms: N_10  and  C_11
REMARK    6  A    between atoms: C_13  and  O_14
REMARK    7  A    between atoms: C_15  and  C_16
REMARK    8  A    between atoms: C_16  and  O_17
REMARK    9  A    between atoms: O_17  and  S_18
REMARK   10  A    between atoms: S_18  and  N_19
REMARK                            x       y       z     vdW  Elec       q    Type
REMARK                         _______ _______ _______ _____ _____    ______ ____
ROOT
ATOM      1  N   UNL     1       0.439  13.220  19.077  0.00  0.00    +0.000 N 
ATOM      2  C   UNL     1       0.421  11.960  19.678  0.00  0.00    +0.000 A 
ATOM      3  C   UNL     1       0.648  10.871  18.857  0.00  0.00    +0.000 A 
ATOM      4  C   UNL     1       0.840   9.630  19.440  0.00  0.00    +0.000 A 
ATOM      5  N   UNL     1       0.704   9.456  20.761  0.00  0.00    +0.000 NA
ATOM      6  C   UNL     1       0.407  10.558  21.473  0.00  0.00    +0.000 A 
ATOM      7  N   UNL     1       0.283  11.811  21.003  0.00  0.00    +0.000 NA
ATOM      8  H   UNL     1      -0.303  13.336  18.401  0.00  0.00    +0.000 HD
ENDROOT
BRANCH   1  13
ATOM      9  C   UNL     1       4.198  15.861  19.762  0.00  0.00    +0.000 C 
ATOM     10  C   UNL     1       2.986  15.118  19.194  0.00  0.00    +0.000 C 
ATOM     11  C   UNL     1       3.444  14.123  18.119  0.00  0.00    +0.000 C 
ATOM     12  C   UNL     1       2.184  14.435  20.337  0.00  0.00    +0.000 C 
ATOM     13  C   UNL     1       0.700  14.388  19.903  0.00  0.00    +0.000 C 
ATOM     14  C   UNL     1       0.646  15.638  19.051  0.00  0.00    +0.000 A 
ATOM     15  C   UNL     1      -0.476  16.362  18.666  0.00  0.00    +0.000 A 
ATOM     16  C   UNL     1      -0.301  17.501  17.871  0.00  0.00    +0.000 A 
ATOM     17  C   UNL     1       0.977  17.894  17.455  0.00  0.00    +0.000 A 
ATOM     18  C   UNL     1       2.103  17.163  17.836  0.00  0.00    +0.000 A 
ATOM     19  C   UNL     1       1.926  16.044  18.642  0.00  0.00    +0.000 A 
ENDBRANCH   1  13
BRANCH   4  20
ATOM     20  N   UNL     1       1.287   8.599  18.599  0.00  0.00    +0.000 N 
ATOM     21  H   UNL     1       0.539   7.926  18.449  0.00  0.00    +0.000 HD
BRANCH  20  22
ATOM     22  C   UNL     1       2.601   8.016  18.852  0.00  0.00    +0.000 C 
ATOM     23  C   UNL     1       2.423   6.628  19.485  0.00  0.00    +0.000 C 
ATOM     24  C   UNL     1       2.518   5.655  18.318  0.00  0.00    +0.000 C 
ATOM     25  C   UNL     1       3.615   6.249  17.428  0.00  0.00    +0.000 C 
ATOM     26  C   UNL     1       3.325   7.757  17.508  0.00  0.00    +0.000 C 
BRANCH  24  27
ATOM     27  O   UNL     1       2.750   4.331  18.757  0.00  0.00    +0.000 OA
ATOM     28  H   UNL     1       2.718   4.314  19.728  0.00  0.00    +0.000 HD
ENDBRANCH  24  27
BRANCH  25  29
ATOM     29  C   UNL     1       5.057   5.927  17.834  0.00  0.00    +0.000 C 
BRANCH  29  30
ATOM     30  O   UNL     1       5.686   5.152  16.819  0.00  0.00    +0.000 OA
BRANCH  30  31
ATOM     31  S   UNL     1       7.262   5.417  16.549  0.00  0.00    +0.000 S 
ATOM     32  O   UNL     1       7.531   6.815  16.785  0.00  0.00    +0.000 OA
ATOM     33  O   UNL     1       7.999   4.356  17.188  0.00  0.00    +0.000 OA
BRANCH  31  34
ATOM     34  N   UNL     1       7.392   5.167  14.903  0.00  0.00    +0.000 NA
ATOM     35  H   UNL     1       6.595   4.647  14.541  0.00  0.00    +0.000 HD
ATOM     36  H   UNL     1       8.299   4.777  14.653  0.00  0.00    +0.000 HD
ENDBRANCH  31  34
ENDBRANCH  30  31
ENDBRANCH  29  30
ENDBRANCH  25  29
ENDBRANCH  20  22
ENDBRANCH   4  20
TORSDOF 8
ENDMDL
