MODEL 1
REMARK VINA RESULT:      -8.0      0.000      0.000
REMARK  Name = 
REMARK  2 active torsions:
REMARK  status: ('A' for Active; 'I' for Inactive)
REMARK    1  A    between atoms: C_1  and  N_2
REMARK    2  A    between atoms: C_15  and  C_16
REMARK                            x       y       z     vdW  Elec       q    Type
REMARK                         _______ _______ _______ _____ _____    ______ ____
ROOT
ATOM      1  C   UNL     1       7.468   4.926  14.158  0.00  0.00    +0.000 C 
ATOM      2  N   UNL     1       6.812   5.191  15.406  0.00  0.00    +0.000 N 
ATOM      3  N   UNL     1       7.220   4.663  16.601  0.00  0.00    +0.000 NA
ATOM      4  C   UNL     1       6.342   5.112  17.453  0.00  0.00    +0.000 A 
ATOM      5  N   UNL     1       5.371   5.893  16.921  0.00  0.00    +0.000 N 
ATOM      6  C   UNL     1       5.664   5.970  15.574  0.00  0.00    +0.000 A 
ATOM      7  O   UNL     1       5.057   6.550  14.688  0.00  0.00    +0.000 OA
ATOM      8  C   UNL     1       4.322   6.536  17.607  0.00  0.00    +0.000 A 
ATOM      9  C   UNL     1       3.807   7.746  17.105  0.00  0.00    +0.000 A 
ATOM     10  C   UNL     1       2.803   8.445  17.778  0.00  0.00    +0.000 A 
ATOM     11  C   UNL     1       2.300   7.950  18.973  0.00  0.00    +0.000 A 
ATOM     12 CL   UNL     1       1.042   8.789  19.788  0.00  0.00    +0.000 Cl
ATOM     13  C   UNL     1       2.787   6.756  19.492  0.00  0.00    +0.000 A 
ATOM     14  C   UNL     1       3.769   6.023  18.798  0.00  0.00    +0.000 A 
ATOM     15  C   UNL     1       4.072   4.638  19.289  0.00  0.00    +0.000 C 
ATOM     16  N   UNL     1       5.251   4.115  19.358  0.00  0.00    +0.000 NA
ATOM     17  C   UNL     1       6.415   4.879  18.934  0.00  0.00    +0.000 C 
ENDROOT
BRANCH  15  18
ATOM     18  C   UNL     1       2.921   3.785  19.745  0.00  0.00    +0.000 A 
ATOM     19  C   UNL     1       2.017   3.234  18.826  0.00  0.00    +0.000 A 
ATOM     20  C   UNL     1       0.891   2.546  19.278  0.00  0.00    +0.000 A 
ATOM     21  C   UNL     1       0.685   2.370  20.646  0.00  0.00    +0.000 A 
ATOM     22  C   UNL     1       1.615   2.862  21.563  0.00  0.00    +0.000 A 
ATOM     23  C   UNL     1       2.733   3.566  21.115  0.00  0.00    +0.000 A 
ENDBRANCH  15  18
TORSDOF 1
ENDMDL
MODEL 2
REMARK VINA RESULT:      -7.8      0.156      1.019
REMARK  Name = 
REMARK  2 active torsions:
REMARK  status: ('A' for Active; 'I' for Inactive)
REMARK    1  A    between atoms: C_1  and  N_2
REMARK    2  A    between atoms: C_15  and  C_16
REMARK                            x       y       z     vdW  Elec       q    Type
REMARK                         _______ _______ _______ _____ _____    ______ ____
ROOT
ATOM      1  C   UNL     1       7.443   4.987  14.276  0.00  0.00    +0.000 C 
ATOM      2  N   UNL     1       6.764   5.251  15.512  0.00  0.00    +0.000 N 
ATOM      3  N   UNL     1       7.143   4.714  16.713  0.00  0.00    +0.000 NA
ATOM      4  C   UNL     1       6.253   5.167  17.550  0.00  0.00    +0.000 A 
ATOM      5  N   UNL     1       5.300   5.959  17.003  0.00  0.00    +0.000 N 
ATOM      6  C   UNL     1       5.620   6.040  15.661  0.00  0.00    +0.000 A 
ATOM      7  O   UNL     1       5.036   6.630  14.767  0.00  0.00    +0.000 OA
ATOM      8  C   UNL     1       4.243   6.608  17.671  0.00  0.00    +0.000 A 
ATOM      9  C   UNL     1       3.750   7.825  17.165  0.00  0.00    +0.000 A 
ATOM     10  C   UNL     1       2.739   8.531  17.822  0.00  0.00    +0.000 A 
ATOM     11  C   UNL     1       2.208   8.034  19.004  0.00  0.00    +0.000 A 
ATOM     12 CL   UNL     1       0.942   8.881  19.798  0.00  0.00    +0.000 Cl
ATOM     13  C   UNL     1       2.674   6.833  19.527  0.00  0.00    +0.000 A 
ATOM     14  C   UNL     1       3.663   6.094  18.848  0.00  0.00    +0.000 A 
ATOM     15  C   UNL     1       3.943   4.704  19.337  0.00  0.00    +0.000 C 
ATOM     16  N   UNL     1       5.116   4.171  19.427  0.00  0.00    +0.000 NA
ATOM     17  C   UNL     1       6.295   4.926  19.030  0.00  0.00    +0.000 C 
ENDROOT
BRANCH  15  18
ATOM     18  C   UNL     1       2.776   3.859  19.766  0.00  0.00    +0.000 A 
ATOM     19  C   UNL     1       2.579   3.524  21.113  0.00  0.00    +0.000 A 
ATOM     20  C   UNL     1       1.559   2.643  21.473  0.00  0.00    +0.000 A 
ATOM     21  C   UNL     1       0.708   2.127  20.497  0.00  0.00    +0.000 A 
ATOM     22  C   UNL     1       0.861   2.506  19.163  0.00  0.00    +0.000 A 
ATOM     23  C   UNL     1       1.891   3.374  18.797  0.00  0.00    +0.000 A 
ENDBRANCH  15  18
TORSDOF 1
ENDMDL
MODEL 3
REMARK VINA RESULT:      -6.5      6.990      9.400
REMARK  Name = 
REMARK  2 active torsions:
REMARK  status: ('A' for Active; 'I' for Inactive)
REMARK    1  A    between atoms: C_1  and  N_2
REMARK    2  A    between atoms: C_15  and  C_16
REMARK                            x       y       z     vdW  Elec       q    Type
REMARK                         _______ _______ _______ _____ _____    ______ ____
ROOT
ATOM      1  C   UNL     1      -6.225  11.929  19.983  0.00  0.00    +0.000 C 
ATOM      2  N   UNL     1      -4.885  11.954  19.472  0.00  0.00    +0.000 N 
ATOM      3  N   UNL     1      -4.502  11.316  18.323  0.00  0.00    +0.000 NA
ATOM      4  C   UNL     1      -3.222  11.553  18.250  0.00  0.00    +0.000 A 
ATOM      5  N   UNL     1      -2.715  12.292  19.265  0.00  0.00    +0.000 N 
ATOM      6  C   UNL     1      -3.793  12.579  20.080  0.00  0.00    +0.000 A 
ATOM      7  O   UNL     1      -3.819  13.206  21.127  0.00  0.00    +0.000 OA
ATOM      8  C   UNL     1      -1.384  12.725  19.423  0.00  0.00    +0.000 A 
ATOM      9  C   UNL     1      -1.125  13.930  20.101  0.00  0.00    +0.000 A 
ATOM     10  C   UNL     1       0.174  14.425  20.238  0.00  0.00    +0.000 A 
ATOM     11  C   UNL     1       1.239  13.725  19.689  0.00  0.00    +0.000 A 
ATOM     12 CL   UNL     1       2.843  14.311  19.883  0.00  0.00    +0.000 Cl
ATOM     13  C   UNL     1       1.015  12.529  19.016  0.00  0.00    +0.000 A 
ATOM     14  C   UNL     1      -0.287  12.002  18.912  0.00  0.00    +0.000 A 
ATOM     15  C   UNL     1      -0.425  10.603  18.388  0.00  0.00    +0.000 C 
ATOM     16  N   UNL     1      -1.344  10.202  17.574  0.00  0.00    +0.000 NA
ATOM     17  C   UNL     1      -2.357  11.133  17.098  0.00  0.00    +0.000 C 
ENDROOT
BRANCH  15  18
ATOM     18  C   UNL     1       0.584   9.581  18.833  0.00  0.00    +0.000 A 
ATOM     19  C   UNL     1       1.466   8.986  17.920  0.00  0.00    +0.000 A 
ATOM     20  C   UNL     1       2.311   7.957  18.333  0.00  0.00    +0.000 A 
ATOM     21  C   UNL     1       2.308   7.545  19.665  0.00  0.00    +0.000 A 
ATOM     22  C   UNL     1       1.477   8.176  20.591  0.00  0.00    +0.000 A 
ATOM     23  C   UNL     1       0.617   9.195  20.178  0.00  0.00    +0.000 A 
ENDBRANCH  15  18
TORSDOF 1
ENDMDL
MODEL 4
REMARK VINA RESULT:      -6.5      6.171      8.394
REMARK  Name = 
REMARK  2 active torsions:
REMARK  status: ('A' for Active; 'I' for Inactive)
REMARK    1  A    between atoms: C_1  and  N_2
REMARK    2  A    between atoms: C_15  and  C_16
REMARK                            x       y       z     vdW  Elec       q    Type
REMARK                         _______ _______ _______ _____ _____    ______ ____
ROOT
ATOM      1  C   UNL     1       0.900  15.889  21.684  0.00  0.00    +0.000 C 
ATOM      2  N   UNL     1       0.438  14.575  21.338  0.00  0.00    +0.000 N 
ATOM      3  N   UNL     1       0.441  13.520  22.210  0.00  0.00    +0.000 NA
ATOM      4  C   UNL     1      -0.008  12.527  21.495  0.00  0.00    +0.000 A 
ATOM      5  N   UNL     1      -0.303  12.832  20.208  0.00  0.00    +0.000 N 
ATOM      6  C   UNL     1      -0.028  14.180  20.082  0.00  0.00    +0.000 A 
ATOM      7  O   UNL     1      -0.125  14.894  19.097  0.00  0.00    +0.000 OA
ATOM      8  C   UNL     1      -0.833  11.971  19.228  0.00  0.00    +0.000 A 
ATOM      9  C   UNL     1      -1.648  12.501  18.211  0.00  0.00    +0.000 A 
ATOM     10  C   UNL     1      -2.237  11.679  17.247  0.00  0.00    +0.000 A 
ATOM     11  C   UNL     1      -2.028  10.308  17.289  0.00  0.00    +0.000 A 
ATOM     12 CL   UNL     1      -2.723   9.296  16.086  0.00  0.00    +0.000 Cl
ATOM     13  C   UNL     1      -1.225   9.756  18.280  0.00  0.00    +0.000 A 
ATOM     14  C   UNL     1      -0.593  10.582  19.230  0.00  0.00    +0.000 A 
ATOM     15  C   UNL     1       0.441   9.950  20.115  0.00  0.00    +0.000 C 
ATOM     16  N   UNL     1       0.591  10.195  21.374  0.00  0.00    +0.000 NA
ATOM     17  C   UNL     1      -0.276  11.155  22.041  0.00  0.00    +0.000 C 
ENDROOT
BRANCH  15  18
ATOM     18  C   UNL     1       1.377   8.947  19.500  0.00  0.00    +0.000 A 
ATOM     19  C   UNL     1       1.917   9.146  18.222  0.00  0.00    +0.000 A 
ATOM     20  C   UNL     1       2.687   8.149  17.624  0.00  0.00    +0.000 A 
ATOM     21  C   UNL     1       2.953   6.967  18.313  0.00  0.00    +0.000 A 
ATOM     22  C   UNL     1       2.470   6.789  19.610  0.00  0.00    +0.000 A 
ATOM     23  C   UNL     1       1.685   7.778  20.205  0.00  0.00    +0.000 A 
ENDBRANCH  15  18
TORSDOF 1
ENDMDL
MODEL 5
REMARK VINA RESULT:      -6.4      6.014      8.223
REMARK  Name = 
REMARK  2 active torsions:
REMARK  status: ('A' for Active; 'I' for Inactive)
REMARK    1  A    between atoms: C_1  and  N_2
REMARK    2  A    between atoms: C_15  and  C_16
REMARK                            x       y       z     vdW  Elec       q    Type
REMARK                         _______ _______ _______ _____ _____    ______ ____
ROOT
ATOM      1  C   UNL     1       1.752  15.974  21.121  0.00  0.00    +0.000 C 
ATOM      2  N   UNL     1       1.140  14.693  20.911  0.00  0.00    +0.000 N 
ATOM      3  N   UNL     1       1.091  13.714  21.865  0.00  0.00    +0.000 NA
ATOM      4  C   UNL     1       0.500  12.722  21.261  0.00  0.00    +0.000 A 
ATOM      5  N   UNL     1       0.157  12.956  19.971  0.00  0.00    +0.000 N 
ATOM      6  C   UNL     1       0.559  14.253  19.719  0.00  0.00    +0.000 A 
ATOM      7  O   UNL     1       0.473  14.896  18.684  0.00  0.00    +0.000 OA
ATOM      8  C   UNL     1      -0.517  12.083  19.095  0.00  0.00    +0.000 A 
ATOM      9  C   UNL     1      -1.336  12.616  18.083  0.00  0.00    +0.000 A 
ATOM     10  C   UNL     1      -2.064  11.789  17.224  0.00  0.00    +0.000 A 
ATOM     11  C   UNL     1      -1.992  10.411  17.369  0.00  0.00    +0.000 A 
ATOM     12 CL   UNL     1      -2.859   9.389  16.294  0.00  0.00    +0.000 Cl
ATOM     13  C   UNL     1      -1.189   9.855  18.358  0.00  0.00    +0.000 A 
ATOM     14  C   UNL     1      -0.418  10.681  19.200  0.00  0.00    +0.000 A 
ATOM     15  C   UNL     1       0.600  10.013  20.077  0.00  0.00    +0.000 C 
ATOM     16  N   UNL     1       0.852  10.337  21.301  0.00  0.00    +0.000 NA
ATOM     17  C   UNL     1       0.129  11.432  21.932  0.00  0.00    +0.000 C 
ENDROOT
BRANCH  15  18
ATOM     18  C   UNL     1       1.389   8.872  19.498  0.00  0.00    +0.000 A 
ATOM     19  C   UNL     1       1.639   7.711  20.242  0.00  0.00    +0.000 A 
ATOM     20  C   UNL     1       2.472   6.717  19.729  0.00  0.00    +0.000 A 
ATOM     21  C   UNL     1       3.025   6.859  18.458  0.00  0.00    +0.000 A 
ATOM     22  C   UNL     1       2.729   7.984  17.688  0.00  0.00    +0.000 A 
ATOM     23  C   UNL     1       1.910   8.990  18.204  0.00  0.00    +0.000 A 
ENDBRANCH  15  18
TORSDOF 1
ENDMDL
MODEL 6
REMARK VINA RESULT:      -6.3      7.340      9.669
REMARK  Name = 
REMARK  2 active torsions:
REMARK  status: ('A' for Active; 'I' for Inactive)
REMARK    1  A    between atoms: C_1  and  N_2
REMARK    2  A    between atoms: C_15  and  C_16
REMARK                            x       y       z     vdW  Elec       q    Type
REMARK                         _______ _______ _______ _____ _____    ______ ____
ROOT
ATOM      1  C   UNL     1      -6.950  11.221  18.342  0.00  0.00    +0.000 C 
ATOM      2  N   UNL     1      -5.535  11.462  18.355  0.00  0.00    +0.000 N 
ATOM      3  N   UNL     1      -4.692  11.070  17.350  0.00  0.00    +0.000 NA
ATOM      4  C   UNL     1      -3.515  11.437  17.773  0.00  0.00    +0.000 A 
ATOM      5  N   UNL     1      -3.502  12.038  18.987  0.00  0.00    +0.000 N 
ATOM      6  C   UNL     1      -4.823  12.076  19.388  0.00  0.00    +0.000 A 
ATOM      7  O   UNL     1      -5.298  12.511  20.425  0.00  0.00    +0.000 OA
ATOM      8  C   UNL     1      -2.385  12.563  19.666  0.00  0.00    +0.000 A 
ATOM      9  C   UNL     1      -2.557  13.655  20.537  0.00  0.00    +0.000 A 
ATOM     10  C   UNL     1      -1.472  14.242  21.193  0.00  0.00    +0.000 A 
ATOM     11  C   UNL     1      -0.192  13.751  20.981  0.00  0.00    +0.000 A 
ATOM     12 CL   UNL     1       1.142  14.447  21.810  0.00  0.00    +0.000 Cl
ATOM     13  C   UNL     1       0.009  12.672  20.128  0.00  0.00    +0.000 A 
ATOM     14  C   UNL     1      -1.084  12.047  19.497  0.00  0.00    +0.000 A 
ATOM     15  C   UNL     1      -0.824  10.751  18.787  0.00  0.00    +0.000 C 
ATOM     16  N   UNL     1      -1.339  10.408  17.654  0.00  0.00    +0.000 NA
ATOM     17  C   UNL     1      -2.257  11.305  16.966  0.00  0.00    +0.000 C 
ENDROOT
BRANCH  15  18
ATOM     18  C   UNL     1       0.114   9.770  19.434  0.00  0.00    +0.000 A 
ATOM     19  C   UNL     1       1.209   9.243  18.735  0.00  0.00    +0.000 A 
ATOM     20  C   UNL     1       1.995   8.247  19.313  0.00  0.00    +0.000 A 
ATOM     21  C   UNL     1       1.717   7.803  20.605  0.00  0.00    +0.000 A 
ATOM     22  C   UNL     1       0.667   8.368  21.329  0.00  0.00    +0.000 A 
ATOM     23  C   UNL     1      -0.133   9.352  20.747  0.00  0.00    +0.000 A 
ENDBRANCH  15  18
TORSDOF 1
ENDMDL
MODEL 7
REMARK VINA RESULT:      -6.2      7.799      9.833
REMARK  Name = 
REMARK  2 active torsions:
REMARK  status: ('A' for Active; 'I' for Inactive)
REMARK    1  A    between atoms: C_1  and  N_2
REMARK    2  A    between atoms: C_15  and  C_16
REMARK                            x       y       z     vdW  Elec       q    Type
REMARK                         _______ _______ _______ _____ _____    ______ ____
ROOT
ATOM      1  C   UNL     1       1.351   9.305  18.333  0.00  0.00    +0.000 C 
ATOM      2  N   UNL     1       0.947  10.012  19.514  0.00  0.00    +0.000 N 
ATOM      3  N   UNL     1       0.549   9.391  20.668  0.00  0.00    +0.000 NA
ATOM      4  C   UNL     1       0.234  10.379  21.458  0.00  0.00    +0.000 A 
ATOM      5  N   UNL     1       0.380  11.614  20.921  0.00  0.00    +0.000 N 
ATOM      6  C   UNL     1       0.859  11.401  19.643  0.00  0.00    +0.000 A 
ATOM      7  O   UNL     1       1.125  12.219  18.777  0.00  0.00    +0.000 OA
ATOM      8  C   UNL     1       0.148  12.851  21.553  0.00  0.00    +0.000 A 
ATOM      9  C   UNL     1       0.894  13.978  21.161  0.00  0.00    +0.000 A 
ATOM     10  C   UNL     1       0.735  15.213  21.793  0.00  0.00    +0.000 A 
ATOM     11  C   UNL     1      -0.169  15.342  22.837  0.00  0.00    +0.000 A 
ATOM     12 CL   UNL     1      -0.393  16.867  23.597  0.00  0.00    +0.000 Cl
ATOM     13  C   UNL     1      -0.923  14.247  23.245  0.00  0.00    +0.000 A 
ATOM     14  C   UNL     1      -0.800  13.009  22.584  0.00  0.00    +0.000 A 
ATOM     15  C   UNL     1      -1.806  11.947  22.915  0.00  0.00    +0.000 C 
ATOM     16  N   UNL     1      -1.542  10.691  23.058  0.00  0.00    +0.000 NA
ATOM     17  C   UNL     1      -0.179  10.207  22.890  0.00  0.00    +0.000 C 
ENDROOT
BRANCH  15  18
ATOM     18  C   UNL     1      -3.238  12.367  23.104  0.00  0.00    +0.000 A 
ATOM     19  C   UNL     1      -3.854  12.300  24.361  0.00  0.00    +0.000 A 
ATOM     20  C   UNL     1      -5.213  12.582  24.490  0.00  0.00    +0.000 A 
ATOM     21  C   UNL     1      -5.953  12.970  23.375  0.00  0.00    +0.000 A 
ATOM     22  C   UNL     1      -5.331  13.099  22.133  0.00  0.00    +0.000 A 
ATOM     23  C   UNL     1      -3.974  12.801  21.996  0.00  0.00    +0.000 A 
ENDBRANCH  15  18
TORSDOF 1
ENDMDL
MODEL 8
REMARK VINA RESULT:      -6.2      8.409     10.972
REMARK  Name = 
REMARK  2 active torsions:
REMARK  status: ('A' for Active; 'I' for Inactive)
REMARK    1  A    between atoms: C_1  and  N_2
REMARK    2  A    between atoms: C_15  and  C_16
REMARK                            x       y       z     vdW  Elec       q    Type
REMARK                         _______ _______ _______ _____ _____    ______ ____
ROOT
ATOM      1  C   UNL     1      -4.377  15.238  24.349  0.00  0.00    +0.000 C 
ATOM      2  N   UNL     1      -3.454  14.552  23.491  0.00  0.00    +0.000 N 
ATOM      3  N   UNL     1      -2.837  15.141  22.421  0.00  0.00    +0.000 NA
ATOM      4  C   UNL     1      -2.132  14.176  21.901  0.00  0.00    +0.000 A 
ATOM      5  N   UNL     1      -2.235  12.983  22.534  0.00  0.00    +0.000 N 
ATOM      6  C   UNL     1      -3.093  13.207  23.593  0.00  0.00    +0.000 A 
ATOM      7  O   UNL     1      -3.497  12.418  24.433  0.00  0.00    +0.000 OA
ATOM      8  C   UNL     1      -1.564  11.787  22.213  0.00  0.00    +0.000 A 
ATOM      9  C   UNL     1      -1.260  10.870  23.236  0.00  0.00    +0.000 A 
ATOM     10  C   UNL     1      -0.551   9.695  22.975  0.00  0.00    +0.000 A 
ATOM     11  C   UNL     1      -0.124   9.421  21.683  0.00  0.00    +0.000 A 
ATOM     12 CL   UNL     1       0.719   7.961  21.349  0.00  0.00    +0.000 Cl
ATOM     13  C   UNL     1      -0.412  10.307  20.651  0.00  0.00    +0.000 A 
ATOM     14  C   UNL     1      -1.163  11.472  20.899  0.00  0.00    +0.000 A 
ATOM     15  C   UNL     1      -1.638  12.253  19.709  0.00  0.00    +0.000 C 
ATOM     16  N   UNL     1      -1.655  13.541  19.625  0.00  0.00    +0.000 NA
ATOM     17  C   UNL     1      -1.195  14.354  20.742  0.00  0.00    +0.000 C 
ENDROOT
BRANCH  15  18
ATOM     18  C   UNL     1      -2.129  11.486  18.513  0.00  0.00    +0.000 A 
ATOM     19  C   UNL     1      -3.443  11.633  18.045  0.00  0.00    +0.000 A 
ATOM     20  C   UNL     1      -3.911  10.825  17.010  0.00  0.00    +0.000 A 
ATOM     21  C   UNL     1      -3.061   9.897  16.411  0.00  0.00    +0.000 A 
ATOM     22  C   UNL     1      -1.735   9.790  16.831  0.00  0.00    +0.000 A 
ATOM     23  C   UNL     1      -1.267  10.584  17.878  0.00  0.00    +0.000 A 
ENDBRANCH  15  18
TORSDOF 1
ENDMDL
MODEL 9
REMARK VINA RESULT:      -6.1      7.103      9.585
REMARK  Name = 
REMARK  2 active torsions:
REMARK  status: ('A' for Active; 'I' for Inactive)
REMARK    1  A    between atoms: C_1  and  N_2
REMARK    2  A    between atoms: C_15  and  C_16
REMARK                            x       y       z     vdW  Elec       q    Type
REMARK                         _______ _______ _______ _____ _____    ______ ____
ROOT
ATOM      1  C   UNL     1      -6.260  12.158  20.271  0.00  0.00    +0.000 C 
ATOM      2  N   UNL     1      -4.911  12.179  19.785  0.00  0.00    +0.000 N 
ATOM      3  N   UNL     1      -4.539  11.681  18.565  0.00  0.00    +0.000 NA
ATOM      4  C   UNL     1      -3.248  11.857  18.540  0.00  0.00    +0.000 A 
ATOM      5  N   UNL     1      -2.723  12.425  19.652  0.00  0.00    +0.000 N 
ATOM      6  C   UNL     1      -3.800  12.658  20.484  0.00  0.00    +0.000 A 
ATOM      7  O   UNL     1      -3.814  13.140  21.606  0.00  0.00    +0.000 OA
ATOM      8  C   UNL     1      -1.374  12.761  19.883  0.00  0.00    +0.000 A 
ATOM      9  C   UNL     1      -1.067  13.849  20.720  0.00  0.00    +0.000 A 
ATOM     10  C   UNL     1       0.253  14.251  20.938  0.00  0.00    +0.000 A 
ATOM     11  C   UNL     1       1.291  13.574  20.314  0.00  0.00    +0.000 A 
ATOM     12 CL   UNL     1       2.919  14.043  20.604  0.00  0.00    +0.000 Cl
ATOM     13  C   UNL     1       1.018  12.493  19.483  0.00  0.00    +0.000 A 
ATOM     14  C   UNL     1      -0.307  12.055  19.292  0.00  0.00    +0.000 A 
ATOM     15  C   UNL     1      -0.507  10.748  18.583  0.00  0.00    +0.000 C 
ATOM     16  N   UNL     1      -1.429  10.510  17.711  0.00  0.00    +0.000 NA
ATOM     17  C   UNL     1      -2.383  11.549  17.353  0.00  0.00    +0.000 C 
ENDROOT
BRANCH  15  18
ATOM     18  C   UNL     1       0.440   9.624  18.899  0.00  0.00    +0.000 A 
ATOM     19  C   UNL     1       0.545   9.107  20.198  0.00  0.00    +0.000 A 
ATOM     20  C   UNL     1       1.512   8.147  20.493  0.00  0.00    +0.000 A 
ATOM     21  C   UNL     1       2.349   7.669  19.487  0.00  0.00    +0.000 A 
ATOM     22  C   UNL     1       2.207   8.134  18.179  0.00  0.00    +0.000 A 
ATOM     23  C   UNL     1       1.252   9.108  17.883  0.00  0.00    +0.000 A 
ENDBRANCH  15  18
TORSDOF 1
ENDMDL
