MODEL 1
REMARK VINA RESULT:      -6.1      0.000      0.000
REMARK  Name = 
REMARK  23 active torsions:
REMARK  status: ('A' for Active; 'I' for Inactive)
REMARK    1  A    between atoms: C_1  and  C_2
REMARK    2  A    between atoms: C_2  and  C_3
REMARK    3  A    between atoms: C_3  and  C_4
REMARK    4  A    between atoms: C_4  and  C_5
REMARK    5  A    between atoms: C_5  and  C_6
REMARK    6  A    between atoms: C_6  and  C_7
REMARK    7  A    between atoms: C_7  and  C_8
REMARK    8  A    between atoms: C_8  and  C_9
REMARK    9  A    between atoms: C_9  and  C_10
REMARK   10  A    between atoms: C_10  and  C_11
REMARK   11  A    between atoms: C_11  and  C_12
REMARK   12  A    between atoms: C_12  and  C_13
REMARK   13  A    between atoms: C_18  and  C_19
REMARK   14  A    between atoms: C_19  and  S_20
REMARK   15  A    between atoms: C_19  and  S_26
REMARK   16  A    between atoms: S_20  and  C_21
REMARK   17  A    between atoms: C_21  and  C_22
REMARK   18  A    between atoms: C_22  and  C_23
REMARK   19  A    between atoms: C_23  and  O_25
REMARK   20  A    between atoms: S_26  and  C_27
REMARK   21  A    between atoms: C_27  and  C_28
REMARK   22  A    between atoms: C_28  and  C_29
REMARK   23  A    between atoms: C_29  and  O_31
REMARK                            x       y       z     vdW  Elec       q    Type
REMARK                         _______ _______ _______ _____ _____    ______ ____
ROOT
ATOM      1  C   UNL     1       4.168   4.745  18.446  0.00  0.00    +0.000 A 
ATOM      2  C   UNL     1       4.163   3.422  17.905  0.00  0.00    +0.000 A 
ATOM      3  C   UNL     1       3.051   2.900  17.256  0.00  0.00    +0.000 A 
ATOM      4  C   UNL     1       1.939   3.706  17.089  0.00  0.00    +0.000 A 
ATOM      5  C   UNL     1       1.914   4.996  17.625  0.00  0.00    +0.000 A 
ATOM      6  C   UNL     1       2.982   5.525  18.387  0.00  0.00    +0.000 A 
ENDROOT
BRANCH   6   7
ATOM      7  C   UNL     1       2.773   6.862  19.135  0.00  0.00    +0.000 C 
BRANCH   7   8
ATOM      8  S   UNL     1       1.594   6.801  20.588  0.00  0.00    +0.000 S 
BRANCH   8   9
ATOM      9  C   UNL     1       1.874   5.163  21.301  0.00  0.00    +0.000 C 
BRANCH   9  10
ATOM     10  C   UNL     1       0.999   4.112  20.645  0.00  0.00    +0.000 C 
BRANCH  10  11
ATOM     11  C   UNL     1       1.426   2.748  21.116  0.00  0.00    +0.000 C 
ATOM     12  O   UNL     1       1.532   2.416  22.286  0.00  0.00    +0.000 OA
BRANCH  11  13
ATOM     13  O   UNL     1       1.648   1.887  20.097  0.00  0.00    +0.000 OA
ATOM     14  H   UNL     1       1.168   1.040  20.173  0.00  0.00    +0.000 HD
ENDBRANCH  11  13
ENDBRANCH  10  11
ENDBRANCH   9  10
ENDBRANCH   8   9
ENDBRANCH   7   8
BRANCH   7  15
ATOM     15  S   UNL     1       2.038   8.198  18.067  0.00  0.00    +0.000 S 
BRANCH  15  16
ATOM     16  C   UNL     1       1.392   9.382  19.319  0.00  0.00    +0.000 C 
BRANCH  16  17
ATOM     17  C   UNL     1       0.005   9.939  19.013  0.00  0.00    +0.000 C 
BRANCH  17  18
ATOM     18  C   UNL     1      -0.425  10.855  20.123  0.00  0.00    +0.000 C 
ATOM     19  O   UNL     1      -1.309  11.699  19.999  0.00  0.00    +0.000 OA
BRANCH  18  20
ATOM     20  O   UNL     1       0.251  10.689  21.276  0.00  0.00    +0.000 OA
ATOM     21  H   UNL     1       0.375   9.754  21.547  0.00  0.00    +0.000 HD
ENDBRANCH  18  20
ENDBRANCH  17  18
ENDBRANCH  16  17
ENDBRANCH  15  16
ENDBRANCH   7  15
ENDBRANCH   6   7
BRANCH   1  22
ATOM     22  C   UNL     1       5.516   5.185  18.979  0.00  0.00    +0.000 C 
BRANCH  22  23
ATOM     23  C   UNL     1       6.121   6.312  18.141  0.00  0.00    +0.000 C 
BRANCH  23  24
ATOM     24  C   UNL     1       7.452   5.978  17.491  0.00  0.00    +0.000 C 
BRANCH  24  25
ATOM     25  C   UNL     1       7.358   5.984  15.979  0.00  0.00    +0.000 C 
BRANCH  25  26
ATOM     26  C   UNL     1       6.016   5.435  15.540  0.00  0.00    +0.000 C 
BRANCH  26  27
ATOM     27  C   UNL     1       6.230   4.081  14.892  0.00  0.00    +0.000 C 
BRANCH  27  28
ATOM     28  C   UNL     1       5.398   3.975  13.630  0.00  0.00    +0.000 C 
BRANCH  28  29
ATOM     29  C   UNL     1       6.258   3.453  12.494  0.00  0.00    +0.000 C 
BRANCH  29  30
ATOM     30  C   UNL     1       5.378   2.863  11.406  0.00  0.00    +0.000 C 
BRANCH  30  31
ATOM     31  C   UNL     1       3.968   3.426  11.508  0.00  0.00    +0.000 C 
BRANCH  31  33
ATOM     32  C   UNL     1       3.026   4.369   9.392  0.00  0.00    +0.000 C 
ATOM     33  C   UNL     1       3.177   3.123  10.243  0.00  0.00    +0.000 C 
ENDBRANCH  31  33
ENDBRANCH  30  31
ENDBRANCH  29  30
ENDBRANCH  28  29
ENDBRANCH  27  28
ENDBRANCH  26  27
ENDBRANCH  25  26
ENDBRANCH  24  25
ENDBRANCH  23  24
ENDBRANCH  22  23
ENDBRANCH   1  22
TORSDOF 22
ENDMDL
MODEL 2
REMARK VINA RESULT:      -6.1      3.959      6.912
REMARK  Name = 
REMARK  23 active torsions:
REMARK  status: ('A' for Active; 'I' for Inactive)
REMARK    1  A    between atoms: C_1  and  C_2
REMARK    2  A    between atoms: C_2  and  C_3
REMARK    3  A    between atoms: C_3  and  C_4
REMARK    4  A    between atoms: C_4  and  C_5
REMARK    5  A    between atoms: C_5  and  C_6
REMARK    6  A    between atoms: C_6  and  C_7
REMARK    7  A    between atoms: C_7  and  C_8
REMARK    8  A    between atoms: C_8  and  C_9
REMARK    9  A    between atoms: C_9  and  C_10
REMARK   10  A    between atoms: C_10  and  C_11
REMARK   11  A    between atoms: C_11  and  C_12
REMARK   12  A    between atoms: C_12  and  C_13
REMARK   13  A    between atoms: C_18  and  C_19
REMARK   14  A    between atoms: C_19  and  S_20
REMARK   15  A    between atoms: C_19  and  S_26
REMARK   16  A    between atoms: S_20  and  C_21
REMARK   17  A    between atoms: C_21  and  C_22
REMARK   18  A    between atoms: C_22  and  C_23
REMARK   19  A    between atoms: C_23  and  O_25
REMARK   20  A    between atoms: S_26  and  C_27
REMARK   21  A    between atoms: C_27  and  C_28
REMARK   22  A    between atoms: C_28  and  C_29
REMARK   23  A    between atoms: C_29  and  O_31
REMARK                            x       y       z     vdW  Elec       q    Type
REMARK                         _______ _______ _______ _____ _____    ______ ____
ROOT
ATOM      1  C   UNL     1       6.333   5.007  17.612  0.00  0.00    +0.000 A 
ATOM      2  C   UNL     1       7.251   4.684  16.566  0.00  0.00    +0.000 A 
ATOM      3  C   UNL     1       6.819   4.209  15.333  0.00  0.00    +0.000 A 
ATOM      4  C   UNL     1       5.460   4.095  15.104  0.00  0.00    +0.000 A 
ATOM      5  C   UNL     1       4.545   4.388  16.117  0.00  0.00    +0.000 A 
ATOM      6  C   UNL     1       4.946   4.767  17.419  0.00  0.00    +0.000 A 
ENDROOT
BRANCH   6   7
ATOM      7  C   UNL     1       3.879   4.843  18.537  0.00  0.00    +0.000 C 
BRANCH   7   8
ATOM      8  S   UNL     1       2.155   4.299  18.046  0.00  0.00    +0.000 S 
BRANCH   8   9
ATOM      9  C   UNL     1       1.386   3.840  19.616  0.00  0.00    +0.000 C 
BRANCH   9  10
ATOM     10  C   UNL     1       1.813   2.455  20.063  0.00  0.00    +0.000 C 
BRANCH  10  11
ATOM     11  C   UNL     1       2.732   2.579  21.249  0.00  0.00    +0.000 C 
ATOM     12  O   UNL     1       3.887   2.183  21.280  0.00  0.00    +0.000 OA
BRANCH  11  13
ATOM     13  O   UNL     1       2.160   3.222  22.291  0.00  0.00    +0.000 OA
ATOM     14  H   UNL     1       1.514   2.686  22.790  0.00  0.00    +0.000 HD
ENDBRANCH  11  13
ENDBRANCH  10  11
ENDBRANCH   9  10
ENDBRANCH   8   9
ENDBRANCH   7   8
BRANCH   7  15
ATOM     15  S   UNL     1       3.598   6.569  19.173  0.00  0.00    +0.000 S 
BRANCH  15  16
ATOM     16  C   UNL     1       2.253   7.173  18.071  0.00  0.00    +0.000 C 
BRANCH  16  17
ATOM     17  C   UNL     1       2.471   8.574  17.510  0.00  0.00    +0.000 C 
BRANCH  17  18
ATOM     18  C   UNL     1       1.733   9.574  18.355  0.00  0.00    +0.000 C 
ATOM     19  O   UNL     1       1.117   9.274  19.375  0.00  0.00    +0.000 OA
BRANCH  18  20
ATOM     20  O   UNL     1       1.786  10.838  17.895  0.00  0.00    +0.000 OA
ATOM     21  H   UNL     1       2.598  11.057  17.388  0.00  0.00    +0.000 HD
ENDBRANCH  18  20
ENDBRANCH  17  18
ENDBRANCH  16  17
ENDBRANCH  15  16
ENDBRANCH   7  15
ENDBRANCH   6   7
BRANCH   1  22
ATOM     22  C   UNL     1       6.982   5.650  18.821  0.00  0.00    +0.000 C 
BRANCH  22  23
ATOM     23  C   UNL     1       7.910   6.799  18.426  0.00  0.00    +0.000 C 
BRANCH  23  24
ATOM     24  C   UNL     1       7.236   7.930  17.669  0.00  0.00    +0.000 C 
BRANCH  24  25
ATOM     25  C   UNL     1       8.099   9.174  17.630  0.00  0.00    +0.000 C 
BRANCH  25  26
ATOM     26  C   UNL     1       8.818   9.350  18.951  0.00  0.00    +0.000 C 
BRANCH  26  27
ATOM     27  C   UNL     1       9.601  10.648  18.915  0.00  0.00    +0.000 C 
BRANCH  27  28
ATOM     28  C   UNL     1       8.894  11.652  18.029  0.00  0.00    +0.000 C 
BRANCH  28  29
ATOM     29  C   UNL     1       9.286  13.060  18.438  0.00  0.00    +0.000 C 
BRANCH  29  30
ATOM     30  C   UNL     1       9.974  13.034  19.792  0.00  0.00    +0.000 C 
BRANCH  30  31
ATOM     31  C   UNL     1       9.238  13.933  20.774  0.00  0.00    +0.000 C 
BRANCH  31  33
ATOM     32  C   UNL     1       8.613  11.950  22.163  0.00  0.00    +0.000 C 
ATOM     33  C   UNL     1       9.251  13.326  22.170  0.00  0.00    +0.000 C 
ENDBRANCH  31  33
ENDBRANCH  30  31
ENDBRANCH  29  30
ENDBRANCH  28  29
ENDBRANCH  27  28
ENDBRANCH  26  27
ENDBRANCH  25  26
ENDBRANCH  24  25
ENDBRANCH  23  24
ENDBRANCH  22  23
ENDBRANCH   1  22
TORSDOF 22
ENDMDL
MODEL 3
REMARK VINA RESULT:      -6.1      3.928      8.246
REMARK  Name = 
REMARK  23 active torsions:
REMARK  status: ('A' for Active; 'I' for Inactive)
REMARK    1  A    between atoms: C_1  and  C_2
REMARK    2  A    between atoms: C_2  and  C_3
REMARK    3  A    between atoms: C_3  and  C_4
REMARK    4  A    between atoms: C_4  and  C_5
REMARK    5  A    between atoms: C_5  and  C_6
REMARK    6  A    between atoms: C_6  and  C_7
REMARK    7  A    between atoms: C_7  and  C_8
REMARK    8  A    between atoms: C_8  and  C_9
REMARK    9  A    between atoms: C_9  and  C_10
REMARK   10  A    between atoms: C_10  and  C_11
REMARK   11  A    between atoms: C_11  and  C_12
REMARK   12  A    between atoms: C_12  and  C_13
REMARK   13  A    between atoms: C_18  and  C_19
REMARK   14  A    between atoms: C_19  and  S_20
REMARK   15  A    between atoms: C_19  and  S_26
REMARK   16  A    between atoms: S_20  and  C_21
REMARK   17  A    between atoms: C_21  and  C_22
REMARK   18  A    between atoms: C_22  and  C_23
REMARK   19  A    between atoms: C_23  and  O_25
REMARK   20  A    between atoms: S_26  and  C_27
REMARK   21  A    between atoms: C_27  and  C_28
REMARK   22  A    between atoms: C_28  and  C_29
REMARK   23  A    between atoms: C_29  and  O_31
REMARK                            x       y       z     vdW  Elec       q    Type
REMARK                         _______ _______ _______ _____ _____    ______ ____
ROOT
ATOM      1  C   UNL     1       2.729   5.414  18.320  0.00  0.00    +0.000 A 
ATOM      2  C   UNL     1       1.432   4.818  18.237  0.00  0.00    +0.000 A 
ATOM      3  C   UNL     1       1.260   3.491  17.861  0.00  0.00    +0.000 A 
ATOM      4  C   UNL     1       2.380   2.719  17.609  0.00  0.00    +0.000 A 
ATOM      5  C   UNL     1       3.655   3.285  17.668  0.00  0.00    +0.000 A 
ATOM      6  C   UNL     1       3.868   4.657  17.938  0.00  0.00    +0.000 A 
ENDROOT
BRANCH   6   7
ATOM      7  C   UNL     1       5.288   5.243  17.750  0.00  0.00    +0.000 C 
BRANCH   7   8
ATOM      8  S   UNL     1       6.412   4.284  16.600  0.00  0.00    +0.000 S 
BRANCH   8   9
ATOM      9  C   UNL     1       5.703   4.576  14.963  0.00  0.00    +0.000 C 
BRANCH   9  10
ATOM     10  C   UNL     1       6.753   4.472  13.874  0.00  0.00    +0.000 C 
BRANCH  10  11
ATOM     11  C   UNL     1       6.194   3.680  12.721  0.00  0.00    +0.000 C 
ATOM     12  O   UNL     1       6.865   3.053  11.917  0.00  0.00    +0.000 OA
BRANCH  11  13
ATOM     13  O   UNL     1       4.843   3.696  12.680  0.00  0.00    +0.000 OA
ATOM     14  H   UNL     1       4.417   3.920  13.530  0.00  0.00    +0.000 HD
ENDBRANCH  11  13
ENDBRANCH  10  11
ENDBRANCH   9  10
ENDBRANCH   8   9
ENDBRANCH   7   8
BRANCH   7  15
ATOM     15  S   UNL     1       6.274   5.306  19.328  0.00  0.00    +0.000 S 
BRANCH  15  16
ATOM     16  C   UNL     1       7.956   5.734  18.715  0.00  0.00    +0.000 C 
BRANCH  16  17
ATOM     17  C   UNL     1       8.331   7.205  18.861  0.00  0.00    +0.000 C 
BRANCH  17  18
ATOM     18  C   UNL     1       7.921   7.953  17.625  0.00  0.00    +0.000 C 
ATOM     19  O   UNL     1       7.719   7.410  16.541  0.00  0.00    +0.000 OA
BRANCH  18  20
ATOM     20  O   UNL     1       7.805   9.284  17.793  0.00  0.00    +0.000 OA
ATOM     21  H   UNL     1       7.154   9.556  18.475  0.00  0.00    +0.000 HD
ENDBRANCH  18  20
ENDBRANCH  17  18
ENDBRANCH  16  17
ENDBRANCH  15  16
ENDBRANCH   7  15
ENDBRANCH   6   7
BRANCH   1  22
ATOM     22  C   UNL     1       2.722   6.818  18.891  0.00  0.00    +0.000 C 
BRANCH  22  23
ATOM     23  C   UNL     1       2.734   7.880  17.790  0.00  0.00    +0.000 C 
BRANCH  23  24
ATOM     24  C   UNL     1       1.504   8.768  17.750  0.00  0.00    +0.000 C 
BRANCH  24  25
ATOM     25  C   UNL     1       1.498   9.774  18.882  0.00  0.00    +0.000 C 
BRANCH  25  26
ATOM     26  C   UNL     1       0.094   9.937  19.425  0.00  0.00    +0.000 C 
BRANCH  26  27
ATOM     27  C   UNL     1      -0.152  11.405  19.715  0.00  0.00    +0.000 C 
BRANCH  27  28
ATOM     28  C   UNL     1      -1.631  11.713  19.606  0.00  0.00    +0.000 C 
BRANCH  28  29
ATOM     29  C   UNL     1      -1.988  11.998  18.158  0.00  0.00    +0.000 C 
BRANCH  29  30
ATOM     30  C   UNL     1      -3.316  11.347  17.814  0.00  0.00    +0.000 C 
BRANCH  30  31
ATOM     31  C   UNL     1      -3.107   9.884  17.454  0.00  0.00    +0.000 C 
BRANCH  31  33
ATOM     32  C   UNL     1      -3.233  10.463  15.025  0.00  0.00    +0.000 C 
ATOM     33  C   UNL     1      -2.426   9.758  16.098  0.00  0.00    +0.000 C 
ENDBRANCH  31  33
ENDBRANCH  30  31
ENDBRANCH  29  30
ENDBRANCH  28  29
ENDBRANCH  27  28
ENDBRANCH  26  27
ENDBRANCH  25  26
ENDBRANCH  24  25
ENDBRANCH  23  24
ENDBRANCH  22  23
ENDBRANCH   1  22
TORSDOF 22
ENDMDL
MODEL 4
REMARK VINA RESULT:      -6.1      4.661      7.811
REMARK  Name = 
REMARK  23 active torsions:
REMARK  status: ('A' for Active; 'I' for Inactive)
REMARK    1  A    between atoms: C_1  and  C_2
REMARK    2  A    between atoms: C_2  and  C_3
REMARK    3  A    between atoms: C_3  and  C_4
REMARK    4  A    between atoms: C_4  and  C_5
REMARK    5  A    between atoms: C_5  and  C_6
REMARK    6  A    between atoms: C_6  and  C_7
REMARK    7  A    between atoms: C_7  and  C_8
REMARK    8  A    between atoms: C_8  and  C_9
REMARK    9  A    between atoms: C_9  and  C_10
REMARK   10  A    between atoms: C_10  and  C_11
REMARK   11  A    between atoms: C_11  and  C_12
REMARK   12  A    between atoms: C_12  and  C_13
REMARK   13  A    between atoms: C_18  and  C_19
REMARK   14  A    between atoms: C_19  and  S_20
REMARK   15  A    between atoms: C_19  and  S_26
REMARK   16  A    between atoms: S_20  and  C_21
REMARK   17  A    between atoms: C_21  and  C_22
REMARK   18  A    between atoms: C_22  and  C_23
REMARK   19  A    between atoms: C_23  and  O_25
REMARK   20  A    between atoms: S_26  and  C_27
REMARK   21  A    between atoms: C_27  and  C_28
REMARK   22  A    between atoms: C_28  and  C_29
REMARK   23  A    between atoms: C_29  and  O_31
REMARK                            x       y       z     vdW  Elec       q    Type
REMARK                         _______ _______ _______ _____ _____    ______ ____
ROOT
ATOM      1  C   UNL     1       1.428   9.001  19.472  0.00  0.00    +0.000 A 
ATOM      2  C   UNL     1       1.532   7.971  20.458  0.00  0.00    +0.000 A 
ATOM      3  C   UNL     1       0.808   8.016  21.643  0.00  0.00    +0.000 A 
ATOM      4  C   UNL     1      -0.072   9.063  21.846  0.00  0.00    +0.000 A 
ATOM      5  C   UNL     1      -0.178  10.090  20.905  0.00  0.00    +0.000 A 
ATOM      6  C   UNL     1       0.621  10.139  19.739  0.00  0.00    +0.000 A 
ENDROOT
BRANCH   6   7
ATOM      7  C   UNL     1       0.606  11.425  18.878  0.00  0.00    +0.000 C 
BRANCH   7   8
ATOM      8  S   UNL     1       1.997  12.634  19.206  0.00  0.00    +0.000 S 
BRANCH   8   9
ATOM      9  C   UNL     1       1.385  14.191  18.520  0.00  0.00    +0.000 C 
BRANCH   9  10
ATOM     10  C   UNL     1       2.040  15.387  19.182  0.00  0.00    +0.000 C 
BRANCH  10  11
ATOM     11  C   UNL     1       3.056  15.979  18.241  0.00  0.00    +0.000 C 
ATOM     12  O   UNL     1       3.604  15.371  17.335  0.00  0.00    +0.000 OA
BRANCH  11  13
ATOM     13  O   UNL     1       3.282  17.292  18.471  0.00  0.00    +0.000 OA
ATOM     14  H   UNL     1       2.923  17.889  17.787  0.00  0.00    +0.000 HD
ENDBRANCH  11  13
ENDBRANCH  10  11
ENDBRANCH   9  10
ENDBRANCH   8   9
ENDBRANCH   7   8
BRANCH   7  15
ATOM     15  S   UNL     1      -0.914  12.468  19.138  0.00  0.00    +0.000 S 
BRANCH  15  16
ATOM     16  C   UNL     1      -2.098  11.730  17.937  0.00  0.00    +0.000 C 
BRANCH  16  17
ATOM     17  C   UNL     1      -3.528  11.599  18.451  0.00  0.00    +0.000 C 
BRANCH  17  18
ATOM     18  C   UNL     1      -4.476  11.523  17.289  0.00  0.00    +0.000 C 
ATOM     19  O   UNL     1      -5.686  11.349  17.413  0.00  0.00    +0.000 OA
BRANCH  18  20
ATOM     20  O   UNL     1      -3.889  11.647  16.083  0.00  0.00    +0.000 OA
ATOM     21  H   UNL     1      -4.481  11.970  15.370  0.00  0.00    +0.000 HD
ENDBRANCH  18  20
ENDBRANCH  17  18
ENDBRANCH  16  17
ENDBRANCH  15  16
ENDBRANCH   7  15
ENDBRANCH   6   7
BRANCH   1  22
ATOM     22  C   UNL     1       2.176   8.700  18.190  0.00  0.00    +0.000 C 
BRANCH  22  23
ATOM     23  C   UNL     1       2.797   7.303  18.207  0.00  0.00    +0.000 C 
BRANCH  23  24
ATOM     24  C   UNL     1       4.013   7.136  17.313  0.00  0.00    +0.000 C 
BRANCH  24  25
ATOM     25  C   UNL     1       4.879   5.974  17.754  0.00  0.00    +0.000 C 
BRANCH  25  26
ATOM     26  C   UNL     1       4.585   4.755  16.904  0.00  0.00    +0.000 C 
BRANCH  26  27
ATOM     27  C   UNL     1       3.949   3.691  17.777  0.00  0.00    +0.000 C 
BRANCH  27  28
ATOM     28  C   UNL     1       2.619   3.267  17.189  0.00  0.00    +0.000 C 
BRANCH  28  29
ATOM     29  C   UNL     1       1.498   4.056  17.842  0.00  0.00    +0.000 C 
BRANCH  29  30
ATOM     30  C   UNL     1       0.949   3.290  19.033  0.00  0.00    +0.000 C 
BRANCH  30  31
ATOM     31  C   UNL     1       0.862   4.200  20.249  0.00  0.00    +0.000 C 
BRANCH  31  33
ATOM     32  C   UNL     1       2.343   2.946  21.826  0.00  0.00    +0.000 C 
ATOM     33  C   UNL     1       2.184   4.211  21.005  0.00  0.00    +0.000 C 
ENDBRANCH  31  33
ENDBRANCH  30  31
ENDBRANCH  29  30
ENDBRANCH  28  29
ENDBRANCH  27  28
ENDBRANCH  26  27
ENDBRANCH  25  26
ENDBRANCH  24  25
ENDBRANCH  23  24
ENDBRANCH  22  23
ENDBRANCH   1  22
TORSDOF 22
ENDMDL
MODEL 5
REMARK VINA RESULT:      -6.0      4.018      7.026
REMARK  Name = 
REMARK  23 active torsions:
REMARK  status: ('A' for Active; 'I' for Inactive)
REMARK    1  A    between atoms: C_1  and  C_2
REMARK    2  A    between atoms: C_2  and  C_3
REMARK    3  A    between atoms: C_3  and  C_4
REMARK    4  A    between atoms: C_4  and  C_5
REMARK    5  A    between atoms: C_5  and  C_6
REMARK    6  A    between atoms: C_6  and  C_7
REMARK    7  A    between atoms: C_7  and  C_8
REMARK    8  A    between atoms: C_8  and  C_9
REMARK    9  A    between atoms: C_9  and  C_10
REMARK   10  A    between atoms: C_10  and  C_11
REMARK   11  A    between atoms: C_11  and  C_12
REMARK   12  A    between atoms: C_12  and  C_13
REMARK   13  A    between atoms: C_18  and  C_19
REMARK   14  A    between atoms: C_19  and  S_20
REMARK   15  A    between atoms: C_19  and  S_26
REMARK   16  A    between atoms: S_20  and  C_21
REMARK   17  A    between atoms: C_21  and  C_22
REMARK   18  A    between atoms: C_22  and  C_23
REMARK   19  A    between atoms: C_23  and  O_25
REMARK   20  A    between atoms: S_26  and  C_27
REMARK   21  A    between atoms: C_27  and  C_28
REMARK   22  A    between atoms: C_28  and  C_29
REMARK   23  A    between atoms: C_29  and  O_31
REMARK                            x       y       z     vdW  Elec       q    Type
REMARK                         _______ _______ _______ _____ _____    ______ ____
ROOT
ATOM      1  C   UNL     1       6.190   5.163  17.755  0.00  0.00    +0.000 A 
ATOM      2  C   UNL     1       7.161   4.627  16.853  0.00  0.00    +0.000 A 
ATOM      3  C   UNL     1       6.799   4.085  15.626  0.00  0.00    +0.000 A 
ATOM      4  C   UNL     1       5.467   4.112  15.253  0.00  0.00    +0.000 A 
ATOM      5  C   UNL     1       4.499   4.614  16.126  0.00  0.00    +0.000 A 
ATOM      6  C   UNL     1       4.811   5.073  17.427  0.00  0.00    +0.000 A 
ENDROOT
BRANCH   6   7
ATOM      7  C   UNL     1       3.654   5.389  18.404  0.00  0.00    +0.000 C 
BRANCH   7   8
ATOM      8  S   UNL     1       2.124   4.325  18.216  0.00  0.00    +0.000 S 
BRANCH   8   9
ATOM      9  C   UNL     1       2.640   2.712  18.847  0.00  0.00    +0.000 C 
BRANCH   9  10
ATOM     10  C   UNL     1       3.270   2.827  20.221  0.00  0.00    +0.000 C 
BRANCH  10  11
ATOM     11  C   UNL     1       2.241   3.332  21.198  0.00  0.00    +0.000 C 
ATOM     12  O   UNL     1       1.233   2.725  21.523  0.00  0.00    +0.000 OA
BRANCH  11  13
ATOM     13  O   UNL     1       2.565   4.533  21.726  0.00  0.00    +0.000 OA
ATOM     14  H   UNL     1       2.901   4.493  22.642  0.00  0.00    +0.000 HD
ENDBRANCH  11  13
ENDBRANCH  10  11
ENDBRANCH   9  10
ENDBRANCH   8   9
ENDBRANCH   7   8
BRANCH   7  15
ATOM     15  S   UNL     1       2.980   7.114  18.216  0.00  0.00    +0.000 S 
BRANCH  15  16
ATOM     16  C   UNL     1       2.146   7.381  19.835  0.00  0.00    +0.000 C 
BRANCH  16  17
ATOM     17  C   UNL     1       1.379   8.694  19.946  0.00  0.00    +0.000 C 
BRANCH  17  18
ATOM     18  C   UNL     1       0.889   8.873  21.355  0.00  0.00    +0.000 C 
ATOM     19  O   UNL     1       1.543   9.431  22.233  0.00  0.00    +0.000 OA
BRANCH  18  20
ATOM     20  O   UNL     1      -0.330   8.353  21.591  0.00  0.00    +0.000 OA
ATOM     21  H   UNL     1      -0.796   8.733  22.367  0.00  0.00    +0.000 HD
ENDBRANCH  18  20
ENDBRANCH  17  18
ENDBRANCH  16  17
ENDBRANCH  15  16
ENDBRANCH   7  15
ENDBRANCH   6   7
BRANCH   1  22
ATOM     22  C   UNL     1       6.791   5.842  18.969  0.00  0.00    +0.000 C 
BRANCH  22  23
ATOM     23  C   UNL     1       7.991   6.713  18.599  0.00  0.00    +0.000 C 
BRANCH  23  24
ATOM     24  C   UNL     1       7.768   7.635  17.414  0.00  0.00    +0.000 C 
BRANCH  24  25
ATOM     25  C   UNL     1       7.657   9.084  17.840  0.00  0.00    +0.000 C 
BRANCH  25  26
ATOM     26  C   UNL     1       8.833   9.459  18.718  0.00  0.00    +0.000 C 
BRANCH  26  27
ATOM     27  C   UNL     1       9.473  10.718  18.168  0.00  0.00    +0.000 C 
BRANCH  27  28
ATOM     28  C   UNL     1       9.641  11.739  19.274  0.00  0.00    +0.000 C 
BRANCH  28  29
ATOM     29  C   UNL     1       9.408  11.076  20.620  0.00  0.00    +0.000 C 
BRANCH  29  30
ATOM     30  C   UNL     1       9.395  12.124  21.719  0.00  0.00    +0.000 C 
BRANCH  30  31
ATOM     31  C   UNL     1      10.112  13.383  21.254  0.00  0.00    +0.000 C 
BRANCH  31  33
ATOM     32  C   UNL     1       8.212  14.938  20.780  0.00  0.00    +0.000 C 
ATOM     33  C   UNL     1       9.365  14.626  21.715  0.00  0.00    +0.000 C 
ENDBRANCH  31  33
ENDBRANCH  30  31
ENDBRANCH  29  30
ENDBRANCH  28  29
ENDBRANCH  27  28
ENDBRANCH  26  27
ENDBRANCH  25  26
ENDBRANCH  24  25
ENDBRANCH  23  24
ENDBRANCH  22  23
ENDBRANCH   1  22
TORSDOF 22
ENDMDL
MODEL 6
REMARK VINA RESULT:      -6.0      4.147      7.081
REMARK  Name = 
REMARK  23 active torsions:
REMARK  status: ('A' for Active; 'I' for Inactive)
REMARK    1  A    between atoms: C_1  and  C_2
REMARK    2  A    between atoms: C_2  and  C_3
REMARK    3  A    between atoms: C_3  and  C_4
REMARK    4  A    between atoms: C_4  and  C_5
REMARK    5  A    between atoms: C_5  and  C_6
REMARK    6  A    between atoms: C_6  and  C_7
REMARK    7  A    between atoms: C_7  and  C_8
REMARK    8  A    between atoms: C_8  and  C_9
REMARK    9  A    between atoms: C_9  and  C_10
REMARK   10  A    between atoms: C_10  and  C_11
REMARK   11  A    between atoms: C_11  and  C_12
REMARK   12  A    between atoms: C_12  and  C_13
REMARK   13  A    between atoms: C_18  and  C_19
REMARK   14  A    between atoms: C_19  and  S_20
REMARK   15  A    between atoms: C_19  and  S_26
REMARK   16  A    between atoms: S_20  and  C_21
REMARK   17  A    between atoms: C_21  and  C_22
REMARK   18  A    between atoms: C_22  and  C_23
REMARK   19  A    between atoms: C_23  and  O_25
REMARK   20  A    between atoms: S_26  and  C_27
REMARK   21  A    between atoms: C_27  and  C_28
REMARK   22  A    between atoms: C_28  and  C_29
REMARK   23  A    between atoms: C_29  and  O_31
REMARK                            x       y       z     vdW  Elec       q    Type
REMARK                         _______ _______ _______ _____ _____    ______ ____
ROOT
ATOM      1  C   UNL     1       1.565   8.904  19.152  0.00  0.00    +0.000 A 
ATOM      2  C   UNL     1       1.807   7.845  20.082  0.00  0.00    +0.000 A 
ATOM      3  C   UNL     1       1.160   7.786  21.310  0.00  0.00    +0.000 A 
ATOM      4  C   UNL     1       0.220   8.754  21.614  0.00  0.00    +0.000 A 
ATOM      5  C   UNL     1      -0.021   9.808  20.729  0.00  0.00    +0.000 A 
ATOM      6  C   UNL     1       0.696   9.966  19.520  0.00  0.00    +0.000 A 
ENDROOT
BRANCH   6   7
ATOM      7  C   UNL     1       0.531  11.280  18.721  0.00  0.00    +0.000 C 
BRANCH   7   8
ATOM      8  S   UNL     1       1.069  12.839  19.609  0.00  0.00    +0.000 S 
BRANCH   8   9
ATOM      9  C   UNL     1       2.075  13.707  18.384  0.00  0.00    +0.000 C 
BRANCH   9  10
ATOM     10  C   UNL     1       3.292  14.353  19.018  0.00  0.00    +0.000 C 
BRANCH  10  11
ATOM     11  C   UNL     1       4.263  14.747  17.937  0.00  0.00    +0.000 C 
ATOM     12  O   UNL     1       5.455  14.484  17.942  0.00  0.00    +0.000 OA
BRANCH  11  13
ATOM     13  O   UNL     1       3.672  15.402  16.914  0.00  0.00    +0.000 OA
ATOM     14  H   UNL     1       3.115  16.157  17.186  0.00  0.00    +0.000 HD
ENDBRANCH  11  13
ENDBRANCH  10  11
ENDBRANCH   9  10
ENDBRANCH   8   9
ENDBRANCH   7   8
BRANCH   7  15
ATOM     15  S   UNL     1      -1.236  11.654  18.272  0.00  0.00    +0.000 S 
BRANCH  15  16
ATOM     16  C   UNL     1      -1.799  10.053  17.558  0.00  0.00    +0.000 C 
BRANCH  16  17
ATOM     17  C   UNL     1      -2.864  10.180  16.474  0.00  0.00    +0.000 C 
BRANCH  17  18
ATOM     18  C   UNL     1      -4.074  10.872  17.035  0.00  0.00    +0.000 C 
ATOM     19  O   UNL     1      -4.533  11.913  16.572  0.00  0.00    +0.000 OA
BRANCH  18  20
ATOM     20  O   UNL     1      -4.614  10.265  18.109  0.00  0.00    +0.000 OA
ATOM     21  H   UNL     1      -3.968  10.002  18.800  0.00  0.00    +0.000 HD
ENDBRANCH  18  20
ENDBRANCH  17  18
ENDBRANCH  16  17
ENDBRANCH  15  16
ENDBRANCH   7  15
ENDBRANCH   6   7
BRANCH   1  22
ATOM     22  C   UNL     1       2.249   8.713  17.814  0.00  0.00    +0.000 C 
BRANCH  22  23
ATOM     23  C   UNL     1       2.855   7.316  17.678  0.00  0.00    +0.000 C 
BRANCH  23  24
ATOM     24  C   UNL     1       4.358   7.293  17.464  0.00  0.00    +0.000 C 
BRANCH  24  25
ATOM     25  C   UNL     1       4.719   6.887  16.049  0.00  0.00    +0.000 C 
BRANCH  25  26
ATOM     26  C   UNL     1       5.706   5.738  16.074  0.00  0.00    +0.000 C 
BRANCH  26  27
ATOM     27  C   UNL     1       4.938   4.432  16.019  0.00  0.00    +0.000 C 
BRANCH  27  28
ATOM     28  C   UNL     1       5.152   3.653  17.300  0.00  0.00    +0.000 C 
BRANCH  28  29
ATOM     29  C   UNL     1       3.900   3.724  18.156  0.00  0.00    +0.000 C 
BRANCH  29  30
ATOM     30  C   UNL     1       2.667   3.538  17.288  0.00  0.00    +0.000 C 
BRANCH  30  31
ATOM     31  C   UNL     1       1.419   3.953  18.053  0.00  0.00    +0.000 C 
BRANCH  31  33
ATOM     32  C   UNL     1       1.045   3.376  20.457  0.00  0.00    +0.000 C 
ATOM     33  C   UNL     1       1.764   4.301  19.494  0.00  0.00    +0.000 C 
ENDBRANCH  31  33
ENDBRANCH  30  31
ENDBRANCH  29  30
ENDBRANCH  28  29
ENDBRANCH  27  28
ENDBRANCH  26  27
ENDBRANCH  25  26
ENDBRANCH  24  25
ENDBRANCH  23  24
ENDBRANCH  22  23
ENDBRANCH   1  22
TORSDOF 22
ENDMDL
MODEL 7
REMARK VINA RESULT:      -5.9      4.277      9.947
REMARK  Name = 
REMARK  23 active torsions:
REMARK  status: ('A' for Active; 'I' for Inactive)
REMARK    1  A    between atoms: C_1  and  C_2
REMARK    2  A    between atoms: C_2  and  C_3
REMARK    3  A    between atoms: C_3  and  C_4
REMARK    4  A    between atoms: C_4  and  C_5
REMARK    5  A    between atoms: C_5  and  C_6
REMARK    6  A    between atoms: C_6  and  C_7
REMARK    7  A    between atoms: C_7  and  C_8
REMARK    8  A    between atoms: C_8  and  C_9
REMARK    9  A    between atoms: C_9  and  C_10
REMARK   10  A    between atoms: C_10  and  C_11
REMARK   11  A    between atoms: C_11  and  C_12
REMARK   12  A    between atoms: C_12  and  C_13
REMARK   13  A    between atoms: C_18  and  C_19
REMARK   14  A    between atoms: C_19  and  S_20
REMARK   15  A    between atoms: C_19  and  S_26
REMARK   16  A    between atoms: S_20  and  C_21
REMARK   17  A    between atoms: C_21  and  C_22
REMARK   18  A    between atoms: C_22  and  C_23
REMARK   19  A    between atoms: C_23  and  O_25
REMARK   20  A    between atoms: S_26  and  C_27
REMARK   21  A    between atoms: C_27  and  C_28
REMARK   22  A    between atoms: C_28  and  C_29
REMARK   23  A    between atoms: C_29  and  O_31
REMARK                            x       y       z     vdW  Elec       q    Type
REMARK                         _______ _______ _______ _____ _____    ______ ____
ROOT
ATOM      1  C   UNL     1       1.541   8.484  20.103  0.00  0.00    +0.000 A 
ATOM      2  C   UNL     1       1.188   9.823  19.746  0.00  0.00    +0.000 A 
ATOM      3  C   UNL     1       1.456  10.338  18.484  0.00  0.00    +0.000 A 
ATOM      4  C   UNL     1       2.034   9.513  17.537  0.00  0.00    +0.000 A 
ATOM      5  C   UNL     1       2.403   8.207  17.868  0.00  0.00    +0.000 A 
ATOM      6  C   UNL     1       2.250   7.680  19.171  0.00  0.00    +0.000 A 
ENDROOT
BRANCH   6   7
ATOM      7  C   UNL     1       2.898   6.316  19.504  0.00  0.00    +0.000 C 
BRANCH   7   8
ATOM      8  S   UNL     1       3.289   5.225  18.033  0.00  0.00    +0.000 S 
BRANCH   8   9
ATOM      9  C   UNL     1       5.076   5.402  17.829  0.00  0.00    +0.000 C 
BRANCH   9  10
ATOM     10  C   UNL     1       5.795   5.384  19.163  0.00  0.00    +0.000 C 
BRANCH  10  11
ATOM     11  C   UNL     1       7.275   5.246  18.928  0.00  0.00    +0.000 C 
ATOM     12  O   UNL     1       7.782   4.540  18.070  0.00  0.00    +0.000 OA
BRANCH  11  13
ATOM     13  O   UNL     1       8.012   6.029  19.748  0.00  0.00    +0.000 OA
ATOM     14  H   UNL     1       7.738   6.001  20.685  0.00  0.00    +0.000 HD
ENDBRANCH  11  13
ENDBRANCH  10  11
ENDBRANCH   9  10
ENDBRANCH   8   9
ENDBRANCH   7   8
BRANCH   7  15
ATOM     15  S   UNL     1       1.815   5.221  20.550  0.00  0.00    +0.000 S 
BRANCH  15  16
ATOM     16  C   UNL     1       2.674   3.597  20.427  0.00  0.00    +0.000 C 
BRANCH  16  17
ATOM     17  C   UNL     1       1.745   2.389  20.375  0.00  0.00    +0.000 C 
BRANCH  17  18
ATOM     18  C   UNL     1       1.392   2.087  18.946  0.00  0.00    +0.000 C 
ATOM     19  O   UNL     1       0.273   2.269  18.474  0.00  0.00    +0.000 OA
BRANCH  18  20
ATOM     20  O   UNL     1       2.405   1.582  18.217  0.00  0.00    +0.000 OA
ATOM     21  H   UNL     1       2.486   0.604  18.250  0.00  0.00    +0.000 HD
ENDBRANCH  18  20
ENDBRANCH  17  18
ENDBRANCH  16  17
ENDBRANCH  15  16
ENDBRANCH   7  15
ENDBRANCH   6   7
BRANCH   1  22
ATOM     22  C   UNL     1       1.034   8.059  21.466  0.00  0.00    +0.000 C 
BRANCH  22  23
ATOM     23  C   UNL     1      -0.282   8.751  21.826  0.00  0.00    +0.000 C 
BRANCH  23  24
ATOM     24  C   UNL     1      -0.275   9.476  23.159  0.00  0.00    +0.000 C 
BRANCH  24  25
ATOM     25  C   UNL     1      -0.829  10.881  23.038  0.00  0.00    +0.000 C 
BRANCH  25  26
ATOM     26  C   UNL     1      -1.185  11.177  21.595  0.00  0.00    +0.000 C 
BRANCH  26  27
ATOM     27  C   UNL     1      -0.882  12.634  21.305  0.00  0.00    +0.000 C 
BRANCH  27  28
ATOM     28  C   UNL     1      -1.670  13.095  20.097  0.00  0.00    +0.000 C 
BRANCH  28  29
ATOM     29  C   UNL     1      -3.108  12.622  20.214  0.00  0.00    +0.000 C 
BRANCH  29  30
ATOM     30  C   UNL     1      -3.887  13.553  21.127  0.00  0.00    +0.000 C 
BRANCH  30  31
ATOM     31  C   UNL     1      -5.076  12.822  21.733  0.00  0.00    +0.000 C 
BRANCH  31  33
ATOM     32  C   UNL     1      -3.902  12.726  23.939  0.00  0.00    +0.000 C 
ATOM     33  C   UNL     1      -5.182  13.113  23.223  0.00  0.00    +0.000 C 
ENDBRANCH  31  33
ENDBRANCH  30  31
ENDBRANCH  29  30
ENDBRANCH  28  29
ENDBRANCH  27  28
ENDBRANCH  26  27
ENDBRANCH  25  26
ENDBRANCH  24  25
ENDBRANCH  23  24
ENDBRANCH  22  23
ENDBRANCH   1  22
TORSDOF 22
ENDMDL
MODEL 8
REMARK VINA RESULT:      -5.9      4.085      8.730
REMARK  Name = 
REMARK  23 active torsions:
REMARK  status: ('A' for Active; 'I' for Inactive)
REMARK    1  A    between atoms: C_1  and  C_2
REMARK    2  A    between atoms: C_2  and  C_3
REMARK    3  A    between atoms: C_3  and  C_4
REMARK    4  A    between atoms: C_4  and  C_5
REMARK    5  A    between atoms: C_5  and  C_6
REMARK    6  A    between atoms: C_6  and  C_7
REMARK    7  A    between atoms: C_7  and  C_8
REMARK    8  A    between atoms: C_8  and  C_9
REMARK    9  A    between atoms: C_9  and  C_10
REMARK   10  A    between atoms: C_10  and  C_11
REMARK   11  A    between atoms: C_11  and  C_12
REMARK   12  A    between atoms: C_12  and  C_13
REMARK   13  A    between atoms: C_18  and  C_19
REMARK   14  A    between atoms: C_19  and  S_20
REMARK   15  A    between atoms: C_19  and  S_26
REMARK   16  A    between atoms: S_20  and  C_21
REMARK   17  A    between atoms: C_21  and  C_22
REMARK   18  A    between atoms: C_22  and  C_23
REMARK   19  A    between atoms: C_23  and  O_25
REMARK   20  A    between atoms: S_26  and  C_27
REMARK   21  A    between atoms: C_27  and  C_28
REMARK   22  A    between atoms: C_28  and  C_29
REMARK   23  A    between atoms: C_29  and  O_31
REMARK                            x       y       z     vdW  Elec       q    Type
REMARK                         _______ _______ _______ _____ _____    ______ ____
ROOT
ATOM      1  C   UNL     1       2.838   5.528  17.926  0.00  0.00    +0.000 A 
ATOM      2  C   UNL     1       1.745   4.628  18.119  0.00  0.00    +0.000 A 
ATOM      3  C   UNL     1       1.900   3.252  17.999  0.00  0.00    +0.000 A 
ATOM      4  C   UNL     1       3.159   2.745  17.734  0.00  0.00    +0.000 A 
ATOM      5  C   UNL     1       4.238   3.606  17.524  0.00  0.00    +0.000 A 
ATOM      6  C   UNL     1       4.101   5.014  17.528  0.00  0.00    +0.000 A 
ENDROOT
BRANCH   6   7
ATOM      7  C   UNL     1       5.292   5.881  17.055  0.00  0.00    +0.000 C 
BRANCH   7   8
ATOM      8  S   UNL     1       5.474   6.063  15.200  0.00  0.00    +0.000 S 
BRANCH   8   9
ATOM      9  C   UNL     1       6.770   4.876  14.777  0.00  0.00    +0.000 C 
BRANCH   9  10
ATOM     10  C   UNL     1       6.189   3.593  14.215  0.00  0.00    +0.000 C 
BRANCH  10  11
ATOM     11  C   UNL     1       6.130   3.691  12.714  0.00  0.00    +0.000 C 
ATOM     12  O   UNL     1       7.097   3.861  11.989  0.00  0.00    +0.000 OA
BRANCH  11  13
ATOM     13  O   UNL     1       4.880   3.527  12.226  0.00  0.00    +0.000 OA
ATOM     14  H   UNL     1       4.663   2.609  11.974  0.00  0.00    +0.000 HD
ENDBRANCH  11  13
ENDBRANCH  10  11
ENDBRANCH   9  10
ENDBRANCH   8   9
ENDBRANCH   7   8
BRANCH   7  15
ATOM     15  S   UNL     1       6.948   5.200  17.565  0.00  0.00    +0.000 S 
BRANCH  15  16
ATOM     16  C   UNL     1       7.763   6.677  18.300  0.00  0.00    +0.000 C 
BRANCH  16  17
ATOM     17  C   UNL     1       7.583   7.965  17.504  0.00  0.00    +0.000 C 
BRANCH  17  18
ATOM     18  C   UNL     1       8.333   9.081  18.175  0.00  0.00    +0.000 C 
ATOM     19  O   UNL     1       8.310  10.244  17.781  0.00  0.00    +0.000 OA
BRANCH  18  20
ATOM     20  O   UNL     1       9.055   8.700  19.246  0.00  0.00    +0.000 OA
ATOM     21  H   UNL     1       9.196   7.732  19.323  0.00  0.00    +0.000 HD
ENDBRANCH  18  20
ENDBRANCH  17  18
ENDBRANCH  16  17
ENDBRANCH  15  16
ENDBRANCH   7  15
ENDBRANCH   6   7
BRANCH   1  22
ATOM     22  C   UNL     1       2.507   6.972  18.247  0.00  0.00    +0.000 C 
BRANCH  22  23
ATOM     23  C   UNL     1       2.354   7.200  19.751  0.00  0.00    +0.000 C 
BRANCH  23  24
ATOM     24  C   UNL     1       1.415   8.331  20.131  0.00  0.00    +0.000 C 
BRANCH  24  25
ATOM     25  C   UNL     1       0.901   8.184  21.548  0.00  0.00    +0.000 C 
BRANCH  25  26
ATOM     26  C   UNL     1       0.674   9.549  22.163  0.00  0.00    +0.000 C 
BRANCH  26  27
ATOM     27  C   UNL     1       0.116  10.478  21.102  0.00  0.00    +0.000 C 
BRANCH  27  28
ATOM     28  C   UNL     1      -0.661  11.601  21.756  0.00  0.00    +0.000 C 
BRANCH  28  29
ATOM     29  C   UNL     1      -1.339  12.442  20.689  0.00  0.00    +0.000 C 
BRANCH  29  30
ATOM     30  C   UNL     1      -1.522  11.623  19.422  0.00  0.00    +0.000 C 
BRANCH  30  31
ATOM     31  C   UNL     1      -1.109  12.438  18.206  0.00  0.00    +0.000 C 
BRANCH  31  33
ATOM     32  C   UNL     1       1.257  13.215  18.429  0.00  0.00    +0.000 C 
ATOM     33  C   UNL     1      -0.201  13.589  18.615  0.00  0.00    +0.000 C 
ENDBRANCH  31  33
ENDBRANCH  30  31
ENDBRANCH  29  30
ENDBRANCH  28  29
ENDBRANCH  27  28
ENDBRANCH  26  27
ENDBRANCH  25  26
ENDBRANCH  24  25
ENDBRANCH  23  24
ENDBRANCH  22  23
ENDBRANCH   1  22
TORSDOF 22
ENDMDL
MODEL 9
REMARK VINA RESULT:      -5.8      3.447      8.390
REMARK  Name = 
REMARK  23 active torsions:
REMARK  status: ('A' for Active; 'I' for Inactive)
REMARK    1  A    between atoms: C_1  and  C_2
REMARK    2  A    between atoms: C_2  and  C_3
REMARK    3  A    between atoms: C_3  and  C_4
REMARK    4  A    between atoms: C_4  and  C_5
REMARK    5  A    between atoms: C_5  and  C_6
REMARK    6  A    between atoms: C_6  and  C_7
REMARK    7  A    between atoms: C_7  and  C_8
REMARK    8  A    between atoms: C_8  and  C_9
REMARK    9  A    between atoms: C_9  and  C_10
REMARK   10  A    between atoms: C_10  and  C_11
REMARK   11  A    between atoms: C_11  and  C_12
REMARK   12  A    between atoms: C_12  and  C_13
REMARK   13  A    between atoms: C_18  and  C_19
REMARK   14  A    between atoms: C_19  and  S_20
REMARK   15  A    between atoms: C_19  and  S_26
REMARK   16  A    between atoms: S_20  and  C_21
REMARK   17  A    between atoms: C_21  and  C_22
REMARK   18  A    between atoms: C_22  and  C_23
REMARK   19  A    between atoms: C_23  and  O_25
REMARK   20  A    between atoms: S_26  and  C_27
REMARK   21  A    between atoms: C_27  and  C_28
REMARK   22  A    between atoms: C_28  and  C_29
REMARK   23  A    between atoms: C_29  and  O_31
REMARK                            x       y       z     vdW  Elec       q    Type
REMARK                         _______ _______ _______ _____ _____    ______ ____
ROOT
ATOM      1  C   UNL     1       5.572   6.750  17.700  0.00  0.00    +0.000 A 
ATOM      2  C   UNL     1       6.510   7.818  17.542  0.00  0.00    +0.000 A 
ATOM      3  C   UNL     1       7.815   7.720  18.008  0.00  0.00    +0.000 A 
ATOM      4  C   UNL     1       8.225   6.537  18.596  0.00  0.00    +0.000 A 
ATOM      5  C   UNL     1       7.322   5.487  18.776  0.00  0.00    +0.000 A 
ATOM      6  C   UNL     1       5.957   5.587  18.417  0.00  0.00    +0.000 A 
ENDROOT
BRANCH   6   7
ATOM      7  C   UNL     1       4.985   4.471  18.867  0.00  0.00    +0.000 C 
BRANCH   7   8
ATOM      8  S   UNL     1       4.306   3.390  17.497  0.00  0.00    +0.000 S 
BRANCH   8   9
ATOM      9  C   UNL     1       5.642   3.346  16.281  0.00  0.00    +0.000 C 
BRANCH   9  10
ATOM     10  C   UNL     1       5.325   4.206  15.073  0.00  0.00    +0.000 C 
BRANCH  10  11
ATOM     11  C   UNL     1       6.589   4.453  14.294  0.00  0.00    +0.000 C 
ATOM     12  O   UNL     1       7.459   5.247  14.613  0.00  0.00    +0.000 OA
BRANCH  11  13
ATOM     13  O   UNL     1       6.695   3.665  13.201  0.00  0.00    +0.000 OA
ATOM     14  H   UNL     1       6.852   2.721  13.398  0.00  0.00    +0.000 HD
ENDBRANCH  11  13
ENDBRANCH  10  11
ENDBRANCH   9  10
ENDBRANCH   8   9
ENDBRANCH   7   8
BRANCH   7  15
ATOM     15  S   UNL     1       3.441   5.122  19.679  0.00  0.00    +0.000 S 
BRANCH  15  16
ATOM     16  C   UNL     1       2.766   3.614  20.490  0.00  0.00    +0.000 C 
BRANCH  16  17
ATOM     17  C   UNL     1       1.288   3.354  20.223  0.00  0.00    +0.000 C 
BRANCH  17  18
ATOM     18  C   UNL     1       1.115   2.818  18.830  0.00  0.00    +0.000 C 
ATOM     19  O   UNL     1       0.731   3.503  17.885  0.00  0.00    +0.000 OA
BRANCH  18  20
ATOM     20  O   UNL     1       1.401   1.510  18.698  0.00  0.00    +0.000 OA
ATOM     21  H   UNL     1       0.888   0.915  19.287  0.00  0.00    +0.000 HD
ENDBRANCH  18  20
ENDBRANCH  17  18
ENDBRANCH  16  17
ENDBRANCH  15  16
ENDBRANCH   7  15
ENDBRANCH   6   7
BRANCH   1  22
ATOM     22  C   UNL     1       4.251   6.986  16.997  0.00  0.00    +0.000 C 
BRANCH  22  23
ATOM     23  C   UNL     1       3.575   8.274  17.469  0.00  0.00    +0.000 C 
BRANCH  23  24
ATOM     24  C   UNL     1       2.084   8.153  17.725  0.00  0.00    +0.000 C 
BRANCH  24  25
ATOM     25  C   UNL     1       1.545   9.348  18.486  0.00  0.00    +0.000 C 
BRANCH  25  26
ATOM     26  C   UNL     1       0.134   9.659  18.032  0.00  0.00    +0.000 C 
BRANCH  26  27
ATOM     27  C   UNL     1      -0.309  10.962  18.668  0.00  0.00    +0.000 C 
BRANCH  27  28
ATOM     28  C   UNL     1      -1.740  11.269  18.276  0.00  0.00    +0.000 C 
BRANCH  28  29
ATOM     29  C   UNL     1      -2.303  10.120  17.459  0.00  0.00    +0.000 C 
BRANCH  29  30
ATOM     30  C   UNL     1      -3.818  10.107  17.558  0.00  0.00    +0.000 C 
BRANCH  30  31
ATOM     31  C   UNL     1      -4.401  11.332  16.868  0.00  0.00    +0.000 C 
BRANCH  31  33
ATOM     32  C   UNL     1      -6.502  11.077  18.199  0.00  0.00    +0.000 C 
ATOM     33  C   UNL     1      -5.403  12.032  17.775  0.00  0.00    +0.000 C 
ENDBRANCH  31  33
ENDBRANCH  30  31
ENDBRANCH  29  30
ENDBRANCH  28  29
ENDBRANCH  27  28
ENDBRANCH  26  27
ENDBRANCH  25  26
ENDBRANCH  24  25
ENDBRANCH  23  24
ENDBRANCH  22  23
ENDBRANCH   1  22
TORSDOF 22
ENDMDL
