MODEL 1
REMARK VINA RESULT:      -7.0      0.000      0.000
REMARK  Name = 
REMARK  6 active torsions:
REMARK  status: ('A' for Active; 'I' for Inactive)
REMARK    1  A    between atoms: C_1  and  N_2
REMARK    2  A    between atoms: C_3  and  C_5
REMARK    3  A    between atoms: C_13  and  C_15
REMARK    4  A    between atoms: C_15  and  C_16
REMARK    5  A    between atoms: C_16  and  C_17
REMARK    6  A    between atoms: N_21  and  C_22
REMARK                            x       y       z     vdW  Elec       q    Type
REMARK                         _______ _______ _______ _____ _____    ______ ____
ROOT
ATOM      1  C   UNL     1       3.773   5.670  17.677  0.00  0.00    +0.000 A 
ATOM      2  C   UNL     1       3.465   7.009  17.531  0.00  0.00    +0.000 A 
ATOM      3  C   UNL     1       2.705   7.523  18.617  0.00  0.00    +0.000 A 
ATOM      4  C   UNL     1       2.466   6.550  19.568  0.00  0.00    +0.000 A 
ATOM      5  S   UNL     1       3.129   5.043  19.139  0.00  0.00    +0.000 S 
ATOM      6  C   UNL     1       1.667   6.787  20.818  0.00  0.00    +0.000 C 
ATOM      7  C   UNL     1       1.509   8.305  21.039  0.00  0.00    +0.000 C 
ATOM      8  N   UNL     1       1.181   8.996  19.781  0.00  0.00    +0.000 N 
ATOM      9  C   UNL     1      -0.017   9.690  19.662  0.00  0.00    +0.000 C 
ATOM     10  O   UNL     1      -0.860   9.710  20.558  0.00  0.00    +0.000 OA
ATOM     11  C   UNL     1       2.205   8.924  18.733  0.00  0.00    +0.000 C 
ENDROOT
BRANCH   1  14
ATOM     12  C   UNL     1       5.985   4.886  14.751  0.00  0.00    +0.000 C 
ATOM     13  N   UNL     1       5.232   5.578  15.761  0.00  0.00    +0.000 N 
ATOM     14  C   UNL     1       4.542   4.880  16.727  0.00  0.00    +0.000 C 
ATOM     15  O   UNL     1       4.584   3.651  16.777  0.00  0.00    +0.000 OA
ATOM     16  H   UNL     1       5.160   6.586  15.746  0.00  0.00    +0.000 HD
ENDBRANCH   1  14
BRANCH   9  17
ATOM     17  C   UNL     1      -0.257  10.387  18.331  0.00  0.00    +0.000 C 
BRANCH  17  18
ATOM     18  C   UNL     1      -1.634  11.025  18.192  0.00  0.00    +0.000 C 
BRANCH  18  19
ATOM     19  C   UNL     1      -2.716  10.001  17.757  0.00  0.00    +0.000 C 
ATOM     20  C   UNL     1      -2.553   9.471  16.321  0.00  0.00    +0.000 C 
ATOM     21  C   UNL     1      -2.805  10.575  15.300  0.00  0.00    +0.000 C 
ATOM     22  C   UNL     1      -4.175  11.218  15.526  0.00  0.00    +0.000 C 
ATOM     23  N   UNL     1      -4.342  11.690  16.908  0.00  0.00    +0.000 NA
ATOM     24  C   UNL     1      -5.666  12.281  17.089  0.00  0.00    +0.000 C 
ATOM     25  C   UNL     1      -4.125  10.612  17.886  0.00  0.00    +0.000 C 
ENDBRANCH  18  19
ENDBRANCH  17  18
ENDBRANCH   9  17
TORSDOF 4
ENDMDL
MODEL 2
REMARK VINA RESULT:      -6.9      3.318      4.511
REMARK  Name = 
REMARK  6 active torsions:
REMARK  status: ('A' for Active; 'I' for Inactive)
REMARK    1  A    between atoms: C_1  and  N_2
REMARK    2  A    between atoms: C_3  and  C_5
REMARK    3  A    between atoms: C_13  and  C_15
REMARK    4  A    between atoms: C_15  and  C_16
REMARK    5  A    between atoms: C_16  and  C_17
REMARK    6  A    between atoms: N_21  and  C_22
REMARK                            x       y       z     vdW  Elec       q    Type
REMARK                         _______ _______ _______ _____ _____    ______ ____
ROOT
ATOM      1  C   UNL     1       5.958   4.708  14.993  0.00  0.00    +0.000 A 
ATOM      2  C   UNL     1       5.554   5.953  15.436  0.00  0.00    +0.000 A 
ATOM      3  C   UNL     1       4.986   5.917  16.739  0.00  0.00    +0.000 A 
ATOM      4  C   UNL     1       4.987   4.635  17.253  0.00  0.00    +0.000 A 
ATOM      5  S   UNL     1       5.640   3.499  16.168  0.00  0.00    +0.000 S 
ATOM      6  C   UNL     1       4.428   4.279  18.602  0.00  0.00    +0.000 C 
ATOM      7  C   UNL     1       4.230   5.566  19.425  0.00  0.00    +0.000 C 
ATOM      8  N   UNL     1       3.631   6.635  18.609  0.00  0.00    +0.000 N 
ATOM      9  C   UNL     1       2.395   7.166  18.959  0.00  0.00    +0.000 C 
ATOM     10  O   UNL     1       1.738   6.740  19.907  0.00  0.00    +0.000 OA
ATOM     11  C   UNL     1       4.440   7.095  17.474  0.00  0.00    +0.000 C 
ENDROOT
BRANCH   1  14
ATOM     12  C   UNL     1       6.704   2.956  11.761  0.00  0.00    +0.000 C 
ATOM     13  N   UNL     1       6.126   3.330  13.022  0.00  0.00    +0.000 N 
ATOM     14  C   UNL     1       6.576   4.440  13.702  0.00  0.00    +0.000 C 
ATOM     15  O   UNL     1       7.453   5.163  13.232  0.00  0.00    +0.000 OA
ATOM     16  H   UNL     1       5.414   2.754  13.451  0.00  0.00    +0.000 HD
ENDBRANCH   1  14
BRANCH   9  17
ATOM     17  C   UNL     1       1.868   8.280  18.065  0.00  0.00    +0.000 C 
BRANCH  17  18
ATOM     18  C   UNL     1       1.720   9.629  18.758  0.00  0.00    +0.000 C 
BRANCH  18  19
ATOM     19  C   UNL     1       0.235  10.040  18.936  0.00  0.00    +0.000 C 
ATOM     20  C   UNL     1      -0.036  11.546  18.766  0.00  0.00    +0.000 C 
ATOM     21  C   UNL     1       0.601  12.345  19.899  0.00  0.00    +0.000 C 
ATOM     22  C   UNL     1       0.129  11.824  21.258  0.00  0.00    +0.000 C 
ATOM     23  N   UNL     1       0.355  10.379  21.403  0.00  0.00    +0.000 NA
ATOM     24  C   UNL     1      -0.121   9.916  22.705  0.00  0.00    +0.000 C 
ATOM     25  C   UNL     1      -0.285   9.612  20.322  0.00  0.00    +0.000 C 
ENDBRANCH  18  19
ENDBRANCH  17  18
ENDBRANCH   9  17
TORSDOF 4
ENDMDL
MODEL 3
REMARK VINA RESULT:      -6.8      4.204      8.089
REMARK  Name = 
REMARK  6 active torsions:
REMARK  status: ('A' for Active; 'I' for Inactive)
REMARK    1  A    between atoms: C_1  and  N_2
REMARK    2  A    between atoms: C_3  and  C_5
REMARK    3  A    between atoms: C_13  and  C_15
REMARK    4  A    between atoms: C_15  and  C_16
REMARK    5  A    between atoms: C_16  and  C_17
REMARK    6  A    between atoms: N_21  and  C_22
REMARK                            x       y       z     vdW  Elec       q    Type
REMARK                         _______ _______ _______ _____ _____    ______ ____
ROOT
ATOM      1  C   UNL     1       1.654  13.380  19.081  0.00  0.00    +0.000 A 
ATOM      2  C   UNL     1       1.604  12.191  18.379  0.00  0.00    +0.000 A 
ATOM      3  C   UNL     1       1.216  11.088  19.187  0.00  0.00    +0.000 A 
ATOM      4  C   UNL     1       0.971  11.480  20.489  0.00  0.00    +0.000 A 
ATOM      5  S   UNL     1       1.231  13.144  20.728  0.00  0.00    +0.000 S 
ATOM      6  C   UNL     1       0.569  10.531  21.583  0.00  0.00    +0.000 C 
ATOM      7  C   UNL     1       0.116   9.198  20.955  0.00  0.00    +0.000 C 
ATOM      8  N   UNL     1       1.026   8.778  19.877  0.00  0.00    +0.000 N 
ATOM      9  C   UNL     1       1.721   7.579  19.983  0.00  0.00    +0.000 C 
ATOM     10  O   UNL     1       1.653   6.862  20.980  0.00  0.00    +0.000 OA
ATOM     11  C   UNL     1       1.094   9.677  18.719  0.00  0.00    +0.000 C 
ENDROOT
BRANCH   1  14
ATOM     12  C   UNL     1       3.620  15.946  17.178  0.00  0.00    +0.000 C 
ATOM     13  N   UNL     1       3.156  14.709  17.745  0.00  0.00    +0.000 N 
ATOM     14  C   UNL     1       2.015  14.671  18.515  0.00  0.00    +0.000 C 
ATOM     15  O   UNL     1       1.341  15.683  18.705  0.00  0.00    +0.000 OA
ATOM     16  H   UNL     1       3.690  13.859  17.625  0.00  0.00    +0.000 HD
ENDBRANCH   1  14
BRANCH   9  17
ATOM     17  C   UNL     1       2.623   7.223  18.810  0.00  0.00    +0.000 C 
BRANCH  17  18
ATOM     18  C   UNL     1       2.341   5.860  18.189  0.00  0.00    +0.000 C 
BRANCH  18  19
ATOM     19  C   UNL     1       3.536   4.884  18.346  0.00  0.00    +0.000 C 
ATOM     20  C   UNL     1       3.550   3.723  17.334  0.00  0.00    +0.000 C 
ATOM     21  C   UNL     1       2.389   2.767  17.585  0.00  0.00    +0.000 C 
ATOM     22  C   UNL     1       2.401   2.270  19.033  0.00  0.00    +0.000 C 
ATOM     23  N   UNL     1       2.426   3.380  19.996  0.00  0.00    +0.000 NA
ATOM     24  C   UNL     1       2.454   2.868  21.364  0.00  0.00    +0.000 C 
ATOM     25  C   UNL     1       3.565   4.283  19.765  0.00  0.00    +0.000 C 
ENDBRANCH  18  19
ENDBRANCH  17  18
ENDBRANCH   9  17
TORSDOF 4
ENDMDL
MODEL 4
REMARK VINA RESULT:      -6.8      3.032      4.289
REMARK  Name = 
REMARK  6 active torsions:
REMARK  status: ('A' for Active; 'I' for Inactive)
REMARK    1  A    between atoms: C_1  and  N_2
REMARK    2  A    between atoms: C_3  and  C_5
REMARK    3  A    between atoms: C_13  and  C_15
REMARK    4  A    between atoms: C_15  and  C_16
REMARK    5  A    between atoms: C_16  and  C_17
REMARK    6  A    between atoms: N_21  and  C_22
REMARK                            x       y       z     vdW  Elec       q    Type
REMARK                         _______ _______ _______ _____ _____    ______ ____
ROOT
ATOM      1  C   UNL     1       5.979   4.781  14.947  0.00  0.00    +0.000 A 
ATOM      2  C   UNL     1       5.515   6.018  15.350  0.00  0.00    +0.000 A 
ATOM      3  C   UNL     1       4.963   6.001  16.660  0.00  0.00    +0.000 A 
ATOM      4  C   UNL     1       5.035   4.740  17.219  0.00  0.00    +0.000 A 
ATOM      5  S   UNL     1       5.734   3.601  16.169  0.00  0.00    +0.000 S 
ATOM      6  C   UNL     1       4.507   4.405  18.586  0.00  0.00    +0.000 C 
ATOM      7  C   UNL     1       4.252   5.710  19.365  0.00  0.00    +0.000 C 
ATOM      8  N   UNL     1       3.591   6.717  18.518  0.00  0.00    +0.000 N 
ATOM      9  C   UNL     1       2.333   7.197  18.863  0.00  0.00    +0.000 C 
ATOM     10  O   UNL     1       1.708   6.772  19.833  0.00  0.00    +0.000 OA
ATOM     11  C   UNL     1       4.364   7.175  17.359  0.00  0.00    +0.000 C 
ENDROOT
BRANCH   1  14
ATOM     12  C   UNL     1       6.746   2.977  11.748  0.00  0.00    +0.000 C 
ATOM     13  N   UNL     1       6.165   3.366  13.004  0.00  0.00    +0.000 N 
ATOM     14  C   UNL     1       6.597   4.498  13.660  0.00  0.00    +0.000 C 
ATOM     15  O   UNL     1       7.459   5.227  13.172  0.00  0.00    +0.000 OA
ATOM     16  H   UNL     1       5.465   2.786  13.447  0.00  0.00    +0.000 HD
ENDBRANCH   1  14
BRANCH   9  17
ATOM     17  C   UNL     1       1.741   8.249  17.936  0.00  0.00    +0.000 C 
BRANCH  17  18
ATOM     18  C   UNL     1       1.702   9.655  18.522  0.00  0.00    +0.000 C 
BRANCH  18  19
ATOM     19  C   UNL     1       0.540   9.839  19.533  0.00  0.00    +0.000 C 
ATOM     20  C   UNL     1      -0.817  10.182  18.892  0.00  0.00    +0.000 C 
ATOM     21  C   UNL     1      -0.788  11.571  18.264  0.00  0.00    +0.000 C 
ATOM     22  C   UNL     1      -0.353  12.620  19.290  0.00  0.00    +0.000 C 
ATOM     23  N   UNL     1       0.925  12.271  19.928  0.00  0.00    +0.000 NA
ATOM     24  C   UNL     1       1.298  13.285  20.911  0.00  0.00    +0.000 C 
ATOM     25  C   UNL     1       0.880  10.941  20.556  0.00  0.00    +0.000 C 
ENDBRANCH  18  19
ENDBRANCH  17  18
ENDBRANCH   9  17
TORSDOF 4
ENDMDL
MODEL 5
REMARK VINA RESULT:      -6.7      3.308      8.183
REMARK  Name = 
REMARK  6 active torsions:
REMARK  status: ('A' for Active; 'I' for Inactive)
REMARK    1  A    between atoms: C_1  and  N_2
REMARK    2  A    between atoms: C_3  and  C_5
REMARK    3  A    between atoms: C_13  and  C_15
REMARK    4  A    between atoms: C_15  and  C_16
REMARK    5  A    between atoms: C_16  and  C_17
REMARK    6  A    between atoms: N_21  and  C_22
REMARK                            x       y       z     vdW  Elec       q    Type
REMARK                         _______ _______ _______ _____ _____    ______ ____
ROOT
ATOM      1  C   UNL     1       1.809   8.840  18.959  0.00  0.00    +0.000 A 
ATOM      2  C   UNL     1       2.396   7.885  18.152  0.00  0.00    +0.000 A 
ATOM      3  C   UNL     1       2.431   6.598  18.755  0.00  0.00    +0.000 A 
ATOM      4  C   UNL     1       1.855   6.616  20.011  0.00  0.00    +0.000 A 
ATOM      5  S   UNL     1       1.306   8.163  20.454  0.00  0.00    +0.000 S 
ATOM      6  C   UNL     1       1.768   5.410  20.904  0.00  0.00    +0.000 C 
ATOM      7  C   UNL     1       2.052   4.143  20.073  0.00  0.00    +0.000 C 
ATOM      8  N   UNL     1       3.197   4.342  19.170  0.00  0.00    +0.000 N 
ATOM      9  C   UNL     1       4.332   3.550  19.302  0.00  0.00    +0.000 C 
ATOM     10  O   UNL     1       4.450   2.709  20.191  0.00  0.00    +0.000 OA
ATOM     11  C   UNL     1       3.020   5.373  18.141  0.00  0.00    +0.000 C 
ENDROOT
BRANCH   1  14
ATOM     12  C   UNL     1       0.256  12.253  18.827  0.00  0.00    +0.000 C 
ATOM     13  N   UNL     1       0.542  10.882  19.152  0.00  0.00    +0.000 N 
ATOM     14  C   UNL     1       1.631  10.241  18.603  0.00  0.00    +0.000 C 
ATOM     15  O   UNL     1       2.408  10.832  17.856  0.00  0.00    +0.000 OA
ATOM     16  H   UNL     1      -0.080  10.356  19.751  0.00  0.00    +0.000 HD
ENDBRANCH   1  14
BRANCH   9  17
ATOM     17  C   UNL     1       5.454   3.820  18.310  0.00  0.00    +0.000 C 
BRANCH  17  18
ATOM     18  C   UNL     1       6.512   4.799  18.805  0.00  0.00    +0.000 C 
BRANCH  18  19
ATOM     19  C   UNL     1       7.389   5.351  17.651  0.00  0.00    +0.000 C 
ATOM     20  C   UNL     1       7.289   6.875  17.445  0.00  0.00    +0.000 C 
ATOM     21  C   UNL     1       5.904   7.268  16.942  0.00  0.00    +0.000 C 
ATOM     22  C   UNL     1       5.551   6.490  15.672  0.00  0.00    +0.000 C 
ATOM     23  N   UNL     1       5.683   5.038  15.859  0.00  0.00    +0.000 NA
ATOM     24  C   UNL     1       5.353   4.332  14.623  0.00  0.00    +0.000 C 
ATOM     25  C   UNL     1       7.030   4.664  16.319  0.00  0.00    +0.000 C 
ENDBRANCH  18  19
ENDBRANCH  17  18
ENDBRANCH   9  17
TORSDOF 4
ENDMDL
MODEL 6
REMARK VINA RESULT:      -6.7      4.033      8.929
REMARK  Name = 
REMARK  6 active torsions:
REMARK  status: ('A' for Active; 'I' for Inactive)
REMARK    1  A    between atoms: C_1  and  N_2
REMARK    2  A    between atoms: C_3  and  C_5
REMARK    3  A    between atoms: C_13  and  C_15
REMARK    4  A    between atoms: C_15  and  C_16
REMARK    5  A    between atoms: C_16  and  C_17
REMARK    6  A    between atoms: N_21  and  C_22
REMARK                            x       y       z     vdW  Elec       q    Type
REMARK                         _______ _______ _______ _____ _____    ______ ____
ROOT
ATOM      1  C   UNL     1      -2.095  12.356  22.332  0.00  0.00    +0.000 A 
ATOM      2  C   UNL     1      -0.915  11.661  22.512  0.00  0.00    +0.000 A 
ATOM      3  C   UNL     1      -0.295  11.298  21.285  0.00  0.00    +0.000 A 
ATOM      4  C   UNL     1      -1.027  11.742  20.201  0.00  0.00    +0.000 A 
ATOM      5  S   UNL     1      -2.445  12.559  20.664  0.00  0.00    +0.000 S 
ATOM      6  C   UNL     1      -0.636  11.487  18.772  0.00  0.00    +0.000 C 
ATOM      7  C   UNL     1       0.832  11.023  18.724  0.00  0.00    +0.000 C 
ATOM      8  N   UNL     1       1.117  10.038  19.780  0.00  0.00    +0.000 N 
ATOM      9  C   UNL     1       1.528   8.754  19.439  0.00  0.00    +0.000 C 
ATOM     10  O   UNL     1       1.615   8.377  18.272  0.00  0.00    +0.000 OA
ATOM     11  C   UNL     1       0.975  10.525  21.156  0.00  0.00    +0.000 C 
ENDROOT
BRANCH   1  14
ATOM     12  C   UNL     1      -4.791  12.400  24.940  0.00  0.00    +0.000 C 
ATOM     13  N   UNL     1      -3.879  11.984  23.910  0.00  0.00    +0.000 N 
ATOM     14  C   UNL     1      -2.942  12.858  23.404  0.00  0.00    +0.000 C 
ATOM     15  O   UNL     1      -2.834  14.001  23.845  0.00  0.00    +0.000 OA
ATOM     16  H   UNL     1      -3.945  11.058  23.509  0.00  0.00    +0.000 HD
ENDBRANCH   1  14
BRANCH   9  17
ATOM     17  C   UNL     1       1.815   7.814  20.601  0.00  0.00    +0.000 C 
BRANCH  17  18
ATOM     18  C   UNL     1       1.287   6.397  20.412  0.00  0.00    +0.000 C 
BRANCH  18  19
ATOM     19  C   UNL     1       2.411   5.332  20.504  0.00  0.00    +0.000 C 
ATOM     20  C   UNL     1       3.563   5.530  19.501  0.00  0.00    +0.000 C 
ATOM     21  C   UNL     1       3.087   5.294  18.072  0.00  0.00    +0.000 C 
ATOM     22  C   UNL     1       2.438   3.914  17.939  0.00  0.00    +0.000 C 
ATOM     23  N   UNL     1       1.363   3.714  18.922  0.00  0.00    +0.000 NA
ATOM     24  C   UNL     1       0.779   2.382  18.776  0.00  0.00    +0.000 C 
ATOM     25  C   UNL     1       1.836   3.916  20.301  0.00  0.00    +0.000 C 
ENDBRANCH  18  19
ENDBRANCH  17  18
ENDBRANCH   9  17
TORSDOF 4
ENDMDL
MODEL 7
REMARK VINA RESULT:      -6.7      4.030      9.208
REMARK  Name = 
REMARK  6 active torsions:
REMARK  status: ('A' for Active; 'I' for Inactive)
REMARK    1  A    between atoms: C_1  and  N_2
REMARK    2  A    between atoms: C_3  and  C_5
REMARK    3  A    between atoms: C_13  and  C_15
REMARK    4  A    between atoms: C_15  and  C_16
REMARK    5  A    between atoms: C_16  and  C_17
REMARK    6  A    between atoms: N_21  and  C_22
REMARK                            x       y       z     vdW  Elec       q    Type
REMARK                         _______ _______ _______ _____ _____    ______ ____
ROOT
ATOM      1  C   UNL     1      -2.040  12.152  22.276  0.00  0.00    +0.000 A 
ATOM      2  C   UNL     1      -0.988  11.306  22.570  0.00  0.00    +0.000 A 
ATOM      3  C   UNL     1      -0.235  10.940  21.420  0.00  0.00    +0.000 A 
ATOM      4  C   UNL     1      -0.740  11.535  20.280  0.00  0.00    +0.000 A 
ATOM      5  S   UNL     1      -2.107  12.494  20.595  0.00  0.00    +0.000 S 
ATOM      6  C   UNL     1      -0.169  11.316  18.906  0.00  0.00    +0.000 C 
ATOM      7  C   UNL     1       1.227  10.676  19.033  0.00  0.00    +0.000 C 
ATOM      8  N   UNL     1       1.234   9.603  20.041  0.00  0.00    +0.000 N 
ATOM      9  C   UNL     1       1.541   8.300  19.666  0.00  0.00    +0.000 C 
ATOM     10  O   UNL     1       1.760   7.984  18.498  0.00  0.00    +0.000 OA
ATOM     11  C   UNL     1       0.942  10.024  21.416  0.00  0.00    +0.000 C 
ENDROOT
BRANCH   1  14
ATOM     12  C   UNL     1      -3.438  14.447  24.894  0.00  0.00    +0.000 C 
ATOM     13  N   UNL     1      -2.602  13.858  23.883  0.00  0.00    +0.000 N 
ATOM     14  C   UNL     1      -2.976  12.693  23.250  0.00  0.00    +0.000 C 
ATOM     15  O   UNL     1      -4.050  12.149  23.501  0.00  0.00    +0.000 OA
ATOM     16  H   UNL     1      -1.704  14.266  23.659  0.00  0.00    +0.000 HD
ENDBRANCH   1  14
BRANCH   9  17
ATOM     17  C   UNL     1       1.539   7.266  20.782  0.00  0.00    +0.000 C 
BRANCH  17  18
ATOM     18  C   UNL     1       2.329   6.000  20.471  0.00  0.00    +0.000 C 
BRANCH  18  19
ATOM     19  C   UNL     1       1.421   4.849  19.964  0.00  0.00    +0.000 C 
ATOM     20  C   UNL     1       1.272   3.673  20.947  0.00  0.00    +0.000 C 
ATOM     21  C   UNL     1       2.590   2.924  21.105  0.00  0.00    +0.000 C 
ATOM     22  C   UNL     1       3.122   2.473  19.743  0.00  0.00    +0.000 C 
ATOM     23  N   UNL     1       3.229   3.591  18.795  0.00  0.00    +0.000 NA
ATOM     24  C   UNL     1       3.724   3.120  17.503  0.00  0.00    +0.000 C 
ATOM     25  C   UNL     1       1.946   4.292  18.626  0.00  0.00    +0.000 C 
ENDBRANCH  18  19
ENDBRANCH  17  18
ENDBRANCH   9  17
TORSDOF 4
ENDMDL
MODEL 8
REMARK VINA RESULT:      -6.7      2.455      4.046
REMARK  Name = 
REMARK  6 active torsions:
REMARK  status: ('A' for Active; 'I' for Inactive)
REMARK    1  A    between atoms: C_1  and  N_2
REMARK    2  A    between atoms: C_3  and  C_5
REMARK    3  A    between atoms: C_13  and  C_15
REMARK    4  A    between atoms: C_15  and  C_16
REMARK    5  A    between atoms: C_16  and  C_17
REMARK    6  A    between atoms: N_21  and  C_22
REMARK                            x       y       z     vdW  Elec       q    Type
REMARK                         _______ _______ _______ _____ _____    ______ ____
ROOT
ATOM      1  C   UNL     1       5.966   4.705  15.298  0.00  0.00    +0.000 A 
ATOM      2  C   UNL     1       5.626   5.887  15.926  0.00  0.00    +0.000 A 
ATOM      3  C   UNL     1       5.004   5.683  17.188  0.00  0.00    +0.000 A 
ATOM      4  C   UNL     1       4.899   4.338  17.485  0.00  0.00    +0.000 A 
ATOM      5  S   UNL     1       5.520   3.348  16.250  0.00  0.00    +0.000 S 
ATOM      6  C   UNL     1       4.262   3.810  18.740  0.00  0.00    +0.000 C 
ATOM      7  C   UNL     1       4.115   4.959  19.756  0.00  0.00    +0.000 C 
ATOM      8  N   UNL     1       3.622   6.186  19.108  0.00  0.00    +0.000 N 
ATOM      9  C   UNL     1       2.410   6.740  19.502  0.00  0.00    +0.000 C 
ATOM     10  O   UNL     1       1.688   6.214  20.348  0.00  0.00    +0.000 OA
ATOM     11  C   UNL     1       4.506   6.763  18.089  0.00  0.00    +0.000 C 
ENDROOT
BRANCH   1  14
ATOM     12  C   UNL     1       6.846   3.347  11.913  0.00  0.00    +0.000 C 
ATOM     13  N   UNL     1       6.229   3.557  13.195  0.00  0.00    +0.000 N 
ATOM     14  C   UNL     1       6.618   4.604  14.000  0.00  0.00    +0.000 C 
ATOM     15  O   UNL     1       7.470   5.410  13.630  0.00  0.00    +0.000 OA
ATOM     16  H   UNL     1       5.535   2.908  13.542  0.00  0.00    +0.000 HD
ENDBRANCH   1  14
BRANCH   9  17
ATOM     17  C   UNL     1       1.995   8.017  18.787  0.00  0.00    +0.000 C 
BRANCH  17  18
ATOM     18  C   UNL     1       1.327   9.054  19.683  0.00  0.00    +0.000 C 
BRANCH  18  19
ATOM     19  C   UNL     1       1.109  10.407  18.957  0.00  0.00    +0.000 C 
ATOM     20  C   UNL     1       0.903  11.610  19.896  0.00  0.00    +0.000 C 
ATOM     21  C   UNL     1      -0.418  11.495  20.648  0.00  0.00    +0.000 C 
ATOM     22  C   UNL     1      -1.583  11.320  19.671  0.00  0.00    +0.000 C 
ATOM     23  N   UNL     1      -1.367  10.193  18.751  0.00  0.00    +0.000 NA
ATOM     24  C   UNL     1      -2.489  10.068  17.824  0.00  0.00    +0.000 C 
ATOM     25  C   UNL     1      -0.103  10.326  18.008  0.00  0.00    +0.000 C 
ENDBRANCH  18  19
ENDBRANCH  17  18
ENDBRANCH   9  17
TORSDOF 4
ENDMDL
MODEL 9
REMARK VINA RESULT:      -6.7      3.337      4.992
REMARK  Name = 
REMARK  6 active torsions:
REMARK  status: ('A' for Active; 'I' for Inactive)
REMARK    1  A    between atoms: C_1  and  N_2
REMARK    2  A    between atoms: C_3  and  C_5
REMARK    3  A    between atoms: C_13  and  C_15
REMARK    4  A    between atoms: C_15  and  C_16
REMARK    5  A    between atoms: C_16  and  C_17
REMARK    6  A    between atoms: N_21  and  C_22
REMARK                            x       y       z     vdW  Elec       q    Type
REMARK                         _______ _______ _______ _____ _____    ______ ____
ROOT
ATOM      1  C   UNL     1       5.795   4.425  15.851  0.00  0.00    +0.000 A 
ATOM      2  C   UNL     1       5.588   5.341  16.864  0.00  0.00    +0.000 A 
ATOM      3  C   UNL     1       4.755   4.840  17.902  0.00  0.00    +0.000 A 
ATOM      4  C   UNL     1       4.360   3.541  17.645  0.00  0.00    +0.000 A 
ATOM      5  S   UNL     1       4.967   2.955  16.169  0.00  0.00    +0.000 S 
ATOM      6  C   UNL     1       3.454   2.753  18.549  0.00  0.00    +0.000 C 
ATOM      7  C   UNL     1       3.370   3.454  19.919  0.00  0.00    +0.000 C 
ATOM      8  N   UNL     1       3.216   4.910  19.765  0.00  0.00    +0.000 N 
ATOM      9  C   UNL     1       2.081   5.545  20.258  0.00  0.00    +0.000 C 
ATOM     10  O   UNL     1       1.155   4.927  20.781  0.00  0.00    +0.000 OA
ATOM     11  C   UNL     1       4.335   5.600  19.114  0.00  0.00    +0.000 C 
ENDROOT
BRANCH   1  14
ATOM     12  C   UNL     1       7.100   4.003  12.360  0.00  0.00    +0.000 C 
ATOM     13  N   UNL     1       6.325   3.879  13.564  0.00  0.00    +0.000 N 
ATOM     14  C   UNL     1       6.606   4.658  14.665  0.00  0.00    +0.000 C 
ATOM     15  O   UNL     1       7.496   5.506  14.635  0.00  0.00    +0.000 OA
ATOM     16  H   UNL     1       5.595   3.183  13.635  0.00  0.00    +0.000 HD
ENDBRANCH   1  14
BRANCH   9  17
ATOM     17  C   UNL     1       2.023   7.053  20.068  0.00  0.00    +0.000 C 
BRANCH  17  18
ATOM     18  C   UNL     1       0.995   7.760  20.943  0.00  0.00    +0.000 C 
BRANCH  18  19
ATOM     19  C   UNL     1       1.505   9.130  21.462  0.00  0.00    +0.000 C 
ATOM     20  C   UNL     1       1.215   9.398  22.950  0.00  0.00    +0.000 C 
ATOM     21  C   UNL     1      -0.282   9.560  23.194  0.00  0.00    +0.000 C 
ATOM     22  C   UNL     1      -0.861  10.650  22.288  0.00  0.00    +0.000 C 
ATOM     23  N   UNL     1      -0.551  10.411  20.871  0.00  0.00    +0.000 NA
ATOM     24  C   UNL     1      -1.105  11.478  20.041  0.00  0.00    +0.000 C 
ATOM     25  C   UNL     1       0.897  10.283  20.640  0.00  0.00    +0.000 C 
ENDBRANCH  18  19
ENDBRANCH  17  18
ENDBRANCH   9  17
TORSDOF 4
ENDMDL
