MODEL 1
REMARK VINA RESULT:      -6.8      0.000      0.000
REMARK  Name = 
REMARK  8 active torsions:
REMARK  status: ('A' for Active; 'I' for Inactive)
REMARK    1  A    between atoms: C_1  and  C_2
REMARK    2  A    between atoms: C_2  and  C_3
REMARK    3  A    between atoms: C_2  and  C_4
REMARK    4  A    between atoms: C_4  and  C_5
REMARK    5  A    between atoms: C_5  and  N_6
REMARK    6  A    between atoms: C_5  and  C_7
REMARK    7  A    between atoms: N_9  and  C_10
REMARK    8  A    between atoms: C_13  and  C_14
REMARK                            x       y       z     vdW  Elec       q    Type
REMARK                         _______ _______ _______ _____ _____    ______ ____
ROOT
ATOM      1  C   UNL     1       2.814   4.269  17.687  0.00  0.00    +0.000 C 
ATOM      2  O   UNL     1       1.646   4.211  17.315  0.00  0.00    +0.000 OA
ATOM      3  N   UNL     1       3.344   5.203  18.560  0.00  0.00    +0.000 N 
ATOM      4  H   UNL     1       4.359   5.174  18.628  0.00  0.00    +0.000 HD
ENDROOT
BRANCH   3   5
ATOM      5  C   UNL     1       2.639   6.242  19.197  0.00  0.00    +0.000 A 
ATOM      6  C   UNL     1       2.024   6.083  20.435  0.00  0.00    +0.000 A 
ATOM      7  C   UNL     1       1.300   7.127  21.014  0.00  0.00    +0.000 A 
ATOM      8  C   UNL     1       1.182   8.376  20.389  0.00  0.00    +0.000 A 
ATOM      9  C   UNL     1       1.833   8.534  19.154  0.00  0.00    +0.000 A 
ATOM     10  C   UNL     1       2.558   7.485  18.565  0.00  0.00    +0.000 A 
BRANCH   8  11
ATOM     11  C   UNL     1       0.388   9.459  21.013  0.00  0.00    +0.000 A 
ATOM     12  C   UNL     1      -0.029  10.577  20.271  0.00  0.00    +0.000 A 
ATOM     13  C   UNL     1      -0.736  11.590  20.901  0.00  0.00    +0.000 A 
ATOM     14  N   UNL     1      -1.072  11.571  22.203  0.00  0.00    +0.000 NA
ATOM     15  C   UNL     1      -0.677  10.491  22.909  0.00  0.00    +0.000 A 
ATOM     16  C   UNL     1       0.041   9.433  22.368  0.00  0.00    +0.000 A 
ENDBRANCH   8  11
ENDBRANCH   3   5
BRANCH   1  17
ATOM     17  C   UNL     1       3.849   3.219  17.231  0.00  0.00    +0.000 C 
BRANCH  17  18
ATOM     18  N   UNL     1       4.091   2.224  18.306  0.00  0.00    +0.000 NA
ATOM     19  H   UNL     1       5.091   2.011  18.329  0.00  0.00    +0.000 HD
ATOM     20  H   UNL     1       3.641   1.348  18.032  0.00  0.00    +0.000 HD
ENDBRANCH  17  18
BRANCH  17  21
ATOM     21  C   UNL     1       5.135   3.942  16.787  0.00  0.00    +0.000 C 
BRANCH  21  23
ATOM     22  C   UNL     1       5.295   6.211  15.656  0.00  0.00    +0.000 C 
ATOM     23  C   UNL     1       5.061   4.714  15.458  0.00  0.00    +0.000 C 
ATOM     24  C   UNL     1       6.103   4.153  14.483  0.00  0.00    +0.000 C 
ENDBRANCH  21  23
ENDBRANCH  17  21
ENDBRANCH   1  17
TORSDOF 6
ENDMDL
MODEL 2
REMARK VINA RESULT:      -6.8      1.573      2.204
REMARK  Name = 
REMARK  8 active torsions:
REMARK  status: ('A' for Active; 'I' for Inactive)
REMARK    1  A    between atoms: C_1  and  C_2
REMARK    2  A    between atoms: C_2  and  C_3
REMARK    3  A    between atoms: C_2  and  C_4
REMARK    4  A    between atoms: C_4  and  C_5
REMARK    5  A    between atoms: C_5  and  N_6
REMARK    6  A    between atoms: C_5  and  C_7
REMARK    7  A    between atoms: N_9  and  C_10
REMARK    8  A    between atoms: C_13  and  C_14
REMARK                            x       y       z     vdW  Elec       q    Type
REMARK                         _______ _______ _______ _____ _____    ______ ____
ROOT
ATOM      1  C   UNL     1       4.800   5.725  17.098  0.00  0.00    +0.000 C 
ATOM      2  O   UNL     1       5.538   6.687  17.291  0.00  0.00    +0.000 OA
ATOM      3  N   UNL     1       3.524   5.563  17.608  0.00  0.00    +0.000 N 
ATOM      4  H   UNL     1       3.134   4.636  17.455  0.00  0.00    +0.000 HD
ENDROOT
BRANCH   3   5
ATOM      5  C   UNL     1       2.830   6.479  18.422  0.00  0.00    +0.000 A 
ATOM      6  C   UNL     1       2.475   7.751  17.988  0.00  0.00    +0.000 A 
ATOM      7  C   UNL     1       1.823   8.644  18.841  0.00  0.00    +0.000 A 
ATOM      8  C   UNL     1       1.480   8.289  20.152  0.00  0.00    +0.000 A 
ATOM      9  C   UNL     1       1.816   6.990  20.571  0.00  0.00    +0.000 A 
ATOM     10  C   UNL     1       2.478   6.091  19.717  0.00  0.00    +0.000 A 
BRANCH   8  11
ATOM     11  C   UNL     1       0.810   9.262  21.046  0.00  0.00    +0.000 A 
ATOM     12  C   UNL     1       0.607  10.595  20.651  0.00  0.00    +0.000 A 
ATOM     13  C   UNL     1       0.014  11.486  21.532  0.00  0.00    +0.000 A 
ATOM     14  N   UNL     1      -0.406  11.153  22.765  0.00  0.00    +0.000 NA
ATOM     15  C   UNL     1      -0.218   9.869  23.136  0.00  0.00    +0.000 A 
ATOM     16  C   UNL     1       0.375   8.909  22.327  0.00  0.00    +0.000 A 
ENDBRANCH   8  11
ENDBRANCH   3   5
BRANCH   1  17
ATOM     17  C   UNL     1       5.230   4.564  16.176  0.00  0.00    +0.000 C 
BRANCH  17  18
ATOM     18  N   UNL     1       6.320   3.775  16.804  0.00  0.00    +0.000 NA
ATOM     19  H   UNL     1       5.955   3.341  17.654  0.00  0.00    +0.000 HD
ATOM     20  H   UNL     1       7.036   4.429  17.127  0.00  0.00    +0.000 HD
ENDBRANCH  17  18
BRANCH  17  21
ATOM     21  C   UNL     1       5.623   5.135  14.800  0.00  0.00    +0.000 C 
BRANCH  21  23
ATOM     22  C   UNL     1       5.729   3.528  12.836  0.00  0.00    +0.000 C 
ATOM     23  C   UNL     1       6.524   4.249  13.923  0.00  0.00    +0.000 C 
ATOM     24  C   UNL     1       7.617   5.110  13.279  0.00  0.00    +0.000 C 
ENDBRANCH  21  23
ENDBRANCH  17  21
ENDBRANCH   1  17
TORSDOF 6
ENDMDL
MODEL 3
REMARK VINA RESULT:      -6.8      0.729      1.463
REMARK  Name = 
REMARK  8 active torsions:
REMARK  status: ('A' for Active; 'I' for Inactive)
REMARK    1  A    between atoms: C_1  and  C_2
REMARK    2  A    between atoms: C_2  and  C_3
REMARK    3  A    between atoms: C_2  and  C_4
REMARK    4  A    between atoms: C_4  and  C_5
REMARK    5  A    between atoms: C_5  and  N_6
REMARK    6  A    between atoms: C_5  and  C_7
REMARK    7  A    between atoms: N_9  and  C_10
REMARK    8  A    between atoms: C_13  and  C_14
REMARK                            x       y       z     vdW  Elec       q    Type
REMARK                         _______ _______ _______ _____ _____    ______ ____
ROOT
ATOM      1  C   UNL     1       3.068   4.634  17.672  0.00  0.00    +0.000 C 
ATOM      2  O   UNL     1       1.918   4.207  17.662  0.00  0.00    +0.000 OA
ATOM      3  N   UNL     1       3.488   5.829  18.230  0.00  0.00    +0.000 N 
ATOM      4  H   UNL     1       4.450   6.073  18.006  0.00  0.00    +0.000 HD
ENDROOT
BRANCH   3   5
ATOM      5  C   UNL     1       2.679   6.760  18.908  0.00  0.00    +0.000 A 
ATOM      6  C   UNL     1       2.358   8.005  18.376  0.00  0.00    +0.000 A 
ATOM      7  C   UNL     1       1.585   8.916  19.100  0.00  0.00    +0.000 A 
ATOM      8  C   UNL     1       1.085   8.608  20.372  0.00  0.00    +0.000 A 
ATOM      9  C   UNL     1       1.390   7.336  20.887  0.00  0.00    +0.000 A 
ATOM     10  C   UNL     1       2.172   6.419  20.165  0.00  0.00    +0.000 A 
BRANCH   8  11
ATOM     11  C   UNL     1       0.289   9.601  21.130  0.00  0.00    +0.000 A 
ATOM     12  C   UNL     1      -0.050  10.843  20.569  0.00  0.00    +0.000 A 
ATOM     13  C   UNL     1      -0.761  11.763  21.326  0.00  0.00    +0.000 A 
ATOM     14  N   UNL     1      -1.172  11.538  22.586  0.00  0.00    +0.000 NA
ATOM     15  C   UNL     1      -0.853  10.338  23.116  0.00  0.00    +0.000 A 
ATOM     16  C   UNL     1      -0.136   9.360  22.440  0.00  0.00    +0.000 A 
ENDBRANCH   8  11
ENDBRANCH   3   5
BRANCH   1  17
ATOM     17  C   UNL     1       4.229   3.811  17.072  0.00  0.00    +0.000 C 
BRANCH  17  18
ATOM     18  N   UNL     1       5.243   3.505  18.112  0.00  0.00    +0.000 NA
ATOM     19  H   UNL     1       5.508   4.380  18.570  0.00  0.00    +0.000 HD
ATOM     20  H   UNL     1       6.092   3.186  17.640  0.00  0.00    +0.000 HD
ENDBRANCH  17  18
BRANCH  17  21
ATOM     21  C   UNL     1       4.817   4.576  15.871  0.00  0.00    +0.000 C 
BRANCH  21  23
ATOM     22  C   UNL     1       5.997   3.863  13.738  0.00  0.00    +0.000 C 
ATOM     23  C   UNL     1       6.103   3.999  15.256  0.00  0.00    +0.000 C 
ATOM     24  C   UNL     1       7.289   4.903  15.612  0.00  0.00    +0.000 C 
ENDBRANCH  21  23
ENDBRANCH  17  21
ENDBRANCH   1  17
TORSDOF 6
ENDMDL
MODEL 4
REMARK VINA RESULT:      -6.7      0.998      1.251
REMARK  Name = 
REMARK  8 active torsions:
REMARK  status: ('A' for Active; 'I' for Inactive)
REMARK    1  A    between atoms: C_1  and  C_2
REMARK    2  A    between atoms: C_2  and  C_3
REMARK    3  A    between atoms: C_2  and  C_4
REMARK    4  A    between atoms: C_4  and  C_5
REMARK    5  A    between atoms: C_5  and  N_6
REMARK    6  A    between atoms: C_5  and  C_7
REMARK    7  A    between atoms: N_9  and  C_10
REMARK    8  A    between atoms: C_13  and  C_14
REMARK                            x       y       z     vdW  Elec       q    Type
REMARK                         _______ _______ _______ _____ _____    ______ ____
ROOT
ATOM      1  C   UNL     1       2.989   4.909  17.760  0.00  0.00    +0.000 C 
ATOM      2  O   UNL     1       1.950   4.336  18.070  0.00  0.00    +0.000 OA
ATOM      3  N   UNL     1       3.332   6.209  18.087  0.00  0.00    +0.000 N 
ATOM      4  H   UNL     1       4.166   6.547  17.614  0.00  0.00    +0.000 HD
ENDROOT
BRANCH   3   5
ATOM      5  C   UNL     1       2.562   7.104  18.854  0.00  0.00    +0.000 A 
ATOM      6  C   UNL     1       2.212   6.852  20.177  0.00  0.00    +0.000 A 
ATOM      7  C   UNL     1       1.413   7.749  20.890  0.00  0.00    +0.000 A 
ATOM      8  C   UNL     1       0.954   8.941  20.316  0.00  0.00    +0.000 A 
ATOM      9  C   UNL     1       1.339   9.200  18.989  0.00  0.00    +0.000 A 
ATOM     10  C   UNL     1       2.137   8.298  18.266  0.00  0.00    +0.000 A 
BRANCH   8  11
ATOM     11  C   UNL     1       0.087   9.863  21.085  0.00  0.00    +0.000 A 
ATOM     12  C   UNL     1      -0.464  11.011  20.492  0.00  0.00    +0.000 A 
ATOM     13  C   UNL     1      -1.236  11.872  21.257  0.00  0.00    +0.000 A 
ATOM     14  N   UNL     1      -1.515  11.673  22.557  0.00  0.00    +0.000 NA
ATOM     15  C   UNL     1      -0.991  10.563  23.120  0.00  0.00    +0.000 A 
ATOM     16  C   UNL     1      -0.199   9.650  22.438  0.00  0.00    +0.000 A 
ENDBRANCH   8  11
ENDBRANCH   3   5
BRANCH   1  17
ATOM     17  C   UNL     1       4.098   4.177  16.972  0.00  0.00    +0.000 C 
BRANCH  17  18
ATOM     18  N   UNL     1       4.878   3.290  17.872  0.00  0.00    +0.000 NA
ATOM     19  H   UNL     1       5.525   2.741  17.302  0.00  0.00    +0.000 HD
ATOM     20  H   UNL     1       4.235   2.606  18.276  0.00  0.00    +0.000 HD
ENDBRANCH  17  18
BRANCH  17  21
ATOM     21  C   UNL     1       4.975   5.220  16.254  0.00  0.00    +0.000 C 
BRANCH  21  23
ATOM     22  C   UNL     1       7.059   4.794  14.866  0.00  0.00    +0.000 C 
ATOM     23  C   UNL     1       6.492   4.968  16.275  0.00  0.00    +0.000 C 
ATOM     24  C   UNL     1       7.195   6.138  16.973  0.00  0.00    +0.000 C 
ENDBRANCH  21  23
ENDBRANCH  17  21
ENDBRANCH   1  17
TORSDOF 6
ENDMDL
MODEL 5
REMARK VINA RESULT:      -6.7      1.853      2.661
REMARK  Name = 
REMARK  8 active torsions:
REMARK  status: ('A' for Active; 'I' for Inactive)
REMARK    1  A    between atoms: C_1  and  C_2
REMARK    2  A    between atoms: C_2  and  C_3
REMARK    3  A    between atoms: C_2  and  C_4
REMARK    4  A    between atoms: C_4  and  C_5
REMARK    5  A    between atoms: C_5  and  N_6
REMARK    6  A    between atoms: C_5  and  C_7
REMARK    7  A    between atoms: N_9  and  C_10
REMARK    8  A    between atoms: C_13  and  C_14
REMARK                            x       y       z     vdW  Elec       q    Type
REMARK                         _______ _______ _______ _____ _____    ______ ____
ROOT
ATOM      1  C   UNL     1       3.857   5.029  18.254  0.00  0.00    +0.000 C 
ATOM      2  O   UNL     1       2.881   4.566  17.673  0.00  0.00    +0.000 OA
ATOM      3  N   UNL     1       3.942   6.283  18.832  0.00  0.00    +0.000 N 
ATOM      4  H   UNL     1       4.880   6.536  19.134  0.00  0.00    +0.000 HD
ENDROOT
BRANCH   3   5
ATOM      5  C   UNL     1       2.918   7.248  18.880  0.00  0.00    +0.000 A 
ATOM      6  C   UNL     1       2.615   8.077  17.804  0.00  0.00    +0.000 A 
ATOM      7  C   UNL     1       1.618   9.049  17.907  0.00  0.00    +0.000 A 
ATOM      8  C   UNL     1       0.870   9.213  19.080  0.00  0.00    +0.000 A 
ATOM      9  C   UNL     1       1.163   8.350  20.150  0.00  0.00    +0.000 A 
ATOM     10  C   UNL     1       2.170   7.374  20.053  0.00  0.00    +0.000 A 
BRANCH   8  11
ATOM     11  C   UNL     1      -0.166  10.268  19.173  0.00  0.00    +0.000 A 
ATOM     12  C   UNL     1      -0.263  11.097  20.302  0.00  0.00    +0.000 A 
ATOM     13  C   UNL     1      -1.273  12.045  20.369  0.00  0.00    +0.000 A 
ATOM     14  N   UNL     1      -2.181  12.243  19.397  0.00  0.00    +0.000 NA
ATOM     15  C   UNL     1      -2.077  11.450  18.309  0.00  0.00    +0.000 A 
ATOM     16  C   UNL     1      -1.107  10.468  18.157  0.00  0.00    +0.000 A 
ENDBRANCH   8  11
ENDBRANCH   3   5
BRANCH   1  17
ATOM     17  C   UNL     1       5.139   4.190  18.450  0.00  0.00    +0.000 C 
BRANCH  17  18
ATOM     18  N   UNL     1       4.885   3.056  19.374  0.00  0.00    +0.000 NA
ATOM     19  H   UNL     1       4.610   3.437  20.282  0.00  0.00    +0.000 HD
ATOM     20  H   UNL     1       5.775   2.583  19.544  0.00  0.00    +0.000 HD
ENDBRANCH  17  18
BRANCH  17  21
ATOM     21  C   UNL     1       6.273   5.114  18.935  0.00  0.00    +0.000 C 
BRANCH  21  23
ATOM     22  C   UNL     1       7.249   4.582  16.651  0.00  0.00    +0.000 C 
ATOM     23  C   UNL     1       7.385   5.424  17.919  0.00  0.00    +0.000 C 
ATOM     24  C   UNL     1       7.344   6.914  17.556  0.00  0.00    +0.000 C 
ENDBRANCH  21  23
ENDBRANCH  17  21
ENDBRANCH   1  17
TORSDOF 6
ENDMDL
MODEL 6
REMARK VINA RESULT:      -6.7      1.116      1.321
REMARK  Name = 
REMARK  8 active torsions:
REMARK  status: ('A' for Active; 'I' for Inactive)
REMARK    1  A    between atoms: C_1  and  C_2
REMARK    2  A    between atoms: C_2  and  C_3
REMARK    3  A    between atoms: C_2  and  C_4
REMARK    4  A    between atoms: C_4  and  C_5
REMARK    5  A    between atoms: C_5  and  N_6
REMARK    6  A    between atoms: C_5  and  C_7
REMARK    7  A    between atoms: N_9  and  C_10
REMARK    8  A    between atoms: C_13  and  C_14
REMARK                            x       y       z     vdW  Elec       q    Type
REMARK                         _______ _______ _______ _____ _____    ______ ____
ROOT
ATOM      1  C   UNL     1       3.365   4.652  17.998  0.00  0.00    +0.000 C 
ATOM      2  O   UNL     1       2.240   4.347  17.617  0.00  0.00    +0.000 OA
ATOM      3  N   UNL     1       3.727   5.850  18.588  0.00  0.00    +0.000 N 
ATOM      4  H   UNL     1       4.732   5.969  18.698  0.00  0.00    +0.000 HD
ENDROOT
BRANCH   3   5
ATOM      5  C   UNL     1       2.869   6.928  18.879  0.00  0.00    +0.000 A 
ATOM      6  C   UNL     1       2.255   7.087  20.117  0.00  0.00    +0.000 A 
ATOM      7  C   UNL     1       1.379   8.149  20.351  0.00  0.00    +0.000 A 
ATOM      8  C   UNL     1       1.102   9.104  19.365  0.00  0.00    +0.000 A 
ATOM      9  C   UNL     1       1.751   8.951  18.128  0.00  0.00    +0.000 A 
ATOM     10  C   UNL     1       2.629   7.881  17.886  0.00  0.00    +0.000 A 
BRANCH   8  11
ATOM     11  C   UNL     1       0.149  10.207  19.630  0.00  0.00    +0.000 A 
ATOM     12  C   UNL     1      -0.455  10.918  18.580  0.00  0.00    +0.000 A 
ATOM     13  C   UNL     1      -1.309  11.971  18.869  0.00  0.00    +0.000 A 
ATOM     14  N   UNL     1      -1.620  12.362  20.117  0.00  0.00    +0.000 NA
ATOM     15  C   UNL     1      -1.044  11.670  21.124  0.00  0.00    +0.000 A 
ATOM     16  C   UNL     1      -0.170  10.608  20.932  0.00  0.00    +0.000 A 
ENDBRANCH   8  11
ENDBRANCH   3   5
BRANCH   1  17
ATOM     17  C   UNL     1       4.539   3.654  17.896  0.00  0.00    +0.000 C 
BRANCH  17  18
ATOM     18  N   UNL     1       5.012   3.266  19.249  0.00  0.00    +0.000 NA
ATOM     19  H   UNL     1       4.206   3.235  19.875  0.00  0.00    +0.000 HD
ATOM     20  H   UNL     1       5.597   4.023  19.607  0.00  0.00    +0.000 HD
ENDBRANCH  17  18
BRANCH  17  21
ATOM     21  C   UNL     1       5.651   4.276  17.030  0.00  0.00    +0.000 C 
BRANCH  21  23
ATOM     22  C   UNL     1       5.340   6.165  15.360  0.00  0.00    +0.000 C 
ATOM     23  C   UNL     1       5.265   4.656  15.590  0.00  0.00    +0.000 C 
ATOM     24  C   UNL     1       6.194   3.936  14.606  0.00  0.00    +0.000 C 
ENDBRANCH  21  23
ENDBRANCH  17  21
ENDBRANCH   1  17
TORSDOF 6
ENDMDL
MODEL 7
REMARK VINA RESULT:      -6.7      1.652      2.273
REMARK  Name = 
REMARK  8 active torsions:
REMARK  status: ('A' for Active; 'I' for Inactive)
REMARK    1  A    between atoms: C_1  and  C_2
REMARK    2  A    between atoms: C_2  and  C_3
REMARK    3  A    between atoms: C_2  and  C_4
REMARK    4  A    between atoms: C_4  and  C_5
REMARK    5  A    between atoms: C_5  and  N_6
REMARK    6  A    between atoms: C_5  and  C_7
REMARK    7  A    between atoms: N_9  and  C_10
REMARK    8  A    between atoms: C_13  and  C_14
REMARK                            x       y       z     vdW  Elec       q    Type
REMARK                         _______ _______ _______ _____ _____    ______ ____
ROOT
ATOM      1  C   UNL     1       3.401   5.041  17.885  0.00  0.00    +0.000 C 
ATOM      2  O   UNL     1       2.277   4.616  17.635  0.00  0.00    +0.000 OA
ATOM      3  N   UNL     1       3.706   6.301  18.369  0.00  0.00    +0.000 N 
ATOM      4  H   UNL     1       4.701   6.512  18.371  0.00  0.00    +0.000 HD
ENDROOT
BRANCH   3   5
ATOM      5  C   UNL     1       2.784   7.317  18.685  0.00  0.00    +0.000 A 
ATOM      6  C   UNL     1       2.189   7.429  19.937  0.00  0.00    +0.000 A 
ATOM      7  C   UNL     1       1.248   8.429  20.196  0.00  0.00    +0.000 A 
ATOM      8  C   UNL     1       0.885   9.368  19.222  0.00  0.00    +0.000 A 
ATOM      9  C   UNL     1       1.516   9.263  17.970  0.00  0.00    +0.000 A 
ATOM     10  C   UNL     1       2.458   8.256  17.703  0.00  0.00    +0.000 A 
BRANCH   8  11
ATOM     11  C   UNL     1      -0.133  10.403  19.514  0.00  0.00    +0.000 A 
ATOM     12  C   UNL     1      -0.262  10.956  20.799  0.00  0.00    +0.000 A 
ATOM     13  C   UNL     1      -1.255  11.892  21.043  0.00  0.00    +0.000 A 
ATOM     14  N   UNL     1      -2.117  12.330  20.109  0.00  0.00    +0.000 NA
ATOM     15  C   UNL     1      -1.983  11.803  18.874  0.00  0.00    +0.000 A 
ATOM     16  C   UNL     1      -1.027  10.854  18.538  0.00  0.00    +0.000 A 
ENDBRANCH   8  11
ENDBRANCH   3   5
BRANCH   1  17
ATOM     17  C   UNL     1       4.647   4.143  17.721  0.00  0.00    +0.000 C 
BRANCH  17  18
ATOM     18  N   UNL     1       4.298   2.719  17.954  0.00  0.00    +0.000 NA
ATOM     19  H   UNL     1       5.013   2.137  17.515  0.00  0.00    +0.000 HD
ATOM     20  H   UNL     1       3.439   2.517  17.439  0.00  0.00    +0.000 HD
ENDBRANCH  17  18
BRANCH  17  21
ATOM     21  C   UNL     1       5.756   4.649  18.663  0.00  0.00    +0.000 C 
BRANCH  21  23
ATOM     22  C   UNL     1       7.104   4.716  16.511  0.00  0.00    +0.000 C 
ATOM     23  C   UNL     1       7.138   4.880  18.030  0.00  0.00    +0.000 C 
ATOM     24  C   UNL     1       7.634   6.286  18.386  0.00  0.00    +0.000 C 
ENDBRANCH  21  23
ENDBRANCH  17  21
ENDBRANCH   1  17
TORSDOF 6
ENDMDL
MODEL 8
REMARK VINA RESULT:      -6.7      2.609      3.783
REMARK  Name = 
REMARK  8 active torsions:
REMARK  status: ('A' for Active; 'I' for Inactive)
REMARK    1  A    between atoms: C_1  and  C_2
REMARK    2  A    between atoms: C_2  and  C_3
REMARK    3  A    between atoms: C_2  and  C_4
REMARK    4  A    between atoms: C_4  and  C_5
REMARK    5  A    between atoms: C_5  and  N_6
REMARK    6  A    between atoms: C_5  and  C_7
REMARK    7  A    between atoms: N_9  and  C_10
REMARK    8  A    between atoms: C_13  and  C_14
REMARK                            x       y       z     vdW  Elec       q    Type
REMARK                         _______ _______ _______ _____ _____    ______ ____
ROOT
ATOM      1  C   UNL     1       4.019   5.333  19.040  0.00  0.00    +0.000 C 
ATOM      2  O   UNL     1       4.763   5.931  18.269  0.00  0.00    +0.000 OA
ATOM      3  N   UNL     1       2.858   5.833  19.602  0.00  0.00    +0.000 N 
ATOM      4  H   UNL     1       2.462   5.239  20.328  0.00  0.00    +0.000 HD
ENDROOT
BRANCH   3   5
ATOM      5  C   UNL     1       2.304   7.107  19.375  0.00  0.00    +0.000 A 
ATOM      6  C   UNL     1       2.336   7.730  18.132  0.00  0.00    +0.000 A 
ATOM      7  C   UNL     1       1.811   9.012  17.959  0.00  0.00    +0.000 A 
ATOM      8  C   UNL     1       1.213   9.711  19.017  0.00  0.00    +0.000 A 
ATOM      9  C   UNL     1       1.159   9.059  20.261  0.00  0.00    +0.000 A 
ATOM     10  C   UNL     1       1.691   7.772  20.441  0.00  0.00    +0.000 A 
BRANCH   8  11
ATOM     11  C   UNL     1       0.685  11.080  18.813  0.00  0.00    +0.000 A 
ATOM     12  C   UNL     1      -0.674  11.304  18.541  0.00  0.00    +0.000 A 
ATOM     13  C   UNL     1      -1.121  12.597  18.315  0.00  0.00    +0.000 A 
ATOM     14  N   UNL     1      -0.328  13.682  18.353  0.00  0.00    +0.000 NA
ATOM     15  C   UNL     1       0.976  13.462  18.625  0.00  0.00    +0.000 A 
ATOM     16  C   UNL     1       1.517  12.204  18.855  0.00  0.00    +0.000 A 
ENDBRANCH   8  11
ENDBRANCH   3   5
BRANCH   1  17
ATOM     17  C   UNL     1       4.298   3.868  19.441  0.00  0.00    +0.000 C 
BRANCH  17  18
ATOM     18  N   UNL     1       5.669   3.468  19.033  0.00  0.00    +0.000 NA
ATOM     19  H   UNL     1       6.018   4.154  18.361  0.00  0.00    +0.000 HD
ATOM     20  H   UNL     1       5.598   2.594  18.507  0.00  0.00    +0.000 HD
ENDBRANCH  17  18
BRANCH  17  21
ATOM     21  C   UNL     1       3.207   2.966  18.833  0.00  0.00    +0.000 C 
BRANCH  21  23
ATOM     22  C   UNL     1       2.467   2.794  21.257  0.00  0.00    +0.000 C 
ATOM     23  C   UNL     1       2.208   2.340  19.821  0.00  0.00    +0.000 C 
ATOM     24  C   UNL     1       0.780   2.716  19.410  0.00  0.00    +0.000 C 
ENDBRANCH  21  23
ENDBRANCH  17  21
ENDBRANCH   1  17
TORSDOF 6
ENDMDL
MODEL 9
REMARK VINA RESULT:      -6.7      1.613      2.328
REMARK  Name = 
REMARK  8 active torsions:
REMARK  status: ('A' for Active; 'I' for Inactive)
REMARK    1  A    between atoms: C_1  and  C_2
REMARK    2  A    between atoms: C_2  and  C_3
REMARK    3  A    between atoms: C_2  and  C_4
REMARK    4  A    between atoms: C_4  and  C_5
REMARK    5  A    between atoms: C_5  and  N_6
REMARK    6  A    between atoms: C_5  and  C_7
REMARK    7  A    between atoms: N_9  and  C_10
REMARK    8  A    between atoms: C_13  and  C_14
REMARK                            x       y       z     vdW  Elec       q    Type
REMARK                         _______ _______ _______ _____ _____    ______ ____
ROOT
ATOM      1  C   UNL     1       3.445   4.979  17.930  0.00  0.00    +0.000 C 
ATOM      2  O   UNL     1       2.327   4.566  17.639  0.00  0.00    +0.000 OA
ATOM      3  N   UNL     1       3.749   6.245  18.398  0.00  0.00    +0.000 N 
ATOM      4  H   UNL     1       4.747   6.440  18.440  0.00  0.00    +0.000 HD
ENDROOT
BRANCH   3   5
ATOM      5  C   UNL     1       2.831   7.283  18.647  0.00  0.00    +0.000 A 
ATOM      6  C   UNL     1       2.505   8.244  17.695  0.00  0.00    +0.000 A 
ATOM      7  C   UNL     1       1.620   9.280  17.998  0.00  0.00    +0.000 A 
ATOM      8  C   UNL     1       1.009   9.382  19.254  0.00  0.00    +0.000 A 
ATOM      9  C   UNL     1       1.321   8.389  20.198  0.00  0.00    +0.000 A 
ATOM     10  C   UNL     1       2.216   7.348  19.900  0.00  0.00    +0.000 A 
BRANCH   8  11
ATOM     11  C   UNL     1       0.092  10.506  19.558  0.00  0.00    +0.000 A 
ATOM     12  C   UNL     1      -1.056  10.739  18.783  0.00  0.00    +0.000 A 
ATOM     13  C   UNL     1      -1.867  11.826  19.074  0.00  0.00    +0.000 A 
ATOM     14  N   UNL     1      -1.633  12.687  20.079  0.00  0.00    +0.000 NA
ATOM     15  C   UNL     1      -0.534  12.453  20.827  0.00  0.00    +0.000 A 
ATOM     16  C   UNL     1       0.341  11.398  20.606  0.00  0.00    +0.000 A 
ENDBRANCH   8  11
ENDBRANCH   3   5
BRANCH   1  17
ATOM     17  C   UNL     1       4.681   4.058  17.844  0.00  0.00    +0.000 C 
BRANCH  17  18
ATOM     18  N   UNL     1       4.325   2.669  18.229  0.00  0.00    +0.000 NA
ATOM     19  H   UNL     1       3.605   2.332  17.587  0.00  0.00    +0.000 HD
ATOM     20  H   UNL     1       3.870   2.703  19.143  0.00  0.00    +0.000 HD
ENDBRANCH  17  18
BRANCH  17  21
ATOM     21  C   UNL     1       5.807   4.648  18.713  0.00  0.00    +0.000 C 
BRANCH  21  23
ATOM     22  C   UNL     1       7.079   4.599  16.515  0.00  0.00    +0.000 C 
ATOM     23  C   UNL     1       7.148   4.916  18.008  0.00  0.00    +0.000 C 
ATOM     24  C   UNL     1       7.545   6.384  18.206  0.00  0.00    +0.000 C 
ENDBRANCH  21  23
ENDBRANCH  17  21
ENDBRANCH   1  17
TORSDOF 6
ENDMDL
