MODEL 1
REMARK VINA RESULT:      -8.7      0.000      0.000
REMARK  Name = 
REMARK  6 active torsions:
REMARK  status: ('A' for Active; 'I' for Inactive)
REMARK    1  A    between atoms: C_1  and  N_2
REMARK    2  A    between atoms: N_2  and  C_26
REMARK    3  A    between atoms: C_3  and  C_5
REMARK    4  A    between atoms: C_8  and  O_9
REMARK    5  A    between atoms: O_9  and  C_10
REMARK    6  A    between atoms: C_14  and  C_16
REMARK                            x       y       z     vdW  Elec       q    Type
REMARK                         _______ _______ _______ _____ _____    ______ ____
ROOT
ATOM      1  C   UNL     1       2.498   7.141  19.222  0.00  0.00    +0.000 A 
ATOM      2  C   UNL     1       1.765   7.759  20.245  0.00  0.00    +0.000 A 
ATOM      3  C   UNL     1       1.137   9.003  20.051  0.00  0.00    +0.000 A 
ATOM      4  C   UNL     1       1.258   9.676  18.838  0.00  0.00    +0.000 A 
ATOM      5  C   UNL     1       1.951   9.085  17.808  0.00  0.00    +0.000 A 
ATOM      6  C   UNL     1       2.525   7.834  18.001  0.00  0.00    +0.000 A 
ENDROOT
BRANCH   1   9
ATOM      7  C   UNL     1       4.700   3.956  19.179  0.00  0.00    +0.000 C 
ATOM      8  N   UNL     1       4.338   5.343  18.899  0.00  0.00    +0.000 N 
ATOM      9  C   UNL     1       3.162   5.819  19.539  0.00  0.00    +0.000 C 
ATOM     10  O   UNL     1       2.611   5.139  20.413  0.00  0.00    +0.000 OA
BRANCH   8  11
ATOM     11  C   UNL     1       5.163   6.099  17.932  0.00  0.00    +0.000 C 
ATOM     12  C   UNL     1       6.675   5.995  18.229  0.00  0.00    +0.000 C 
ATOM     13  C   UNL     1       7.371   4.781  17.640  0.00  0.00    +0.000 C 
ATOM     14  C   UNL     1       7.062   4.574  16.168  0.00  0.00    +0.000 C 
ATOM     15  C   UNL     1       5.586   4.689  15.821  0.00  0.00    +0.000 C 
ATOM     16  C   UNL     1       4.927   5.920  16.426  0.00  0.00    +0.000 C 
ENDBRANCH   8  11
ENDBRANCH   1   9
BRANCH   4  17
ATOM     17  O   UNL     1       0.730  10.892  18.502  0.00  0.00    +0.000 OA
BRANCH  17  18
ATOM     18  C   UNL     1       0.391  11.721  19.611  0.00  0.00    +0.000 C 
ATOM     19  C   UNL     1      -0.595  12.778  19.133  0.00  0.00    +0.000 C 
ATOM     20  C   UNL     1       0.056  13.962  18.457  0.00  0.00    +0.000 C 
ATOM     21  N   UNL     1       1.219  14.486  19.152  0.00  0.00    +0.000 N 
ATOM     22  C   UNL     1       1.586  15.843  19.165  0.00  0.00    +0.000 C 
ATOM     23  O   UNL     1       2.602  16.250  19.727  0.00  0.00    +0.000 OA
ATOM     24  C   UNL     1       2.239  13.500  19.496  0.00  0.00    +0.000 C 
ATOM     25  C   UNL     1       1.665  12.284  20.217  0.00  0.00    +0.000 C 
BRANCH  22  26
ATOM     26  C   UNL     1       0.724  16.860  18.513  0.00  0.00    +0.000 A 
ATOM     27  C   UNL     1       1.125  17.637  17.423  0.00  0.00    +0.000 A 
ATOM     28  C   UNL     1       0.215  18.494  16.809  0.00  0.00    +0.000 A 
ATOM     29  C   UNL     1      -1.046  18.614  17.366  0.00  0.00    +0.000 A 
ATOM     30  N   UNL     1      -1.444  17.944  18.470  0.00  0.00    +0.000 NA
ATOM     31  C   UNL     1      -0.548  17.084  19.022  0.00  0.00    +0.000 A 
ENDBRANCH  22  26
ENDBRANCH  17  18
ENDBRANCH   4  17
TORSDOF 5
ENDMDL
MODEL 2
REMARK VINA RESULT:      -8.7      3.808      5.456
REMARK  Name = 
REMARK  6 active torsions:
REMARK  status: ('A' for Active; 'I' for Inactive)
REMARK    1  A    between atoms: C_1  and  N_2
REMARK    2  A    between atoms: N_2  and  C_26
REMARK    3  A    between atoms: C_3  and  C_5
REMARK    4  A    between atoms: C_8  and  O_9
REMARK    5  A    between atoms: O_9  and  C_10
REMARK    6  A    between atoms: C_14  and  C_16
REMARK                            x       y       z     vdW  Elec       q    Type
REMARK                         _______ _______ _______ _____ _____    ______ ____
ROOT
ATOM      1  C   UNL     1       2.471   7.682  18.693  0.00  0.00    +0.000 A 
ATOM      2  C   UNL     1       2.174   8.646  17.719  0.00  0.00    +0.000 A 
ATOM      3  C   UNL     1       1.339   9.742  18.001  0.00  0.00    +0.000 A 
ATOM      4  C   UNL     1       0.751   9.881  19.255  0.00  0.00    +0.000 A 
ATOM      5  C   UNL     1       1.041   8.964  20.238  0.00  0.00    +0.000 A 
ATOM      6  C   UNL     1       1.906   7.913  19.957  0.00  0.00    +0.000 A 
ENDROOT
BRANCH   1   9
ATOM      7  C   UNL     1       4.086   4.195  18.221  0.00  0.00    +0.000 C 
ATOM      8  N   UNL     1       3.018   5.156  18.477  0.00  0.00    +0.000 N 
ATOM      9  C   UNL     1       3.353   6.523  18.282  0.00  0.00    +0.000 C 
ATOM     10  O   UNL     1       4.428   6.830  17.752  0.00  0.00    +0.000 OA
BRANCH   8  11
ATOM     11  C   UNL     1       1.725   4.647  18.982  0.00  0.00    +0.000 C 
ATOM     12  C   UNL     1       1.388   3.239  18.445  0.00  0.00    +0.000 C 
ATOM     13  C   UNL     1       1.977   2.083  19.236  0.00  0.00    +0.000 C 
ATOM     14  C   UNL     1       1.732   2.200  20.730  0.00  0.00    +0.000 C 
ATOM     15  C   UNL     1       2.029   3.577  21.302  0.00  0.00    +0.000 C 
ATOM     16  C   UNL     1       1.418   4.705  20.485  0.00  0.00    +0.000 C 
ENDBRANCH   8  11
ENDBRANCH   1   9
BRANCH   4  17
ATOM     17  O   UNL     1      -0.095  10.870  19.676  0.00  0.00    +0.000 OA
BRANCH  17  18
ATOM     18  C   UNL     1      -0.676  11.643  18.628  0.00  0.00    +0.000 C 
ATOM     19  C   UNL     1      -1.459  12.787  19.257  0.00  0.00    +0.000 C 
ATOM     20  C   UNL     1      -2.841  12.398  19.727  0.00  0.00    +0.000 C 
ATOM     21  N   UNL     1      -3.595  11.595  18.780  0.00  0.00    +0.000 N 
ATOM     22  C   UNL     1      -4.991  11.654  18.630  0.00  0.00    +0.000 C 
ATOM     23  O   UNL     1      -5.605  10.929  17.848  0.00  0.00    +0.000 OA
ATOM     24  C   UNL     1      -2.903  10.414  18.272  0.00  0.00    +0.000 C 
ATOM     25  C   UNL     1      -1.507  10.729  17.743  0.00  0.00    +0.000 C 
BRANCH  22  26
ATOM     26  C   UNL     1      -5.789  12.638  19.404  0.00  0.00    +0.000 A 
ATOM     27  C   UNL     1      -6.071  13.932  18.959  0.00  0.00    +0.000 A 
ATOM     28  C   UNL     1      -6.914  14.753  19.704  0.00  0.00    +0.000 A 
ATOM     29  C   UNL     1      -7.377  14.281  20.920  0.00  0.00    +0.000 A 
ATOM     30  N   UNL     1      -7.057  13.069  21.423  0.00  0.00    +0.000 NA
ATOM     31  C   UNL     1      -6.266  12.275  20.655  0.00  0.00    +0.000 A 
ENDBRANCH  22  26
ENDBRANCH  17  18
ENDBRANCH   4  17
TORSDOF 5
ENDMDL
MODEL 3
REMARK VINA RESULT:      -8.6      3.044      4.180
REMARK  Name = 
REMARK  6 active torsions:
REMARK  status: ('A' for Active; 'I' for Inactive)
REMARK    1  A    between atoms: C_1  and  N_2
REMARK    2  A    between atoms: N_2  and  C_26
REMARK    3  A    between atoms: C_3  and  C_5
REMARK    4  A    between atoms: C_8  and  O_9
REMARK    5  A    between atoms: O_9  and  C_10
REMARK    6  A    between atoms: C_14  and  C_16
REMARK                            x       y       z     vdW  Elec       q    Type
REMARK                         _______ _______ _______ _____ _____    ______ ____
ROOT
ATOM      1  C   UNL     1       2.553   6.835  19.363  0.00  0.00    +0.000 A 
ATOM      2  C   UNL     1       1.937   7.423  20.477  0.00  0.00    +0.000 A 
ATOM      3  C   UNL     1       1.274   8.660  20.382  0.00  0.00    +0.000 A 
ATOM      4  C   UNL     1       1.241   9.356  19.177  0.00  0.00    +0.000 A 
ATOM      5  C   UNL     1       1.817   8.794  18.062  0.00  0.00    +0.000 A 
ATOM      6  C   UNL     1       2.427   7.550  18.162  0.00  0.00    +0.000 A 
ENDROOT
BRANCH   1   9
ATOM      7  C   UNL     1       4.862   3.741  19.057  0.00  0.00    +0.000 C 
ATOM      8  N   UNL     1       4.447   5.130  18.881  0.00  0.00    +0.000 N 
ATOM      9  C   UNL     1       3.269   5.518  19.575  0.00  0.00    +0.000 C 
ATOM     10  O   UNL     1       2.759   4.760  20.408  0.00  0.00    +0.000 OA
BRANCH   8  11
ATOM     11  C   UNL     1       5.226   5.980  17.955  0.00  0.00    +0.000 C 
ATOM     12  C   UNL     1       6.748   5.886  18.196  0.00  0.00    +0.000 C 
ATOM     13  C   UNL     1       7.448   4.739  17.488  0.00  0.00    +0.000 C 
ATOM     14  C   UNL     1       7.095   4.647  16.014  0.00  0.00    +0.000 C 
ATOM     15  C   UNL     1       5.607   4.759  15.723  0.00  0.00    +0.000 C 
ATOM     16  C   UNL     1       4.945   5.921  16.448  0.00  0.00    +0.000 C 
ENDBRANCH   8  11
ENDBRANCH   1   9
BRANCH   4  17
ATOM     17  O   UNL     1       0.661  10.569  18.929  0.00  0.00    +0.000 OA
BRANCH  17  18
ATOM     18  C   UNL     1       0.934  11.571  19.906  0.00  0.00    +0.000 C 
ATOM     19  C   UNL     1       0.190  11.207  21.183  0.00  0.00    +0.000 C 
ATOM     20  C   UNL     1      -1.265  11.616  21.182  0.00  0.00    +0.000 C 
ATOM     21  N   UNL     1      -1.511  12.963  20.698  0.00  0.00    +0.000 N 
ATOM     22  C   UNL     1      -2.539  13.796  21.170  0.00  0.00    +0.000 C 
ATOM     23  O   UNL     1      -2.750  14.918  20.709  0.00  0.00    +0.000 OA
ATOM     24  C   UNL     1      -0.914  13.281  19.404  0.00  0.00    +0.000 C 
ATOM     25  C   UNL     1       0.569  12.931  19.335  0.00  0.00    +0.000 C 
BRANCH  22  26
ATOM     26  C   UNL     1      -3.410  13.355  22.289  0.00  0.00    +0.000 A 
ATOM     27  C   UNL     1      -3.005  13.329  23.626  0.00  0.00    +0.000 A 
ATOM     28  C   UNL     1      -3.920  12.998  24.622  0.00  0.00    +0.000 A 
ATOM     29  C   UNL     1      -5.193  12.615  24.237  0.00  0.00    +0.000 A 
ATOM     30  N   UNL     1      -5.597  12.546  22.950  0.00  0.00    +0.000 NA
ATOM     31  C   UNL     1      -4.694  12.913  22.003  0.00  0.00    +0.000 A 
ENDBRANCH  22  26
ENDBRANCH  17  18
ENDBRANCH   4  17
TORSDOF 5
ENDMDL
MODEL 4
REMARK VINA RESULT:      -8.5      3.488      4.829
REMARK  Name = 
REMARK  6 active torsions:
REMARK  status: ('A' for Active; 'I' for Inactive)
REMARK    1  A    between atoms: C_1  and  N_2
REMARK    2  A    between atoms: N_2  and  C_26
REMARK    3  A    between atoms: C_3  and  C_5
REMARK    4  A    between atoms: C_8  and  O_9
REMARK    5  A    between atoms: O_9  and  C_10
REMARK    6  A    between atoms: C_14  and  C_16
REMARK                            x       y       z     vdW  Elec       q    Type
REMARK                         _______ _______ _______ _____ _____    ______ ____
ROOT
ATOM      1  C   UNL     1       2.545   7.555  18.630  0.00  0.00    +0.000 A 
ATOM      2  C   UNL     1       2.060   8.469  17.684  0.00  0.00    +0.000 A 
ATOM      3  C   UNL     1       1.174   9.500  18.045  0.00  0.00    +0.000 A 
ATOM      4  C   UNL     1       0.722   9.619  19.357  0.00  0.00    +0.000 A 
ATOM      5  C   UNL     1       1.197   8.752  20.312  0.00  0.00    +0.000 A 
ATOM      6  C   UNL     1       2.109   7.768  19.948  0.00  0.00    +0.000 A 
ENDROOT
BRANCH   1   9
ATOM      7  C   UNL     1       4.251   4.167  17.855  0.00  0.00    +0.000 C 
ATOM      8  N   UNL     1       3.153   5.078  18.165  0.00  0.00    +0.000 N 
ATOM      9  C   UNL     1       3.469   6.463  18.137  0.00  0.00    +0.000 C 
ATOM     10  O   UNL     1       4.559   6.843  17.695  0.00  0.00    +0.000 OA
BRANCH   8  11
ATOM     11  C   UNL     1       1.849   4.495  18.549  0.00  0.00    +0.000 C 
ATOM     12  C   UNL     1       1.677   3.042  18.056  0.00  0.00    +0.000 C 
ATOM     13  C   UNL     1       2.250   1.973  18.970  0.00  0.00    +0.000 C 
ATOM     14  C   UNL     1       1.827   2.140  20.419  0.00  0.00    +0.000 C 
ATOM     15  C   UNL     1       1.958   3.561  20.944  0.00  0.00    +0.000 C 
ATOM     16  C   UNL     1       1.368   4.600  20.003  0.00  0.00    +0.000 C 
ENDBRANCH   8  11
ENDBRANCH   1   9
BRANCH   4  17
ATOM     17  O   UNL     1      -0.150  10.546  19.859  0.00  0.00    +0.000 OA
BRANCH  17  18
ATOM     18  C   UNL     1       0.295  11.896  19.763  0.00  0.00    +0.000 C 
ATOM     19  C   UNL     1       0.689  12.369  21.156  0.00  0.00    +0.000 C 
ATOM     20  C   UNL     1      -0.477  12.822  22.002  0.00  0.00    +0.000 C 
ATOM     21  N   UNL     1      -1.422  13.684  21.313  0.00  0.00    +0.000 N 
ATOM     22  C   UNL     1      -2.145  14.717  21.932  0.00  0.00    +0.000 C 
ATOM     23  O   UNL     1      -2.971  15.402  21.330  0.00  0.00    +0.000 OA
ATOM     24  C   UNL     1      -1.914  13.176  20.036  0.00  0.00    +0.000 C 
ATOM     25  C   UNL     1      -0.791  12.730  19.104  0.00  0.00    +0.000 C 
BRANCH  22  26
ATOM     26  C   UNL     1      -1.910  15.047  23.360  0.00  0.00    +0.000 A 
ATOM     27  C   UNL     1      -2.802  14.731  24.389  0.00  0.00    +0.000 A 
ATOM     28  C   UNL     1      -2.453  14.986  25.712  0.00  0.00    +0.000 A 
ATOM     29  C   UNL     1      -1.256  15.635  25.958  0.00  0.00    +0.000 A 
ATOM     30  N   UNL     1      -0.407  16.033  24.986  0.00  0.00    +0.000 NA
ATOM     31  C   UNL     1      -0.755  15.734  23.707  0.00  0.00    +0.000 A 
ENDBRANCH  22  26
ENDBRANCH  17  18
ENDBRANCH   4  17
TORSDOF 5
ENDMDL
MODEL 5
REMARK VINA RESULT:      -8.5      3.746      5.277
REMARK  Name = 
REMARK  6 active torsions:
REMARK  status: ('A' for Active; 'I' for Inactive)
REMARK    1  A    between atoms: C_1  and  N_2
REMARK    2  A    between atoms: N_2  and  C_26
REMARK    3  A    between atoms: C_3  and  C_5
REMARK    4  A    between atoms: C_8  and  O_9
REMARK    5  A    between atoms: O_9  and  C_10
REMARK    6  A    between atoms: C_14  and  C_16
REMARK                            x       y       z     vdW  Elec       q    Type
REMARK                         _______ _______ _______ _____ _____    ______ ____
ROOT
ATOM      1  C   UNL     1       2.603   7.483  18.488  0.00  0.00    +0.000 A 
ATOM      2  C   UNL     1       2.209   7.626  19.826  0.00  0.00    +0.000 A 
ATOM      3  C   UNL     1       1.457   8.734  20.257  0.00  0.00    +0.000 A 
ATOM      4  C   UNL     1       1.112   9.746  19.365  0.00  0.00    +0.000 A 
ATOM      5  C   UNL     1       1.465   9.624  18.042  0.00  0.00    +0.000 A 
ATOM      6  C   UNL     1       2.166   8.499  17.624  0.00  0.00    +0.000 A 
ENDROOT
BRANCH   1   9
ATOM      7  C   UNL     1       4.049   3.908  18.145  0.00  0.00    +0.000 C 
ATOM      8  N   UNL     1       3.025   4.929  18.347  0.00  0.00    +0.000 N 
ATOM      9  C   UNL     1       3.436   6.272  18.131  0.00  0.00    +0.000 C 
ATOM     10  O   UNL     1       4.540   6.511  17.627  0.00  0.00    +0.000 OA
BRANCH   8  11
ATOM     11  C   UNL     1       1.693   4.498  18.823  0.00  0.00    +0.000 C 
ATOM     12  C   UNL     1       1.366   3.039  18.439  0.00  0.00    +0.000 C 
ATOM     13  C   UNL     1       1.881   1.982  19.401  0.00  0.00    +0.000 C 
ATOM     14  C   UNL     1       1.544   2.282  20.850  0.00  0.00    +0.000 C 
ATOM     15  C   UNL     1       1.828   3.715  21.271  0.00  0.00    +0.000 C 
ATOM     16  C   UNL     1       1.292   4.742  20.285  0.00  0.00    +0.000 C 
ENDBRANCH   8  11
ENDBRANCH   1   9
BRANCH   4  17
ATOM     17  O   UNL     1       0.410  10.890  19.630  0.00  0.00    +0.000 OA
BRANCH  17  18
ATOM     18  C   UNL     1       0.592  11.409  20.945  0.00  0.00    +0.000 C 
ATOM     19  C   UNL     1      -0.527  10.876  21.828  0.00  0.00    +0.000 C 
ATOM     20  C   UNL     1      -1.820  11.647  21.711  0.00  0.00    +0.000 C 
ATOM     21  N   UNL     1      -1.664  13.091  21.735  0.00  0.00    +0.000 N 
ATOM     22  C   UNL     1      -2.604  13.978  22.286  0.00  0.00    +0.000 C 
ATOM     23  O   UNL     1      -2.463  15.200  22.252  0.00  0.00    +0.000 OA
ATOM     24  C   UNL     1      -0.688  13.629  20.791  0.00  0.00    +0.000 C 
ATOM     25  C   UNL     1       0.663  12.925  20.872  0.00  0.00    +0.000 C 
BRANCH  22  26
ATOM     26  C   UNL     1      -3.814  13.460  22.973  0.00  0.00    +0.000 A 
ATOM     27  C   UNL     1      -3.784  12.773  24.190  0.00  0.00    +0.000 A 
ATOM     28  C   UNL     1      -4.975  12.413  24.813  0.00  0.00    +0.000 A 
ATOM     29  C   UNL     1      -6.162  12.674  24.151  0.00  0.00    +0.000 A 
ATOM     30  N   UNL     1      -6.229  13.259  22.936  0.00  0.00    +0.000 NA
ATOM     31  C   UNL     1      -5.052  13.636  22.371  0.00  0.00    +0.000 A 
ENDBRANCH  22  26
ENDBRANCH  17  18
ENDBRANCH   4  17
TORSDOF 5
ENDMDL
MODEL 6
REMARK VINA RESULT:      -8.4      2.540      3.327
REMARK  Name = 
REMARK  6 active torsions:
REMARK  status: ('A' for Active; 'I' for Inactive)
REMARK    1  A    between atoms: C_1  and  N_2
REMARK    2  A    between atoms: N_2  and  C_26
REMARK    3  A    between atoms: C_3  and  C_5
REMARK    4  A    between atoms: C_8  and  O_9
REMARK    5  A    between atoms: O_9  and  C_10
REMARK    6  A    between atoms: C_14  and  C_16
REMARK                            x       y       z     vdW  Elec       q    Type
REMARK                         _______ _______ _______ _____ _____    ______ ____
ROOT
ATOM      1  C   UNL     1       2.519   6.954  19.288  0.00  0.00    +0.000 A 
ATOM      2  C   UNL     1       1.880   7.557  20.380  0.00  0.00    +0.000 A 
ATOM      3  C   UNL     1       1.213   8.790  20.253  0.00  0.00    +0.000 A 
ATOM      4  C   UNL     1       1.201   9.466  19.036  0.00  0.00    +0.000 A 
ATOM      5  C   UNL     1       1.799   8.889  17.942  0.00  0.00    +0.000 A 
ATOM      6  C   UNL     1       2.412   7.649  18.073  0.00  0.00    +0.000 A 
ENDROOT
BRANCH   1   9
ATOM      7  C   UNL     1       4.835   3.859  19.067  0.00  0.00    +0.000 C 
ATOM      8  N   UNL     1       4.419   5.243  18.858  0.00  0.00    +0.000 N 
ATOM      9  C   UNL     1       3.236   5.644  19.534  0.00  0.00    +0.000 C 
ATOM     10  O   UNL     1       2.721   4.904  20.381  0.00  0.00    +0.000 OA
BRANCH   8  11
ATOM     11  C   UNL     1       5.203   6.074  17.919  0.00  0.00    +0.000 C 
ATOM     12  C   UNL     1       6.726   5.955  18.145  0.00  0.00    +0.000 C 
ATOM     13  C   UNL     1       7.399   4.792  17.437  0.00  0.00    +0.000 C 
ATOM     14  C   UNL     1       7.030   4.697  15.967  0.00  0.00    +0.000 C 
ATOM     15  C   UNL     1       5.540   4.832  15.691  0.00  0.00    +0.000 C 
ATOM     16  C   UNL     1       4.905   6.009  16.414  0.00  0.00    +0.000 C 
ENDBRANCH   8  11
ENDBRANCH   1   9
BRANCH   4  17
ATOM     17  O   UNL     1       0.620  10.673  18.758  0.00  0.00    +0.000 OA
BRANCH  17  18
ATOM     18  C   UNL     1       1.380  11.808  19.167  0.00  0.00    +0.000 C 
ATOM     19  C   UNL     1       1.231  11.963  20.674  0.00  0.00    +0.000 C 
ATOM     20  C   UNL     1      -0.036  12.669  21.095  0.00  0.00    +0.000 C 
ATOM     21  N   UNL     1      -0.342  13.864  20.329  0.00  0.00    +0.000 N 
ATOM     22  C   UNL     1      -0.984  14.997  20.856  0.00  0.00    +0.000 C 
ATOM     23  O   UNL     1      -1.269  15.978  20.170  0.00  0.00    +0.000 OA
ATOM     24  C   UNL     1      -0.338  13.695  18.879  0.00  0.00    +0.000 C 
ATOM     25  C   UNL     1       0.931  13.019  18.367  0.00  0.00    +0.000 C 
BRANCH  22  26
ATOM     26  C   UNL     1      -1.322  15.066  22.300  0.00  0.00    +0.000 A 
ATOM     27  C   UNL     1      -2.559  14.691  22.829  0.00  0.00    +0.000 A 
ATOM     28  C   UNL     1      -2.753  14.690  24.208  0.00  0.00    +0.000 A 
ATOM     29  C   UNL     1      -1.727  15.155  25.011  0.00  0.00    +0.000 A 
ATOM     30  N   UNL     1      -0.547  15.606  24.532  0.00  0.00    +0.000 NA
ATOM     31  C   UNL     1      -0.372  15.556  23.186  0.00  0.00    +0.000 A 
ENDBRANCH  22  26
ENDBRANCH  17  18
ENDBRANCH   4  17
TORSDOF 5
ENDMDL
MODEL 7
REMARK VINA RESULT:      -8.4      3.344      4.601
REMARK  Name = 
REMARK  6 active torsions:
REMARK  status: ('A' for Active; 'I' for Inactive)
REMARK    1  A    between atoms: C_1  and  N_2
REMARK    2  A    between atoms: N_2  and  C_26
REMARK    3  A    between atoms: C_3  and  C_5
REMARK    4  A    between atoms: C_8  and  O_9
REMARK    5  A    between atoms: O_9  and  C_10
REMARK    6  A    between atoms: C_14  and  C_16
REMARK                            x       y       z     vdW  Elec       q    Type
REMARK                         _______ _______ _______ _____ _____    ______ ____
ROOT
ATOM      1  C   UNL     1       2.314   7.689  18.738  0.00  0.00    +0.000 A 
ATOM      2  C   UNL     1       1.849   8.633  17.812  0.00  0.00    +0.000 A 
ATOM      3  C   UNL     1       1.033   9.709  18.206  0.00  0.00    +0.000 A 
ATOM      4  C   UNL     1       0.632   9.846  19.532  0.00  0.00    +0.000 A 
ATOM      5  C   UNL     1       1.090   8.949  20.468  0.00  0.00    +0.000 A 
ATOM      6  C   UNL     1       1.934   7.919  20.070  0.00  0.00    +0.000 A 
ENDROOT
BRANCH   1   9
ATOM      7  C   UNL     1       3.873   4.227  17.982  0.00  0.00    +0.000 C 
ATOM      8  N   UNL     1       2.830   5.177  18.358  0.00  0.00    +0.000 N 
ATOM      9  C   UNL     1       3.160   6.551  18.210  0.00  0.00    +0.000 C 
ATOM     10  O   UNL     1       4.198   6.882  17.625  0.00  0.00    +0.000 OA
BRANCH   8  11
ATOM     11  C   UNL     1       1.571   4.645  18.923  0.00  0.00    +0.000 C 
ATOM     12  C   UNL     1       1.262   3.210  18.444  0.00  0.00    +0.000 C 
ATOM     13  C   UNL     1       1.912   2.100  19.251  0.00  0.00    +0.000 C 
ATOM     14  C   UNL     1       1.714   2.259  20.748  0.00  0.00    +0.000 C 
ATOM     15  C   UNL     1       1.986   3.663  21.265  0.00  0.00    +0.000 C 
ATOM     16  C   UNL     1       1.313   4.744  20.433  0.00  0.00    +0.000 C 
ENDBRANCH   8  11
ENDBRANCH   1   9
BRANCH   4  17
ATOM     17  O   UNL     1      -0.171  10.816  20.066  0.00  0.00    +0.000 OA
BRANCH  17  18
ATOM     18  C   UNL     1       0.387  11.504  21.183  0.00  0.00    +0.000 C 
ATOM     19  C   UNL     1      -0.705  11.685  22.227  0.00  0.00    +0.000 C 
ATOM     20  C   UNL     1      -1.614  12.863  21.965  0.00  0.00    +0.000 C 
ATOM     21  N   UNL     1      -0.923  14.084  21.592  0.00  0.00    +0.000 N 
ATOM     22  C   UNL     1      -1.365  15.376  21.926  0.00  0.00    +0.000 C 
ATOM     23  O   UNL     1      -0.781  16.394  21.558  0.00  0.00    +0.000 OA
ATOM     24  C   UNL     1       0.032  13.952  20.495  0.00  0.00    +0.000 C 
ATOM     25  C   UNL     1       1.013  12.802  20.701  0.00  0.00    +0.000 C 
BRANCH  22  26
ATOM     26  C   UNL     1      -2.564  15.561  22.782  0.00  0.00    +0.000 A 
ATOM     27  C   UNL     1      -2.542  15.497  24.177  0.00  0.00    +0.000 A 
ATOM     28  C   UNL     1      -3.694  15.786  24.904  0.00  0.00    +0.000 A 
ATOM     29  C   UNL     1      -4.860  16.042  24.204  0.00  0.00    +0.000 A 
ATOM     30  N   UNL     1      -4.941  16.030  22.855  0.00  0.00    +0.000 NA
ATOM     31  C   UNL     1      -3.792  15.785  22.173  0.00  0.00    +0.000 A 
ENDBRANCH  22  26
ENDBRANCH  17  18
ENDBRANCH   4  17
TORSDOF 5
ENDMDL
MODEL 8
REMARK VINA RESULT:      -8.4      2.912      3.946
REMARK  Name = 
REMARK  6 active torsions:
REMARK  status: ('A' for Active; 'I' for Inactive)
REMARK    1  A    between atoms: C_1  and  N_2
REMARK    2  A    between atoms: N_2  and  C_26
REMARK    3  A    between atoms: C_3  and  C_5
REMARK    4  A    between atoms: C_8  and  O_9
REMARK    5  A    between atoms: O_9  and  C_10
REMARK    6  A    between atoms: C_14  and  C_16
REMARK                            x       y       z     vdW  Elec       q    Type
REMARK                         _______ _______ _______ _____ _____    ______ ____
ROOT
ATOM      1  C   UNL     1       2.434   6.776  18.925  0.00  0.00    +0.000 A 
ATOM      2  C   UNL     1       2.016   7.247  20.178  0.00  0.00    +0.000 A 
ATOM      3  C   UNL     1       1.534   8.557  20.347  0.00  0.00    +0.000 A 
ATOM      4  C   UNL     1       1.490   9.440  19.271  0.00  0.00    +0.000 A 
ATOM      5  C   UNL     1       1.871   9.001  18.026  0.00  0.00    +0.000 A 
ATOM      6  C   UNL     1       2.300   7.689  17.867  0.00  0.00    +0.000 A 
ENDROOT
BRANCH   1   9
ATOM      7  C   UNL     1       4.422   3.568  18.059  0.00  0.00    +0.000 C 
ATOM      8  N   UNL     1       4.187   5.000  18.220  0.00  0.00    +0.000 N 
ATOM      9  C   UNL     1       2.967   5.361  18.853  0.00  0.00    +0.000 C 
ATOM     10  O   UNL     1       2.262   4.496  19.385  0.00  0.00    +0.000 OA
BRANCH   8  11
ATOM     11  C   UNL     1       5.179   5.939  17.655  0.00  0.00    +0.000 C 
ATOM     12  C   UNL     1       6.632   5.559  18.015  0.00  0.00    +0.000 C 
ATOM     13  C   UNL     1       7.288   4.550  17.089  0.00  0.00    +0.000 C 
ATOM     14  C   UNL     1       7.136   4.904  15.620  0.00  0.00    +0.000 C 
ATOM     15  C   UNL     1       5.726   5.308  15.221  0.00  0.00    +0.000 C 
ATOM     16  C   UNL     1       5.106   6.322  16.170  0.00  0.00    +0.000 C 
ENDBRANCH   8  11
ENDBRANCH   1   9
BRANCH   4  17
ATOM     17  O   UNL     1       1.071  10.743  19.277  0.00  0.00    +0.000 OA
BRANCH  17  18
ATOM     18  C   UNL     1       0.817  11.281  20.572  0.00  0.00    +0.000 C 
ATOM     19  C   UNL     1      -0.538  10.773  21.043  0.00  0.00    +0.000 C 
ATOM     20  C   UNL     1      -1.709  11.555  20.497  0.00  0.00    +0.000 C 
ATOM     21  N   UNL     1      -1.549  12.997  20.553  0.00  0.00    +0.000 N 
ATOM     22  C   UNL     1      -2.605  13.902  20.753  0.00  0.00    +0.000 C 
ATOM     23  O   UNL     1      -2.444  15.122  20.753  0.00  0.00    +0.000 OA
ATOM     24  C   UNL     1      -0.309  13.511  19.978  0.00  0.00    +0.000 C 
ATOM     25  C   UNL     1       0.929  12.795  20.509  0.00  0.00    +0.000 C 
BRANCH  22  26
ATOM     26  C   UNL     1      -3.981  13.406  21.009  0.00  0.00    +0.000 A 
ATOM     27  C   UNL     1      -4.938  13.213  20.008  0.00  0.00    +0.000 A 
ATOM     28  C   UNL     1      -6.169  12.646  20.325  0.00  0.00    +0.000 A 
ATOM     29  C   UNL     1      -6.439  12.373  21.655  0.00  0.00    +0.000 A 
ATOM     30  N   UNL     1      -5.573  12.624  22.661  0.00  0.00    +0.000 NA
ATOM     31  C   UNL     1      -4.364  13.140  22.316  0.00  0.00    +0.000 A 
ENDBRANCH  22  26
ENDBRANCH  17  18
ENDBRANCH   4  17
TORSDOF 5
ENDMDL
MODEL 9
REMARK VINA RESULT:      -8.3      1.621      1.930
REMARK  Name = 
REMARK  6 active torsions:
REMARK  status: ('A' for Active; 'I' for Inactive)
REMARK    1  A    between atoms: C_1  and  N_2
REMARK    2  A    between atoms: N_2  and  C_26
REMARK    3  A    between atoms: C_3  and  C_5
REMARK    4  A    between atoms: C_8  and  O_9
REMARK    5  A    between atoms: O_9  and  C_10
REMARK    6  A    between atoms: C_14  and  C_16
REMARK                            x       y       z     vdW  Elec       q    Type
REMARK                         _______ _______ _______ _____ _____    ______ ____
ROOT
ATOM      1  C   UNL     1       2.288   6.612  18.995  0.00  0.00    +0.000 A 
ATOM      2  C   UNL     1       1.890   6.872  20.314  0.00  0.00    +0.000 A 
ATOM      3  C   UNL     1       1.468   8.152  20.716  0.00  0.00    +0.000 A 
ATOM      4  C   UNL     1       1.467   9.213  19.814  0.00  0.00    +0.000 A 
ATOM      5  C   UNL     1       1.829   8.984  18.508  0.00  0.00    +0.000 A 
ATOM      6  C   UNL     1       2.199   7.703  18.117  0.00  0.00    +0.000 A 
ENDROOT
BRANCH   1   9
ATOM      7  C   UNL     1       4.127   3.521  17.560  0.00  0.00    +0.000 C 
ATOM      8  N   UNL     1       3.957   4.912  17.972  0.00  0.00    +0.000 N 
ATOM      9  C   UNL     1       2.756   5.210  18.670  0.00  0.00    +0.000 C 
ATOM     10  O   UNL     1       2.014   4.296  19.049  0.00  0.00    +0.000 OA
BRANCH   8  11
ATOM     11  C   UNL     1       4.991   5.891  17.571  0.00  0.00    +0.000 C 
ATOM     12  C   UNL     1       6.409   5.479  18.023  0.00  0.00    +0.000 C 
ATOM     13  C   UNL     1       7.146   4.546  17.078  0.00  0.00    +0.000 C 
ATOM     14  C   UNL     1       7.119   5.016  15.635  0.00  0.00    +0.000 C 
ATOM     15  C   UNL     1       5.746   5.455  15.151  0.00  0.00    +0.000 C 
ATOM     16  C   UNL     1       5.044   6.391  16.121  0.00  0.00    +0.000 C 
ENDBRANCH   8  11
ENDBRANCH   1   9
BRANCH   4  17
ATOM     17  O   UNL     1       1.108  10.511  20.053  0.00  0.00    +0.000 OA
BRANCH  17  18
ATOM     18  C   UNL     1       0.182  11.055  19.115  0.00  0.00    +0.000 C 
ATOM     19  C   UNL     1       0.807  12.296  18.492  0.00  0.00    +0.000 C 
ATOM     20  C   UNL     1       0.671  13.541  19.338  0.00  0.00    +0.000 C 
ATOM     21  N   UNL     1      -0.652  13.744  19.899  0.00  0.00    +0.000 N 
ATOM     22  C   UNL     1      -1.231  15.006  20.121  0.00  0.00    +0.000 C 
ATOM     23  O   UNL     1      -2.338  15.147  20.639  0.00  0.00    +0.000 OA
ATOM     24  C   UNL     1      -1.208  12.603  20.620  0.00  0.00    +0.000 C 
ATOM     25  C   UNL     1      -1.142  11.308  19.817  0.00  0.00    +0.000 C 
BRANCH  22  26
ATOM     26  C   UNL     1      -0.523  16.241  19.698  0.00  0.00    +0.000 A 
ATOM     27  C   UNL     1      -0.584  16.769  18.406  0.00  0.00    +0.000 A 
ATOM     28  C   UNL     1       0.027  17.988  18.125  0.00  0.00    +0.000 A 
ATOM     29  C   UNL     1       0.759  18.598  19.129  0.00  0.00    +0.000 A 
ATOM     30  N   UNL     1       0.912  18.077  20.366  0.00  0.00    +0.000 NA
ATOM     31  C   UNL     1       0.270  16.906  20.623  0.00  0.00    +0.000 A 
ENDBRANCH  22  26
ENDBRANCH  17  18
ENDBRANCH   4  17
TORSDOF 5
ENDMDL
