MODEL 1
REMARK VINA RESULT:      -8.7      0.000      0.000
REMARK  Name = 
REMARK  2 active torsions:
REMARK  status: ('A' for Active; 'I' for Inactive)
REMARK    1  A    between atoms: C_6  and  C_7
REMARK    2  A    between atoms: C_6  and  C_13
REMARK                            x       y       z     vdW  Elec       q    Type
REMARK                         _______ _______ _______ _____ _____    ______ ____
ROOT
ATOM      1  O   UNL     1       4.858   1.811  20.775  0.00  0.00    +0.000 OA
ATOM      2  C   UNL     1       4.481   2.294  19.715  0.00  0.00    +0.000 C 
ATOM      3  N   UNL     1       3.537   1.844  18.919  0.00  0.00    +0.000 NA
ATOM      4  C   UNL     1       3.314   2.777  17.977  0.00  0.00    +0.000 C 
ATOM      5  O   UNL     1       2.440   2.716  17.116  0.00  0.00    +0.000 OA
ATOM      6  C   UNL     1       4.294   3.973  18.130  0.00  0.00    +0.000 C 
ATOM      7  N   UNL     1       5.075   3.388  19.198  0.00  0.00    +0.000 N 
ATOM      8  H   UNL     1       5.686   3.966  19.751  0.00  0.00    +0.000 HD
ENDROOT
BRANCH   6   9
ATOM      9  C   UNL     1       3.541   5.226  18.624  0.00  0.00    +0.000 A 
ATOM     10  C   UNL     1       2.821   5.225  19.842  0.00  0.00    +0.000 A 
ATOM     11  C   UNL     1       2.132   6.356  20.284  0.00  0.00    +0.000 A 
ATOM     12  C   UNL     1       2.137   7.500  19.503  0.00  0.00    +0.000 A 
ATOM     13  F   UNL     1       1.473   8.585  19.923  0.00  0.00    +0.000 F 
ATOM     14  C   UNL     1       2.811   7.530  18.289  0.00  0.00    +0.000 A 
ATOM     15  C   UNL     1       3.504   6.398  17.847  0.00  0.00    +0.000 A 
ENDBRANCH   6   9
BRANCH   6  16
ATOM     16  C   UNL     1       5.254   4.201  16.951  0.00  0.00    +0.000 A 
ATOM     17  C   UNL     1       6.595   4.584  17.129  0.00  0.00    +0.000 A 
ATOM     18  C   UNL     1       7.416   4.882  16.036  0.00  0.00    +0.000 A 
ATOM     19  C   UNL     1       6.914   4.799  14.741  0.00  0.00    +0.000 A 
ATOM     20  C   UNL     1       5.596   4.399  14.536  0.00  0.00    +0.000 A 
ATOM     21  C   UNL     1       4.776   4.101  15.628  0.00  0.00    +0.000 A 
ENDBRANCH   6  16
TORSDOF 2
ENDMDL
MODEL 2
REMARK VINA RESULT:      -8.7      0.180      1.091
REMARK  Name = 
REMARK  2 active torsions:
REMARK  status: ('A' for Active; 'I' for Inactive)
REMARK    1  A    between atoms: C_6  and  C_7
REMARK    2  A    between atoms: C_6  and  C_13
REMARK                            x       y       z     vdW  Elec       q    Type
REMARK                         _______ _______ _______ _____ _____    ______ ____
ROOT
ATOM      1  O   UNL     1       4.913   1.759  20.751  0.00  0.00    +0.000 OA
ATOM      2  C   UNL     1       4.498   2.271  19.718  0.00  0.00    +0.000 C 
ATOM      3  N   UNL     1       3.550   1.824  18.926  0.00  0.00    +0.000 NA
ATOM      4  C   UNL     1       3.280   2.784  18.026  0.00  0.00    +0.000 C 
ATOM      5  O   UNL     1       2.387   2.730  17.182  0.00  0.00    +0.000 OA
ATOM      6  C   UNL     1       4.228   4.003  18.203  0.00  0.00    +0.000 C 
ATOM      7  N   UNL     1       5.050   3.400  19.230  0.00  0.00    +0.000 N 
ATOM      8  H   UNL     1       5.656   3.975  19.792  0.00  0.00    +0.000 HD
ENDROOT
BRANCH   6   9
ATOM      9  C   UNL     1       3.451   5.213  18.761  0.00  0.00    +0.000 A 
ATOM     10  C   UNL     1       2.735   5.136  19.979  0.00  0.00    +0.000 A 
ATOM     11  C   UNL     1       2.024   6.229  20.479  0.00  0.00    +0.000 A 
ATOM     12  C   UNL     1       2.004   7.411  19.756  0.00  0.00    +0.000 A 
ATOM     13  F   UNL     1       1.318   8.460  20.231  0.00  0.00    +0.000 F 
ATOM     14  C   UNL     1       2.673   7.516  18.544  0.00  0.00    +0.000 A 
ATOM     15  C   UNL     1       3.388   6.422  18.044  0.00  0.00    +0.000 A 
ENDBRANCH   6   9
BRANCH   6  16
ATOM     16  C   UNL     1       5.154   4.302  17.013  0.00  0.00    +0.000 A 
ATOM     17  C   UNL     1       4.729   4.196  15.677  0.00  0.00    +0.000 A 
ATOM     18  C   UNL     1       5.621   4.376  14.615  0.00  0.00    +0.000 A 
ATOM     19  C   UNL     1       6.957   4.670  14.867  0.00  0.00    +0.000 A 
ATOM     20  C   UNL     1       7.400   4.804  16.180  0.00  0.00    +0.000 A 
ATOM     21  C   UNL     1       6.508   4.625  17.241  0.00  0.00    +0.000 A 
ENDBRANCH   6  16
TORSDOF 2
ENDMDL
MODEL 3
REMARK VINA RESULT:      -8.6      0.019      1.079
REMARK  Name = 
REMARK  2 active torsions:
REMARK  status: ('A' for Active; 'I' for Inactive)
REMARK    1  A    between atoms: C_6  and  C_7
REMARK    2  A    between atoms: C_6  and  C_13
REMARK                            x       y       z     vdW  Elec       q    Type
REMARK                         _______ _______ _______ _____ _____    ______ ____
ROOT
ATOM      1  O   UNL     1       4.856   1.825  20.788  0.00  0.00    +0.000 OA
ATOM      2  C   UNL     1       4.479   2.296  19.722  0.00  0.00    +0.000 C 
ATOM      3  N   UNL     1       3.544   1.831  18.926  0.00  0.00    +0.000 NA
ATOM      4  C   UNL     1       3.316   2.754  17.975  0.00  0.00    +0.000 C 
ATOM      5  O   UNL     1       2.446   2.677  17.111  0.00  0.00    +0.000 OA
ATOM      6  C   UNL     1       4.282   3.962  18.124  0.00  0.00    +0.000 C 
ATOM      7  N   UNL     1       5.064   3.393  19.200  0.00  0.00    +0.000 N 
ATOM      8  H   UNL     1       5.666   3.982  19.752  0.00  0.00    +0.000 HD
ENDROOT
BRANCH   6   9
ATOM      9  C   UNL     1       3.513   5.210  18.606  0.00  0.00    +0.000 A 
ATOM     10  C   UNL     1       3.505   6.409  17.856  0.00  0.00    +0.000 A 
ATOM     11  C   UNL     1       2.816   7.541  18.297  0.00  0.00    +0.000 A 
ATOM     12  C   UNL     1       2.140   7.495  19.505  0.00  0.00    +0.000 A 
ATOM     13  F   UNL     1       1.482   8.581  19.932  0.00  0.00    +0.000 F 
ATOM     14  C   UNL     1       2.147   6.343  20.281  0.00  0.00    +0.000 A 
ATOM     15  C   UNL     1       2.835   5.207  19.839  0.00  0.00    +0.000 A 
ENDBRANCH   6   9
BRANCH   6  16
ATOM     16  C   UNL     1       5.245   4.191  16.948  0.00  0.00    +0.000 A 
ATOM     17  C   UNL     1       6.586   4.570  17.130  0.00  0.00    +0.000 A 
ATOM     18  C   UNL     1       7.411   4.870  16.041  0.00  0.00    +0.000 A 
ATOM     19  C   UNL     1       6.911   4.793  14.744  0.00  0.00    +0.000 A 
ATOM     20  C   UNL     1       5.593   4.397  14.534  0.00  0.00    +0.000 A 
ATOM     21  C   UNL     1       4.770   4.096  15.624  0.00  0.00    +0.000 A 
ENDBRANCH   6  16
TORSDOF 2
ENDMDL
MODEL 4
REMARK VINA RESULT:      -8.6      0.224      1.539
REMARK  Name = 
REMARK  2 active torsions:
REMARK  status: ('A' for Active; 'I' for Inactive)
REMARK    1  A    between atoms: C_6  and  C_7
REMARK    2  A    between atoms: C_6  and  C_13
REMARK                            x       y       z     vdW  Elec       q    Type
REMARK                         _______ _______ _______ _____ _____    ______ ____
ROOT
ATOM      1  O   UNL     1       4.884   1.748  20.784  0.00  0.00    +0.000 OA
ATOM      2  C   UNL     1       4.475   2.255  19.747  0.00  0.00    +0.000 C 
ATOM      3  N   UNL     1       3.542   1.798  18.943  0.00  0.00    +0.000 NA
ATOM      4  C   UNL     1       3.270   2.756  18.040  0.00  0.00    +0.000 C 
ATOM      5  O   UNL     1       2.389   2.691  17.186  0.00  0.00    +0.000 OA
ATOM      6  C   UNL     1       4.200   3.986  18.232  0.00  0.00    +0.000 C 
ATOM      7  N   UNL     1       5.017   3.393  19.268  0.00  0.00    +0.000 N 
ATOM      8  H   UNL     1       5.609   3.975  19.837  0.00  0.00    +0.000 HD
ENDROOT
BRANCH   6   9
ATOM      9  C   UNL     1       3.401   5.185  18.782  0.00  0.00    +0.000 A 
ATOM     10  C   UNL     1       3.347   6.419  18.092  0.00  0.00    +0.000 A 
ATOM     11  C   UNL     1       2.631   7.507  18.595  0.00  0.00    +0.000 A 
ATOM     12  C   UNL     1       1.972   7.381  19.807  0.00  0.00    +0.000 A 
ATOM     13  F   UNL     1       1.288   8.425  20.295  0.00  0.00    +0.000 F 
ATOM     14  C   UNL     1       2.023   6.194  20.526  0.00  0.00    +0.000 A 
ATOM     15  C   UNL     1       2.739   5.102  20.021  0.00  0.00    +0.000 A 
ENDBRANCH   6   9
BRANCH   6  16
ATOM     16  C   UNL     1       5.136   4.300  17.053  0.00  0.00    +0.000 A 
ATOM     17  C   UNL     1       4.727   4.196  15.712  0.00  0.00    +0.000 A 
ATOM     18  C   UNL     1       5.629   4.389  14.661  0.00  0.00    +0.000 A 
ATOM     19  C   UNL     1       6.960   4.694  14.929  0.00  0.00    +0.000 A 
ATOM     20  C   UNL     1       7.387   4.826  16.247  0.00  0.00    +0.000 A 
ATOM     21  C   UNL     1       6.485   4.633  17.298  0.00  0.00    +0.000 A 
ENDBRANCH   6  16
TORSDOF 2
ENDMDL
MODEL 5
REMARK VINA RESULT:      -8.2      2.492      5.020
REMARK  Name = 
REMARK  2 active torsions:
REMARK  status: ('A' for Active; 'I' for Inactive)
REMARK    1  A    between atoms: C_6  and  C_7
REMARK    2  A    between atoms: C_6  and  C_13
REMARK                            x       y       z     vdW  Elec       q    Type
REMARK                         _______ _______ _______ _____ _____    ______ ____
ROOT
ATOM      1  O   UNL     1       3.466   1.422  18.714  0.00  0.00    +0.000 OA
ATOM      2  C   UNL     1       3.949   2.544  18.806  0.00  0.00    +0.000 C 
ATOM      3  N   UNL     1       4.873   2.953  19.646  0.00  0.00    +0.000 NA
ATOM      4  C   UNL     1       5.248   4.189  19.274  0.00  0.00    +0.000 C 
ATOM      5  O   UNL     1       6.152   4.839  19.795  0.00  0.00    +0.000 OA
ATOM      6  C   UNL     1       4.408   4.690  18.067  0.00  0.00    +0.000 C 
ATOM      7  N   UNL     1       3.512   3.555  18.030  0.00  0.00    +0.000 N 
ATOM      8  H   UNL     1       2.946   3.387  17.214  0.00  0.00    +0.000 HD
ENDROOT
BRANCH   6   9
ATOM      9  C   UNL     1       5.276   4.747  16.793  0.00  0.00    +0.000 A 
ATOM     10  C   UNL     1       6.557   5.348  16.795  0.00  0.00    +0.000 A 
ATOM     11  C   UNL     1       7.338   5.407  15.640  0.00  0.00    +0.000 A 
ATOM     12  C   UNL     1       6.841   4.881  14.458  0.00  0.00    +0.000 A 
ATOM     13  F   UNL     1       7.586   4.941  13.347  0.00  0.00    +0.000 F 
ATOM     14  C   UNL     1       5.577   4.306  14.411  0.00  0.00    +0.000 A 
ATOM     15  C   UNL     1       4.794   4.244  15.570  0.00  0.00    +0.000 A 
ENDBRANCH   6   9
BRANCH   6  16
ATOM     16  C   UNL     1       3.541   5.932  18.332  0.00  0.00    +0.000 A 
ATOM     17  C   UNL     1       3.491   7.024  17.449  0.00  0.00    +0.000 A 
ATOM     18  C   UNL     1       2.773   8.182  17.765  0.00  0.00    +0.000 A 
ATOM     19  C   UNL     1       2.085   8.270  18.971  0.00  0.00    +0.000 A 
ATOM     20  C   UNL     1       2.098   7.194  19.854  0.00  0.00    +0.000 A 
ATOM     21  C   UNL     1       2.815   6.036  19.537  0.00  0.00    +0.000 A 
ENDBRANCH   6  16
TORSDOF 2
ENDMDL
MODEL 6
REMARK VINA RESULT:      -8.2      2.474      5.026
REMARK  Name = 
REMARK  2 active torsions:
REMARK  status: ('A' for Active; 'I' for Inactive)
REMARK    1  A    between atoms: C_6  and  C_7
REMARK    2  A    between atoms: C_6  and  C_13
REMARK                            x       y       z     vdW  Elec       q    Type
REMARK                         _______ _______ _______ _____ _____    ______ ____
ROOT
ATOM      1  O   UNL     1       3.428   1.407  18.637  0.00  0.00    +0.000 OA
ATOM      2  C   UNL     1       3.913   2.526  18.756  0.00  0.00    +0.000 C 
ATOM      3  N   UNL     1       4.841   2.912  19.602  0.00  0.00    +0.000 NA
ATOM      4  C   UNL     1       5.216   4.156  19.261  0.00  0.00    +0.000 C 
ATOM      5  O   UNL     1       6.123   4.792  19.794  0.00  0.00    +0.000 OA
ATOM      6  C   UNL     1       4.371   4.690  18.071  0.00  0.00    +0.000 C 
ATOM      7  N   UNL     1       3.473   3.557  18.009  0.00  0.00    +0.000 N 
ATOM      8  H   UNL     1       2.903   3.411  17.192  0.00  0.00    +0.000 HD
ENDROOT
BRANCH   6   9
ATOM      9  C   UNL     1       5.233   4.779  16.795  0.00  0.00    +0.000 A 
ATOM     10  C   UNL     1       4.770   4.286  15.553  0.00  0.00    +0.000 A 
ATOM     11  C   UNL     1       5.554   4.359  14.400  0.00  0.00    +0.000 A 
ATOM     12  C   UNL     1       6.823   4.909  14.478  0.00  0.00    +0.000 A 
ATOM     13  F   UNL     1       7.580   4.976  13.374  0.00  0.00    +0.000 F 
ATOM     14  C   UNL     1       7.322   5.381  15.686  0.00  0.00    +0.000 A 
ATOM     15  C   UNL     1       6.535   5.311  16.841  0.00  0.00    +0.000 A 
ENDBRANCH   6   9
BRANCH   6  16
ATOM     16  C   UNL     1       3.506   5.925  18.373  0.00  0.00    +0.000 A 
ATOM     17  C   UNL     1       3.456   7.042  17.521  0.00  0.00    +0.000 A 
ATOM     18  C   UNL     1       2.741   8.192  17.872  0.00  0.00    +0.000 A 
ATOM     19  C   UNL     1       2.056   8.247  19.081  0.00  0.00    +0.000 A 
ATOM     20  C   UNL     1       2.069   7.147  19.934  0.00  0.00    +0.000 A 
ATOM     21  C   UNL     1       2.784   5.997  19.583  0.00  0.00    +0.000 A 
ENDBRANCH   6  16
TORSDOF 2
ENDMDL
MODEL 7
REMARK VINA RESULT:      -8.2      1.697      2.310
REMARK  Name = 
REMARK  2 active torsions:
REMARK  status: ('A' for Active; 'I' for Inactive)
REMARK    1  A    between atoms: C_6  and  C_7
REMARK    2  A    between atoms: C_6  and  C_13
REMARK                            x       y       z     vdW  Elec       q    Type
REMARK                         _______ _______ _______ _____ _____    ______ ____
ROOT
ATOM      1  O   UNL     1       1.931   2.984  21.922  0.00  0.00    +0.000 OA
ATOM      2  C   UNL     1       2.071   3.380  20.771  0.00  0.00    +0.000 C 
ATOM      3  N   UNL     1       1.355   3.057  19.719  0.00  0.00    +0.000 NA
ATOM      4  C   UNL     1       1.721   3.865  18.709  0.00  0.00    +0.000 C 
ATOM      5  O   UNL     1       1.196   3.889  17.598  0.00  0.00    +0.000 OA
ATOM      6  C   UNL     1       2.888   4.800  19.133  0.00  0.00    +0.000 C 
ATOM      7  N   UNL     1       3.081   4.209  20.440  0.00  0.00    +0.000 N 
ATOM      8  H   UNL     1       3.612   4.699  21.140  0.00  0.00    +0.000 HD
ENDROOT
BRANCH   6   9
ATOM      9  C   UNL     1       2.393   6.256  19.257  0.00  0.00    +0.000 A 
ATOM     10  C   UNL     1       2.470   7.159  18.171  0.00  0.00    +0.000 A 
ATOM     11  C   UNL     1       2.031   8.479  18.286  0.00  0.00    +0.000 A 
ATOM     12  C   UNL     1       1.524   8.921  19.498  0.00  0.00    +0.000 A 
ATOM     13  F   UNL     1       1.106  10.189  19.612  0.00  0.00    +0.000 F 
ATOM     14  C   UNL     1       1.457   8.070  20.594  0.00  0.00    +0.000 A 
ATOM     15  C   UNL     1       1.895   6.746  20.478  0.00  0.00    +0.000 A 
ENDBRANCH   6   9
BRANCH   6  16
ATOM     16  C   UNL     1       4.204   4.611  18.362  0.00  0.00    +0.000 A 
ATOM     17  C   UNL     1       5.454   4.967  18.898  0.00  0.00    +0.000 A 
ATOM     18  C   UNL     1       6.623   4.879  18.135  0.00  0.00    +0.000 A 
ATOM     19  C   UNL     1       6.567   4.429  16.820  0.00  0.00    +0.000 A 
ATOM     20  C   UNL     1       5.346   4.047  16.272  0.00  0.00    +0.000 A 
ATOM     21  C   UNL     1       4.177   4.135  17.035  0.00  0.00    +0.000 A 
ENDBRANCH   6  16
TORSDOF 2
ENDMDL
MODEL 8
REMARK VINA RESULT:      -8.2      1.652      1.978
REMARK  Name = 
REMARK  2 active torsions:
REMARK  status: ('A' for Active; 'I' for Inactive)
REMARK    1  A    between atoms: C_6  and  C_7
REMARK    2  A    between atoms: C_6  and  C_13
REMARK                            x       y       z     vdW  Elec       q    Type
REMARK                         _______ _______ _______ _____ _____    ______ ____
ROOT
ATOM      1  O   UNL     1       2.024   2.914  21.880  0.00  0.00    +0.000 OA
ATOM      2  C   UNL     1       2.148   3.321  20.731  0.00  0.00    +0.000 C 
ATOM      3  N   UNL     1       1.411   3.015  19.688  0.00  0.00    +0.000 NA
ATOM      4  C   UNL     1       1.766   3.831  18.680  0.00  0.00    +0.000 C 
ATOM      5  O   UNL     1       1.222   3.870  17.579  0.00  0.00    +0.000 OA
ATOM      6  C   UNL     1       2.946   4.753  19.094  0.00  0.00    +0.000 C 
ATOM      7  N   UNL     1       3.158   4.146  20.391  0.00  0.00    +0.000 N 
ATOM      8  H   UNL     1       3.704   4.625  21.088  0.00  0.00    +0.000 HD
ENDROOT
BRANCH   6   9
ATOM      9  C   UNL     1       2.465   6.211  19.242  0.00  0.00    +0.000 A 
ATOM     10  C   UNL     1       1.919   6.692  20.455  0.00  0.00    +0.000 A 
ATOM     11  C   UNL     1       1.475   8.009  20.585  0.00  0.00    +0.000 A 
ATOM     12  C   UNL     1       1.553   8.860  19.495  0.00  0.00    +0.000 A 
ATOM     13  F   UNL     1       1.123  10.124  19.616  0.00  0.00    +0.000 F 
ATOM     14  C   UNL     1       2.059   8.417  18.280  0.00  0.00    +0.000 A 
ATOM     15  C   UNL     1       2.507   7.097  18.150  0.00  0.00    +0.000 A 
ENDBRANCH   6   9
BRANCH   6  16
ATOM     16  C   UNL     1       4.248   4.563  18.298  0.00  0.00    +0.000 A 
ATOM     17  C   UNL     1       5.507   4.927  18.806  0.00  0.00    +0.000 A 
ATOM     18  C   UNL     1       6.661   4.837  18.021  0.00  0.00    +0.000 A 
ATOM     19  C   UNL     1       6.580   4.376  16.711  0.00  0.00    +0.000 A 
ATOM     20  C   UNL     1       5.350   3.986  16.190  0.00  0.00    +0.000 A 
ATOM     21  C   UNL     1       4.196   4.076  16.976  0.00  0.00    +0.000 A 
ENDBRANCH   6  16
TORSDOF 2
ENDMDL
MODEL 9
REMARK VINA RESULT:      -8.2      2.500      4.997
REMARK  Name = 
REMARK  2 active torsions:
REMARK  status: ('A' for Active; 'I' for Inactive)
REMARK    1  A    between atoms: C_6  and  C_7
REMARK    2  A    between atoms: C_6  and  C_13
REMARK                            x       y       z     vdW  Elec       q    Type
REMARK                         _______ _______ _______ _____ _____    ______ ____
ROOT
ATOM      1  O   UNL     1       3.448   1.485  18.737  0.00  0.00    +0.000 OA
ATOM      2  C   UNL     1       3.972   2.588  18.829  0.00  0.00    +0.000 C 
ATOM      3  N   UNL     1       4.942   2.951  19.638  0.00  0.00    +0.000 NA
ATOM      4  C   UNL     1       5.345   4.180  19.272  0.00  0.00    +0.000 C 
ATOM      5  O   UNL     1       6.290   4.789  19.767  0.00  0.00    +0.000 OA
ATOM      6  C   UNL     1       4.475   4.732  18.109  0.00  0.00    +0.000 C 
ATOM      7  N   UNL     1       3.540   3.628  18.089  0.00  0.00    +0.000 N 
ATOM      8  H   UNL     1       2.936   3.494  17.294  0.00  0.00    +0.000 HD
ENDROOT
BRANCH   6   9
ATOM      9  C   UNL     1       5.293   4.782  16.802  0.00  0.00    +0.000 A 
ATOM     10  C   UNL     1       4.784   4.263  15.589  0.00  0.00    +0.000 A 
ATOM     11  C   UNL     1       5.528   4.301  14.409  0.00  0.00    +0.000 A 
ATOM     12  C   UNL     1       6.803   4.843  14.429  0.00  0.00    +0.000 A 
ATOM     13  F   UNL     1       7.522   4.877  13.299  0.00  0.00    +0.000 F 
ATOM     14  C   UNL     1       7.347   5.340  15.607  0.00  0.00    +0.000 A 
ATOM     15  C   UNL     1       6.600   5.304  16.790  0.00  0.00    +0.000 A 
ENDBRANCH   6   9
BRANCH   6  16
ATOM     16  C   UNL     1       3.662   5.996  18.430  0.00  0.00    +0.000 A 
ATOM     17  C   UNL     1       2.882   6.120  19.594  0.00  0.00    +0.000 A 
ATOM     18  C   UNL     1       2.074   7.241  19.810  0.00  0.00    +0.000 A 
ATOM     19  C   UNL     1       2.030   8.264  18.868  0.00  0.00    +0.000 A 
ATOM     20  C   UNL     1       2.810   8.177  17.718  0.00  0.00    +0.000 A 
ATOM     21  C   UNL     1       3.619   7.057  17.502  0.00  0.00    +0.000 A 
ENDBRANCH   6  16
TORSDOF 2
ENDMDL
