MODEL 1
REMARK VINA RESULT:      -8.1      0.000      0.000
REMARK  Name = 
REMARK  7 active torsions:
REMARK  status: ('A' for Active; 'I' for Inactive)
REMARK    1  A    between atoms: C_1  and  C_2
REMARK    2  A    between atoms: C_7  and  O_8
REMARK    3  A    between atoms: O_8  and  C_9
REMARK    4  A    between atoms: C_9  and  C_10
REMARK    5  A    between atoms: C_10  and  N_11
REMARK    6  A    between atoms: N_16  and  C_17
REMARK    7  A    between atoms: C_17  and  C_18
REMARK                            x       y       z     vdW  Elec       q    Type
REMARK                         _______ _______ _______ _____ _____    ______ ____
ROOT
ATOM      1  N   UNL     1       6.948   7.058  17.900  0.00  0.00    +0.000 N 
ATOM      2  C   UNL     1       7.717   6.280  18.745  0.00  0.00    +0.000 A 
ATOM      3  C   UNL     1       7.300   5.117  19.231  0.00  0.00    +0.000 A 
ATOM      4  C   UNL     1       5.990   4.603  18.838  0.00  0.00    +0.000 A 
ATOM      5  O   UNL     1       5.611   3.540  19.318  0.00  0.00    +0.000 OA
ATOM      6  N   UNL     1       5.284   5.369  17.937  0.00  0.00    +0.000 N 
ATOM      7  C   UNL     1       5.667   6.646  17.505  0.00  0.00    +0.000 A 
ATOM      8  O   UNL     1       4.936   7.367  16.822  0.00  0.00    +0.000 OA
ENDROOT
BRANCH   1   9
ATOM      9  C   UNL     1       7.444   8.354  17.367  0.00  0.00    +0.000 C 
BRANCH   9  10
ATOM     10  C   UNL     1       8.520   9.023  18.228  0.00  0.00    +0.000 C 
BRANCH  10  11
ATOM     11  O   UNL     1       8.499  10.442  18.238  0.00  0.00    +0.000 OA
BRANCH  11  18
ATOM     12  C   UNL     1       9.050  11.143  21.268  0.00  0.00    +0.000 C 
ATOM     13  C   UNL     1       9.940  11.376  20.078  0.00  0.00    +0.000 A 
ATOM     14  C   UNL     1      11.167  12.015  20.357  0.00  0.00    +0.000 A 
ATOM     15  C   UNL     1      12.076  12.322  19.349  0.00  0.00    +0.000 A 
ATOM     16  C   UNL     1      11.780  11.984  18.035  0.00  0.00    +0.000 A 
ATOM     17  C   UNL     1      10.570  11.353  17.734  0.00  0.00    +0.000 A 
ATOM     18  C   UNL     1       9.642  11.033  18.739  0.00  0.00    +0.000 A 
ENDBRANCH  11  18
ENDBRANCH  10  11
ENDBRANCH   9  10
ENDBRANCH   1   9
BRANCH   6  19
ATOM     19  C   UNL     1       4.059   4.804  17.402  0.00  0.00    +0.000 C 
BRANCH  19  20
ATOM     20  C   UNL     1       2.994   4.676  18.476  0.00  0.00    +0.000 A 
ATOM     21  C   UNL     1       2.820   5.681  19.440  0.00  0.00    +0.000 A 
ATOM     22  C   UNL     1       1.841   5.555  20.429  0.00  0.00    +0.000 A 
ATOM     23  C   UNL     1       1.030   4.423  20.468  0.00  0.00    +0.000 A 
ATOM     24  C   UNL     1       1.209   3.408  19.529  0.00  0.00    +0.000 A 
ATOM     25  C   UNL     1       2.189   3.530  18.543  0.00  0.00    +0.000 A 
ENDBRANCH  19  20
ENDBRANCH   6  19
TORSDOF 6
ENDMDL
MODEL 2
REMARK VINA RESULT:      -8.0      4.520      8.073
REMARK  Name = 
REMARK  7 active torsions:
REMARK  status: ('A' for Active; 'I' for Inactive)
REMARK    1  A    between atoms: C_1  and  C_2
REMARK    2  A    between atoms: C_7  and  O_8
REMARK    3  A    between atoms: O_8  and  C_9
REMARK    4  A    between atoms: C_9  and  C_10
REMARK    5  A    between atoms: C_10  and  N_11
REMARK    6  A    between atoms: N_16  and  C_17
REMARK    7  A    between atoms: C_17  and  C_18
REMARK                            x       y       z     vdW  Elec       q    Type
REMARK                         _______ _______ _______ _____ _____    ______ ____
ROOT
ATOM      1  N   UNL     1       4.858   6.438  17.660  0.00  0.00    +0.000 N 
ATOM      2  C   UNL     1       5.318   5.711  18.743  0.00  0.00    +0.000 A 
ATOM      3  C   UNL     1       6.400   4.943  18.686  0.00  0.00    +0.000 A 
ATOM      4  C   UNL     1       7.171   4.879  17.447  0.00  0.00    +0.000 A 
ATOM      5  O   UNL     1       8.151   4.143  17.405  0.00  0.00    +0.000 OA
ATOM      6  N   UNL     1       6.725   5.674  16.414  0.00  0.00    +0.000 N 
ATOM      7  C   UNL     1       5.526   6.401  16.429  0.00  0.00    +0.000 A 
ATOM      8  O   UNL     1       5.081   6.974  15.432  0.00  0.00    +0.000 OA
ENDROOT
BRANCH   1   9
ATOM      9  C   UNL     1       3.646   7.293  17.756  0.00  0.00    +0.000 C 
BRANCH   9  10
ATOM     10  C   UNL     1       2.393   6.565  18.252  0.00  0.00    +0.000 C 
BRANCH  10  11
ATOM     11  O   UNL     1       2.219   5.245  17.759  0.00  0.00    +0.000 OA
BRANCH  11  18
ATOM     12  C   UNL     1       3.447   2.340  17.577  0.00  0.00    +0.000 C 
ATOM     13  C   UNL     1       2.665   2.956  18.705  0.00  0.00    +0.000 A 
ATOM     14  C   UNL     1       2.431   2.109  19.810  0.00  0.00    +0.000 A 
ATOM     15  C   UNL     1       1.696   2.535  20.912  0.00  0.00    +0.000 A 
ATOM     16  C   UNL     1       1.185   3.825  20.937  0.00  0.00    +0.000 A 
ATOM     17  C   UNL     1       1.401   4.681  19.853  0.00  0.00    +0.000 A 
ATOM     18  C   UNL     1       2.143   4.270  18.734  0.00  0.00    +0.000 A 
ENDBRANCH  11  18
ENDBRANCH  10  11
ENDBRANCH   9  10
ENDBRANCH   1   9
BRANCH   6  19
ATOM     19  C   UNL     1       7.562   5.759  15.232  0.00  0.00    +0.000 C 
BRANCH  19  20
ATOM     20  C   UNL     1       7.022   4.895  14.108  0.00  0.00    +0.000 A 
ATOM     21  C   UNL     1       5.962   4.003  14.332  0.00  0.00    +0.000 A 
ATOM     22  C   UNL     1       5.471   3.207  13.294  0.00  0.00    +0.000 A 
ATOM     23  C   UNL     1       6.037   3.290  12.024  0.00  0.00    +0.000 A 
ATOM     24  C   UNL     1       7.106   4.156  11.794  0.00  0.00    +0.000 A 
ATOM     25  C   UNL     1       7.600   4.950  12.831  0.00  0.00    +0.000 A 
ENDBRANCH  19  20
ENDBRANCH   6  19
TORSDOF 6
ENDMDL
MODEL 3
REMARK VINA RESULT:      -8.0      4.769      7.502
REMARK  Name = 
REMARK  7 active torsions:
REMARK  status: ('A' for Active; 'I' for Inactive)
REMARK    1  A    between atoms: C_1  and  C_2
REMARK    2  A    between atoms: C_7  and  O_8
REMARK    3  A    between atoms: O_8  and  C_9
REMARK    4  A    between atoms: C_9  and  C_10
REMARK    5  A    between atoms: C_10  and  N_11
REMARK    6  A    between atoms: N_16  and  C_17
REMARK    7  A    between atoms: C_17  and  C_18
REMARK                            x       y       z     vdW  Elec       q    Type
REMARK                         _______ _______ _______ _____ _____    ______ ____
ROOT
ATOM      1  N   UNL     1       2.129   7.960  19.052  0.00  0.00    +0.000 N 
ATOM      2  C   UNL     1       1.767   7.595  20.336  0.00  0.00    +0.000 A 
ATOM      3  C   UNL     1       1.054   8.382  21.133  0.00  0.00    +0.000 A 
ATOM      4  C   UNL     1       0.593   9.678  20.638  0.00  0.00    +0.000 A 
ATOM      5  O   UNL     1      -0.042  10.402  21.398  0.00  0.00    +0.000 OA
ATOM      6  N   UNL     1       0.909   9.974  19.330  0.00  0.00    +0.000 N 
ATOM      7  C   UNL     1       1.751   9.200  18.519  0.00  0.00    +0.000 A 
ATOM      8  O   UNL     1       2.138   9.575  17.410  0.00  0.00    +0.000 OA
ENDROOT
BRANCH   1   9
ATOM      9  C   UNL     1       2.924   7.055  18.181  0.00  0.00    +0.000 C 
BRANCH   9  10
ATOM     10  C   UNL     1       3.462   5.807  18.886  0.00  0.00    +0.000 C 
BRANCH  10  11
ATOM     11  O   UNL     1       4.876   5.707  18.956  0.00  0.00    +0.000 OA
BRANCH  11  18
ATOM     12  C   UNL     1       7.360   7.123  17.613  0.00  0.00    +0.000 C 
ATOM     13  C   UNL     1       6.592   5.924  17.128  0.00  0.00    +0.000 A 
ATOM     14  C   UNL     1       7.027   5.386  15.898  0.00  0.00    +0.000 A 
ATOM     15  C   UNL     1       6.391   4.295  15.312  0.00  0.00    +0.000 A 
ATOM     16  C   UNL     1       5.307   3.711  15.953  0.00  0.00    +0.000 A 
ATOM     17  C   UNL     1       4.855   4.229  17.170  0.00  0.00    +0.000 A 
ATOM     18  C   UNL     1       5.487   5.327  17.777  0.00  0.00    +0.000 A 
ENDBRANCH  11  18
ENDBRANCH  10  11
ENDBRANCH   9  10
ENDBRANCH   1   9
BRANCH   6  19
ATOM     19  C   UNL     1       0.323  11.174  18.761  0.00  0.00    +0.000 C 
BRANCH  19  20
ATOM     20  C   UNL     1      -1.124  10.949  18.365  0.00  0.00    +0.000 A 
ATOM     21  C   UNL     1      -1.471   9.946  17.446  0.00  0.00    +0.000 A 
ATOM     22  C   UNL     1      -2.804   9.746  17.082  0.00  0.00    +0.000 A 
ATOM     23  C   UNL     1      -3.804  10.548  17.626  0.00  0.00    +0.000 A 
ATOM     24  C   UNL     1      -3.470  11.563  18.523  0.00  0.00    +0.000 A 
ATOM     25  C   UNL     1      -2.137  11.766  18.886  0.00  0.00    +0.000 A 
ENDBRANCH  19  20
ENDBRANCH   6  19
TORSDOF 6
ENDMDL
MODEL 4
REMARK VINA RESULT:      -8.0      1.423      2.146
REMARK  Name = 
REMARK  7 active torsions:
REMARK  status: ('A' for Active; 'I' for Inactive)
REMARK    1  A    between atoms: C_1  and  C_2
REMARK    2  A    between atoms: C_7  and  O_8
REMARK    3  A    between atoms: O_8  and  C_9
REMARK    4  A    between atoms: C_9  and  C_10
REMARK    5  A    between atoms: C_10  and  N_11
REMARK    6  A    between atoms: N_16  and  C_17
REMARK    7  A    between atoms: C_17  and  C_18
REMARK                            x       y       z     vdW  Elec       q    Type
REMARK                         _______ _______ _______ _____ _____    ______ ____
ROOT
ATOM      1  N   UNL     1       7.195   6.681  18.041  0.00  0.00    +0.000 N 
ATOM      2  C   UNL     1       6.627   6.900  16.799  0.00  0.00    +0.000 A 
ATOM      3  C   UNL     1       5.699   6.104  16.282  0.00  0.00    +0.000 A 
ATOM      4  C   UNL     1       5.218   4.963  17.058  0.00  0.00    +0.000 A 
ATOM      5  O   UNL     1       4.380   4.224  16.552  0.00  0.00    +0.000 OA
ATOM      6  N   UNL     1       5.751   4.821  18.320  0.00  0.00    +0.000 N 
ATOM      7  C   UNL     1       6.807   5.590  18.830  0.00  0.00    +0.000 A 
ATOM      8  O   UNL     1       7.364   5.332  19.900  0.00  0.00    +0.000 OA
ENDROOT
BRANCH   1   9
ATOM      9  C   UNL     1       8.228   7.594  18.596  0.00  0.00    +0.000 C 
BRANCH   9  10
ATOM     10  C   UNL     1       8.248   8.989  17.963  0.00  0.00    +0.000 C 
BRANCH  10  11
ATOM     11  O   UNL     1       8.361  10.071  18.875  0.00  0.00    +0.000 OA
BRANCH  11  18
ATOM     12  C   UNL     1       7.653  12.640  17.179  0.00  0.00    +0.000 C 
ATOM     13  C   UNL     1       8.989  12.222  17.730  0.00  0.00    +0.000 A 
ATOM     14  C   UNL     1      10.065  13.081  17.420  0.00  0.00    +0.000 A 
ATOM     15  C   UNL     1      11.364  12.804  17.837  0.00  0.00    +0.000 A 
ATOM     16  C   UNL     1      11.613  11.662  18.585  0.00  0.00    +0.000 A 
ATOM     17  C   UNL     1      10.564  10.794  18.901  0.00  0.00    +0.000 A 
ATOM     18  C   UNL     1       9.247  11.059  18.492  0.00  0.00    +0.000 A 
ENDBRANCH  11  18
ENDBRANCH  10  11
ENDBRANCH   9  10
ENDBRANCH   1   9
BRANCH   6  19
ATOM     19  C   UNL     1       5.173   3.800  19.174  0.00  0.00    +0.000 C 
BRANCH  19  20
ATOM     20  C   UNL     1       3.774   4.182  19.623  0.00  0.00    +0.000 A 
ATOM     21  C   UNL     1       3.414   5.529  19.787  0.00  0.00    +0.000 A 
ATOM     22  C   UNL     1       2.127   5.874  20.204  0.00  0.00    +0.000 A 
ATOM     23  C   UNL     1       1.188   4.879  20.467  0.00  0.00    +0.000 A 
ATOM     24  C   UNL     1       1.541   3.537  20.330  0.00  0.00    +0.000 A 
ATOM     25  C   UNL     1       2.828   3.190  19.916  0.00  0.00    +0.000 A 
ENDBRANCH  19  20
ENDBRANCH   6  19
TORSDOF 6
ENDMDL
MODEL 5
REMARK VINA RESULT:      -8.0      5.415      8.733
REMARK  Name = 
REMARK  7 active torsions:
REMARK  status: ('A' for Active; 'I' for Inactive)
REMARK    1  A    between atoms: C_1  and  C_2
REMARK    2  A    between atoms: C_7  and  O_8
REMARK    3  A    between atoms: O_8  and  C_9
REMARK    4  A    between atoms: C_9  and  C_10
REMARK    5  A    between atoms: C_10  and  N_11
REMARK    6  A    between atoms: N_16  and  C_17
REMARK    7  A    between atoms: C_17  and  C_18
REMARK                            x       y       z     vdW  Elec       q    Type
REMARK                         _______ _______ _______ _____ _____    ______ ____
ROOT
ATOM      1  N   UNL     1       2.062   7.758  19.144  0.00  0.00    +0.000 N 
ATOM      2  C   UNL     1       1.730   7.524  20.465  0.00  0.00    +0.000 A 
ATOM      3  C   UNL     1       1.108   8.423  21.221  0.00  0.00    +0.000 A 
ATOM      4  C   UNL     1       0.718   9.705  20.638  0.00  0.00    +0.000 A 
ATOM      5  O   UNL     1       0.170  10.532  21.358  0.00  0.00    +0.000 OA
ATOM      6  N   UNL     1       0.998   9.872  19.299  0.00  0.00    +0.000 N 
ATOM      7  C   UNL     1       1.749   8.976  18.524  0.00  0.00    +0.000 A 
ATOM      8  O   UNL     1       2.114   9.232  17.374  0.00  0.00    +0.000 OA
ENDROOT
BRANCH   1   9
ATOM      9  C   UNL     1       2.752   6.730  18.322  0.00  0.00    +0.000 C 
BRANCH   9  10
ATOM     10  C   UNL     1       4.020   6.154  18.960  0.00  0.00    +0.000 C 
BRANCH  10  11
ATOM     11  O   UNL     1       4.185   4.750  18.830  0.00  0.00    +0.000 OA
BRANCH  11  18
ATOM     12  C   UNL     1       2.338   2.643  17.372  0.00  0.00    +0.000 C 
ATOM     13  C   UNL     1       2.333   3.046  18.821  0.00  0.00    +0.000 A 
ATOM     14  C   UNL     1       1.354   2.416  19.619  0.00  0.00    +0.000 A 
ATOM     15  C   UNL     1       1.212   2.715  20.971  0.00  0.00    +0.000 A 
ATOM     16  C   UNL     1       2.057   3.647  21.558  0.00  0.00    +0.000 A 
ATOM     17  C   UNL     1       3.032   4.286  20.787  0.00  0.00    +0.000 A 
ATOM     18  C   UNL     1       3.191   3.995  19.422  0.00  0.00    +0.000 A 
ENDBRANCH  11  18
ENDBRANCH  10  11
ENDBRANCH   9  10
ENDBRANCH   1   9
BRANCH   6  19
ATOM     19  C   UNL     1       0.475  11.062  18.655  0.00  0.00    +0.000 C 
BRANCH  19  20
ATOM     20  C   UNL     1      -0.999  10.911  18.327  0.00  0.00    +0.000 A 
ATOM     21  C   UNL     1      -1.954  11.767  18.896  0.00  0.00    +0.000 A 
ATOM     22  C   UNL     1      -3.310  11.622  18.592  0.00  0.00    +0.000 A 
ATOM     23  C   UNL     1      -3.726  10.615  17.724  0.00  0.00    +0.000 A 
ATOM     24  C   UNL     1      -2.789   9.744  17.170  0.00  0.00    +0.000 A 
ATOM     25  C   UNL     1      -1.434   9.886  17.474  0.00  0.00    +0.000 A 
ENDBRANCH  19  20
ENDBRANCH   6  19
TORSDOF 6
ENDMDL
MODEL 6
REMARK VINA RESULT:      -7.9      4.844      6.715
REMARK  Name = 
REMARK  7 active torsions:
REMARK  status: ('A' for Active; 'I' for Inactive)
REMARK    1  A    between atoms: C_1  and  C_2
REMARK    2  A    between atoms: C_7  and  O_8
REMARK    3  A    between atoms: O_8  and  C_9
REMARK    4  A    between atoms: C_9  and  C_10
REMARK    5  A    between atoms: C_10  and  N_11
REMARK    6  A    between atoms: N_16  and  C_17
REMARK    7  A    between atoms: C_17  and  C_18
REMARK                            x       y       z     vdW  Elec       q    Type
REMARK                         _______ _______ _______ _____ _____    ______ ____
ROOT
ATOM      1  N   UNL     1       5.244   4.512  17.905  0.00  0.00    +0.000 N 
ATOM      2  C   UNL     1       4.533   3.725  17.018  0.00  0.00    +0.000 A 
ATOM      3  C   UNL     1       3.233   3.489  17.148  0.00  0.00    +0.000 A 
ATOM      4  C   UNL     1       2.498   4.108  18.249  0.00  0.00    +0.000 A 
ATOM      5  O   UNL     1       1.303   3.856  18.369  0.00  0.00    +0.000 OA
ATOM      6  N   UNL     1       3.223   4.945  19.068  0.00  0.00    +0.000 N 
ATOM      7  C   UNL     1       4.613   5.113  19.004  0.00  0.00    +0.000 A 
ATOM      8  O   UNL     1       5.249   5.747  19.850  0.00  0.00    +0.000 OA
ENDROOT
BRANCH   1   9
ATOM      9  C   UNL     1       6.698   4.764  17.730  0.00  0.00    +0.000 C 
BRANCH   9  10
ATOM     10  C   UNL     1       7.264   4.302  16.383  0.00  0.00    +0.000 C 
BRANCH  10  11
ATOM     11  O   UNL     1       7.258   5.278  15.352  0.00  0.00    +0.000 OA
BRANCH  11  18
ATOM     12  C   UNL     1       8.869   6.029  12.741  0.00  0.00    +0.000 C 
ATOM     13  C   UNL     1       7.709   5.082  12.884  0.00  0.00    +0.000 A 
ATOM     14  C   UNL     1       7.273   4.476  11.686  0.00  0.00    +0.000 A 
ATOM     15  C   UNL     1       6.191   3.601  11.662  0.00  0.00    +0.000 A 
ATOM     16  C   UNL     1       5.525   3.305  12.844  0.00  0.00    +0.000 A 
ATOM     17  C   UNL     1       5.937   3.896  14.042  0.00  0.00    +0.000 A 
ATOM     18  C   UNL     1       7.028   4.778  14.085  0.00  0.00    +0.000 A 
ENDBRANCH  11  18
ENDBRANCH  10  11
ENDBRANCH   9  10
ENDBRANCH   1   9
BRANCH   6  19
ATOM     19  C   UNL     1       2.487   5.701  20.064  0.00  0.00    +0.000 C 
BRANCH  19  20
ATOM     20  C   UNL     1       2.122   7.082  19.551  0.00  0.00    +0.000 A 
ATOM     21  C   UNL     1       2.433   7.467  18.238  0.00  0.00    +0.000 A 
ATOM     22  C   UNL     1       2.097   8.741  17.773  0.00  0.00    +0.000 A 
ATOM     23  C   UNL     1       1.454   9.645  18.616  0.00  0.00    +0.000 A 
ATOM     24  C   UNL     1       1.161   9.282  19.930  0.00  0.00    +0.000 A 
ATOM     25  C   UNL     1       1.498   8.010  20.397  0.00  0.00    +0.000 A 
ENDBRANCH  19  20
ENDBRANCH   6  19
TORSDOF 6
ENDMDL
MODEL 7
REMARK VINA RESULT:      -7.9      4.888      7.665
REMARK  Name = 
REMARK  7 active torsions:
REMARK  status: ('A' for Active; 'I' for Inactive)
REMARK    1  A    between atoms: C_1  and  C_2
REMARK    2  A    between atoms: C_7  and  O_8
REMARK    3  A    between atoms: O_8  and  C_9
REMARK    4  A    between atoms: C_9  and  C_10
REMARK    5  A    between atoms: C_10  and  N_11
REMARK    6  A    between atoms: N_16  and  C_17
REMARK    7  A    between atoms: C_17  and  C_18
REMARK                            x       y       z     vdW  Elec       q    Type
REMARK                         _______ _______ _______ _____ _____    ______ ____
ROOT
ATOM      1  N   UNL     1       1.872   8.115  19.272  0.00  0.00    +0.000 N 
ATOM      2  C   UNL     1       1.573   7.886  20.603  0.00  0.00    +0.000 A 
ATOM      3  C   UNL     1       0.926   8.767  21.357  0.00  0.00    +0.000 A 
ATOM      4  C   UNL     1       0.471  10.022  20.763  0.00  0.00    +0.000 A 
ATOM      5  O   UNL     1      -0.102  10.836  21.481  0.00  0.00    +0.000 OA
ATOM      6  N   UNL     1       0.720  10.182  19.417  0.00  0.00    +0.000 N 
ATOM      7  C   UNL     1       1.495   9.309  18.642  0.00  0.00    +0.000 A 
ATOM      8  O   UNL     1       1.829   9.564  17.482  0.00  0.00    +0.000 OA
ENDROOT
BRANCH   1   9
ATOM      9  C   UNL     1       2.593   7.107  18.452  0.00  0.00    +0.000 C 
BRANCH   9  10
ATOM     10  C   UNL     1       3.177   5.938  19.253  0.00  0.00    +0.000 C 
BRANCH  10  11
ATOM     11  O   UNL     1       3.685   4.862  18.479  0.00  0.00    +0.000 OA
BRANCH  11  18
ATOM     12  C   UNL     1       5.111   3.964  15.807  0.00  0.00    +0.000 C 
ATOM     13  C   UNL     1       5.732   4.532  17.053  0.00  0.00    +0.000 A 
ATOM     14  C   UNL     1       7.139   4.650  17.026  0.00  0.00    +0.000 A 
ATOM     15  C   UNL     1       7.852   5.132  18.120  0.00  0.00    +0.000 A 
ATOM     16  C   UNL     1       7.169   5.516  19.266  0.00  0.00    +0.000 A 
ATOM     17  C   UNL     1       5.777   5.405  19.317  0.00  0.00    +0.000 A 
ATOM     18  C   UNL     1       5.041   4.925  18.222  0.00  0.00    +0.000 A 
ENDBRANCH  11  18
ENDBRANCH  10  11
ENDBRANCH   9  10
ENDBRANCH   1   9
BRANCH   6  19
ATOM     19  C   UNL     1       0.134  11.339  18.766  0.00  0.00    +0.000 C 
BRANCH  19  20
ATOM     20  C   UNL     1      -1.310  11.081  18.375  0.00  0.00    +0.000 A 
ATOM     21  C   UNL     1      -1.636  10.078  17.450  0.00  0.00    +0.000 A 
ATOM     22  C   UNL     1      -2.966   9.847  17.090  0.00  0.00    +0.000 A 
ATOM     23  C   UNL     1      -3.983  10.621  17.646  0.00  0.00    +0.000 A 
ATOM     24  C   UNL     1      -3.669  11.636  18.549  0.00  0.00    +0.000 A 
ATOM     25  C   UNL     1      -2.340  11.870  18.907  0.00  0.00    +0.000 A 
ENDBRANCH  19  20
ENDBRANCH   6  19
TORSDOF 6
ENDMDL
MODEL 8
REMARK VINA RESULT:      -7.9      4.554      7.895
REMARK  Name = 
REMARK  7 active torsions:
REMARK  status: ('A' for Active; 'I' for Inactive)
REMARK    1  A    between atoms: C_1  and  C_2
REMARK    2  A    between atoms: C_7  and  O_8
REMARK    3  A    between atoms: O_8  and  C_9
REMARK    4  A    between atoms: C_9  and  C_10
REMARK    5  A    between atoms: C_10  and  N_11
REMARK    6  A    between atoms: N_16  and  C_17
REMARK    7  A    between atoms: C_17  and  C_18
REMARK                            x       y       z     vdW  Elec       q    Type
REMARK                         _______ _______ _______ _____ _____    ______ ____
ROOT
ATOM      1  N   UNL     1       4.794   6.280  17.722  0.00  0.00    +0.000 N 
ATOM      2  C   UNL     1       5.283   5.517  18.766  0.00  0.00    +0.000 A 
ATOM      3  C   UNL     1       6.391   4.791  18.670  0.00  0.00    +0.000 A 
ATOM      4  C   UNL     1       7.160   4.817  17.428  0.00  0.00    +0.000 A 
ATOM      5  O   UNL     1       8.166   4.119  17.348  0.00  0.00    +0.000 OA
ATOM      6  N   UNL     1       6.684   5.647  16.437  0.00  0.00    +0.000 N 
ATOM      7  C   UNL     1       5.461   6.330  16.490  0.00  0.00    +0.000 A 
ATOM      8  O   UNL     1       4.993   6.937  15.523  0.00  0.00    +0.000 OA
ENDROOT
BRANCH   1   9
ATOM      9  C   UNL     1       3.554   7.087  17.862  0.00  0.00    +0.000 C 
BRANCH   9  10
ATOM     10  C   UNL     1       2.665   6.683  19.042  0.00  0.00    +0.000 C 
BRANCH  10  11
ATOM     11  O   UNL     1       1.633   5.756  18.739  0.00  0.00    +0.000 OA
BRANCH  11  18
ATOM     12  C   UNL     1       2.139   4.096  21.379  0.00  0.00    +0.000 C 
ATOM     13  C   UNL     1       2.259   3.641  19.951  0.00  0.00    +0.000 A 
ATOM     14  C   UNL     1       2.680   2.304  19.777  0.00  0.00    +0.000 A 
ATOM     15  C   UNL     1       2.865   1.756  18.511  0.00  0.00    +0.000 A 
ATOM     16  C   UNL     1       2.621   2.534  17.387  0.00  0.00    +0.000 A 
ATOM     17  C   UNL     1       2.207   3.861  17.535  0.00  0.00    +0.000 A 
ATOM     18  C   UNL     1       2.013   4.429  18.804  0.00  0.00    +0.000 A 
ENDBRANCH  11  18
ENDBRANCH  10  11
ENDBRANCH   9  10
ENDBRANCH   1   9
BRANCH   6  19
ATOM     19  C   UNL     1       7.515   5.821  15.260  0.00  0.00    +0.000 C 
BRANCH  19  20
ATOM     20  C   UNL     1       7.046   4.942  14.117  0.00  0.00    +0.000 A 
ATOM     21  C   UNL     1       7.667   5.005  12.859  0.00  0.00    +0.000 A 
ATOM     22  C   UNL     1       7.228   4.195  11.809  0.00  0.00    +0.000 A 
ATOM     23  C   UNL     1       6.162   3.319  12.001  0.00  0.00    +0.000 A 
ATOM     24  C   UNL     1       5.522   3.265  13.239  0.00  0.00    +0.000 A 
ATOM     25  C   UNL     1       5.957   4.075  14.289  0.00  0.00    +0.000 A 
ENDBRANCH  19  20
ENDBRANCH   6  19
TORSDOF 6
ENDMDL
MODEL 9
REMARK VINA RESULT:      -7.8      5.325      8.491
REMARK  Name = 
REMARK  7 active torsions:
REMARK  status: ('A' for Active; 'I' for Inactive)
REMARK    1  A    between atoms: C_1  and  C_2
REMARK    2  A    between atoms: C_7  and  O_8
REMARK    3  A    between atoms: O_8  and  C_9
REMARK    4  A    between atoms: C_9  and  C_10
REMARK    5  A    between atoms: C_10  and  N_11
REMARK    6  A    between atoms: N_16  and  C_17
REMARK    7  A    between atoms: C_17  and  C_18
REMARK                            x       y       z     vdW  Elec       q    Type
REMARK                         _______ _______ _______ _____ _____    ______ ____
ROOT
ATOM      1  N   UNL     1       1.984   7.859  19.142  0.00  0.00    +0.000 N 
ATOM      2  C   UNL     1       1.733   7.635  20.484  0.00  0.00    +0.000 A 
ATOM      3  C   UNL     1       1.182   8.549  21.275  0.00  0.00    +0.000 A 
ATOM      4  C   UNL     1       0.784   9.838  20.714  0.00  0.00    +0.000 A 
ATOM      5  O   UNL     1       0.301  10.679  21.466  0.00  0.00    +0.000 OA
ATOM      6  N   UNL     1       0.980   9.997  19.360  0.00  0.00    +0.000 N 
ATOM      7  C   UNL     1       1.659   9.083  18.541  0.00  0.00    +0.000 A 
ATOM      8  O   UNL     1       1.955   9.329  17.369  0.00  0.00    +0.000 OA
ENDROOT
BRANCH   1   9
ATOM      9  C   UNL     1       2.597   6.815  18.281  0.00  0.00    +0.000 C 
BRANCH   9  10
ATOM     10  C   UNL     1       4.048   6.474  18.633  0.00  0.00    +0.000 C 
BRANCH  10  11
ATOM     11  O   UNL     1       4.216   5.454  19.606  0.00  0.00    +0.000 OA
BRANCH  11  18
ATOM     12  C   UNL     1       1.941   4.021  21.264  0.00  0.00    +0.000 C 
ATOM     13  C   UNL     1       2.604   3.561  19.995  0.00  0.00    +0.000 A 
ATOM     14  C   UNL     1       2.166   2.312  19.504  0.00  0.00    +0.000 A 
ATOM     15  C   UNL     1       2.713   1.747  18.356  0.00  0.00    +0.000 A 
ATOM     16  C   UNL     1       3.708   2.427  17.666  0.00  0.00    +0.000 A 
ATOM     17  C   UNL     1       4.160   3.663  18.135  0.00  0.00    +0.000 A 
ATOM     18  C   UNL     1       3.617   4.250  19.290  0.00  0.00    +0.000 A 
ENDBRANCH  11  18
ENDBRANCH  10  11
ENDBRANCH   9  10
ENDBRANCH   1   9
BRANCH   6  19
ATOM     19  C   UNL     1       0.443  11.197  18.747  0.00  0.00    +0.000 C 
BRANCH  19  20
ATOM     20  C   UNL     1      -1.026  11.034  18.405  0.00  0.00    +0.000 A 
ATOM     21  C   UNL     1      -1.998  11.859  18.993  0.00  0.00    +0.000 A 
ATOM     22  C   UNL     1      -3.349  11.702  18.677  0.00  0.00    +0.000 A 
ATOM     23  C   UNL     1      -3.745  10.716  17.776  0.00  0.00    +0.000 A 
ATOM     24  C   UNL     1      -2.791   9.875  17.203  0.00  0.00    +0.000 A 
ATOM     25  C   UNL     1      -1.441  10.029  17.520  0.00  0.00    +0.000 A 
ENDBRANCH  19  20
ENDBRANCH   6  19
TORSDOF 6
ENDMDL
