MODEL 1
REMARK VINA RESULT:      -8.0      0.000      0.000
REMARK  Name = 
REMARK  9 active torsions:
REMARK  status: ('A' for Active; 'I' for Inactive)
REMARK    1  A    between atoms: C_1  and  N_2
REMARK    2  A    between atoms: N_2  and  C_3
REMARK    3  A    between atoms: N_2  and  C_4
REMARK    4  A    between atoms: C_4  and  C_5
REMARK    5  A    between atoms: C_5  and  N_6
REMARK    6  A    between atoms: N_6  and  C_7
REMARK    7  A    between atoms: C_9  and  C_10
REMARK    8  A    between atoms: C_11  and  C_12
REMARK    9  A    between atoms: C_15  and  N_16
REMARK                            x       y       z     vdW  Elec       q    Type
REMARK                         _______ _______ _______ _____ _____    ______ ____
ROOT
ATOM      1  C   UNL     1       5.230   4.959  16.525  0.00  0.00    +0.000 A 
ATOM      2  C   UNL     1       5.878   5.835  17.401  0.00  0.00    +0.000 A 
ATOM      3  C   UNL     1       7.035   6.475  16.999  0.00  0.00    +0.000 A 
ATOM      4  N   UNL     1       7.625   6.270  15.810  0.00  0.00    +0.000 NA
ATOM      5  C   UNL     1       7.050   5.396  14.973  0.00  0.00    +0.000 A 
ATOM      6  C   UNL     1       7.688   5.164  13.764  0.00  0.00    +0.000 A 
ATOM      7  C   UNL     1       7.166   4.290  12.809  0.00  0.00    +0.000 A 
ATOM      8  C   UNL     1       5.975   3.631  13.073  0.00  0.00    +0.000 A 
ATOM      9 CL   UNL     1       5.312   2.562  11.899  0.00  0.00    +0.000 Cl
ATOM     10  C   UNL     1       5.317   3.831  14.285  0.00  0.00    +0.000 A 
ATOM     11  C   UNL     1       5.840   4.715  15.263  0.00  0.00    +0.000 A 
ENDROOT
BRANCH   1  12
ATOM     12  N   UNL     1       4.045   4.277  16.900  0.00  0.00    +0.000 N 
ATOM     13  H   UNL     1       3.285   4.938  17.059  0.00  0.00    +0.000 HD
BRANCH  12  14
ATOM     14  C   UNL     1       4.144   3.257  17.955  0.00  0.00    +0.000 C 
BRANCH  14  15
ATOM     15  C   UNL     1       3.042   2.187  17.847  0.00  0.00    +0.000 C 
BRANCH  15  17
ATOM     16  C   UNL     1       2.862   2.811  20.171  0.00  0.00    +0.000 C 
ATOM     17  N   UNL     1       2.256   2.025  19.093  0.00  0.00    +0.000 NA
ATOM     18  C   UNL     1       0.855   2.423  18.926  0.00  0.00    +0.000 C 
ENDBRANCH  15  17
ENDBRANCH  14  15
ENDBRANCH  12  14
ENDBRANCH   1  12
BRANCH   3  19
ATOM     19  C   UNL     1       7.615   7.515  17.843  0.00  0.00    +0.000 C 
ATOM     20  C   UNL     1       7.855   8.766  17.414  0.00  0.00    +0.000 C 
BRANCH  20  21
ATOM     21  C   UNL     1       8.517   9.795  18.231  0.00  0.00    +0.000 A 
ATOM     22  C   UNL     1       8.572  11.111  17.747  0.00  0.00    +0.000 A 
ATOM     23  C   UNL     1       9.209  12.120  18.479  0.00  0.00    +0.000 A 
ATOM     24  C   UNL     1       9.790  11.815  19.715  0.00  0.00    +0.000 A 
ATOM     25  C   UNL     1       9.724  10.515  20.225  0.00  0.00    +0.000 A 
ATOM     26  C   UNL     1       9.081   9.516  19.486  0.00  0.00    +0.000 A 
BRANCH  24  27
ATOM     27  N   UNL     1      10.475  12.862  20.481  0.00  0.00    +0.000 N 
ATOM     28  O   UNL     1      11.543  13.304  20.027  0.00  0.00    +0.000 OA
ATOM     29  O   UNL     1       9.951  13.243  21.539  0.00  0.00    +0.000 OA
ENDBRANCH  24  27
ENDBRANCH  20  21
ENDBRANCH   3  19
TORSDOF 7
ENDMDL
MODEL 2
REMARK VINA RESULT:      -7.8      8.299      9.860
REMARK  Name = 
REMARK  9 active torsions:
REMARK  status: ('A' for Active; 'I' for Inactive)
REMARK    1  A    between atoms: C_1  and  N_2
REMARK    2  A    between atoms: N_2  and  C_3
REMARK    3  A    between atoms: N_2  and  C_4
REMARK    4  A    between atoms: C_4  and  C_5
REMARK    5  A    between atoms: C_5  and  N_6
REMARK    6  A    between atoms: N_6  and  C_7
REMARK    7  A    between atoms: C_9  and  C_10
REMARK    8  A    between atoms: C_11  and  C_12
REMARK    9  A    between atoms: C_15  and  N_16
REMARK                            x       y       z     vdW  Elec       q    Type
REMARK                         _______ _______ _______ _____ _____    ______ ____
ROOT
ATOM      1  C   UNL     1      -0.336  11.028  19.724  0.00  0.00    +0.000 A 
ATOM      2  C   UNL     1       0.803  10.244  19.517  0.00  0.00    +0.000 A 
ATOM      3  C   UNL     1       0.889   9.443  18.394  0.00  0.00    +0.000 A 
ATOM      4  N   UNL     1      -0.094   9.325  17.487  0.00  0.00    +0.000 NA
ATOM      5  C   UNL     1      -1.216  10.028  17.691  0.00  0.00    +0.000 A 
ATOM      6  C   UNL     1      -2.239   9.868  16.768  0.00  0.00    +0.000 A 
ATOM      7  C   UNL     1      -3.443  10.567  16.871  0.00  0.00    +0.000 A 
ATOM      8  C   UNL     1      -3.626  11.448  17.927  0.00  0.00    +0.000 A 
ATOM      9 CL   UNL     1      -5.099  12.328  18.058  0.00  0.00    +0.000 Cl
ATOM     10  C   UNL     1      -2.623  11.620  18.878  0.00  0.00    +0.000 A 
ATOM     11  C   UNL     1      -1.398  10.913  18.785  0.00  0.00    +0.000 A 
ENDROOT
BRANCH   1  12
ATOM     12  N   UNL     1      -0.467  11.858  20.867  0.00  0.00    +0.000 N 
ATOM     13  H   UNL     1       0.153  12.663  20.799  0.00  0.00    +0.000 HD
BRANCH  12  14
ATOM     14  C   UNL     1      -0.428  11.216  22.189  0.00  0.00    +0.000 C 
BRANCH  14  15
ATOM     15  C   UNL     1      -1.690  11.503  23.023  0.00  0.00    +0.000 C 
BRANCH  15  17
ATOM     16  C   UNL     1      -3.791  12.660  22.757  0.00  0.00    +0.000 C 
ATOM     17  N   UNL     1      -2.333  12.796  22.691  0.00  0.00    +0.000 NA
ATOM     18  C   UNL     1      -1.903  13.879  23.581  0.00  0.00    +0.000 C 
ENDBRANCH  15  17
ENDBRANCH  14  15
ENDBRANCH  12  14
ENDBRANCH   1  12
BRANCH   3  19
ATOM     19  C   UNL     1       2.142   8.760  18.090  0.00  0.00    +0.000 C 
ATOM     20  C   UNL     1       2.315   7.435  18.236  0.00  0.00    +0.000 C 
BRANCH  20  21
ATOM     21  C   UNL     1       3.599   6.750  18.015  0.00  0.00    +0.000 A 
ATOM     22  C   UNL     1       4.368   7.097  16.894  0.00  0.00    +0.000 A 
ATOM     23  C   UNL     1       5.585   6.459  16.631  0.00  0.00    +0.000 A 
ATOM     24  C   UNL     1       6.047   5.467  17.504  0.00  0.00    +0.000 A 
ATOM     25  C   UNL     1       5.307   5.124  18.639  0.00  0.00    +0.000 A 
ATOM     26  C   UNL     1       4.094   5.772  18.893  0.00  0.00    +0.000 A 
BRANCH  24  27
ATOM     27  N   UNL     1       7.313   4.779  17.227  0.00  0.00    +0.000 N 
ATOM     28  O   UNL     1       7.974   4.374  18.197  0.00  0.00    +0.000 OA
ATOM     29  O   UNL     1       7.651   4.644  16.042  0.00  0.00    +0.000 OA
ENDBRANCH  24  27
ENDBRANCH  20  21
ENDBRANCH   3  19
TORSDOF 7
ENDMDL
MODEL 3
REMARK VINA RESULT:      -7.8      0.638      1.193
REMARK  Name = 
REMARK  9 active torsions:
REMARK  status: ('A' for Active; 'I' for Inactive)
REMARK    1  A    between atoms: C_1  and  N_2
REMARK    2  A    between atoms: N_2  and  C_3
REMARK    3  A    between atoms: N_2  and  C_4
REMARK    4  A    between atoms: C_4  and  C_5
REMARK    5  A    between atoms: C_5  and  N_6
REMARK    6  A    between atoms: N_6  and  C_7
REMARK    7  A    between atoms: C_9  and  C_10
REMARK    8  A    between atoms: C_11  and  C_12
REMARK    9  A    between atoms: C_15  and  N_16
REMARK                            x       y       z     vdW  Elec       q    Type
REMARK                         _______ _______ _______ _____ _____    ______ ____
ROOT
ATOM      1  C   UNL     1       5.356   4.847  16.574  0.00  0.00    +0.000 A 
ATOM      2  C   UNL     1       5.986   5.752  17.435  0.00  0.00    +0.000 A 
ATOM      3  C   UNL     1       7.084   6.466  16.996  0.00  0.00    +0.000 A 
ATOM      4  N   UNL     1       7.636   6.310  15.781  0.00  0.00    +0.000 NA
ATOM      5  C   UNL     1       7.081   5.412  14.956  0.00  0.00    +0.000 A 
ATOM      6  C   UNL     1       7.682   5.233  13.719  0.00  0.00    +0.000 A 
ATOM      7  C   UNL     1       7.176   4.339  12.775  0.00  0.00    +0.000 A 
ATOM      8  C   UNL     1       6.039   3.605  13.078  0.00  0.00    +0.000 A 
ATOM      9 CL   UNL     1       5.394   2.511  11.917  0.00  0.00    +0.000 Cl
ATOM     10  C   UNL     1       5.420   3.752  14.317  0.00  0.00    +0.000 A 
ATOM     11  C   UNL     1       5.927   4.655  15.285  0.00  0.00    +0.000 A 
ENDROOT
BRANCH   1  12
ATOM     12  N   UNL     1       4.231   4.090  16.988  0.00  0.00    +0.000 N 
ATOM     13  H   UNL     1       3.371   4.618  16.847  0.00  0.00    +0.000 HD
BRANCH  12  14
ATOM     14  C   UNL     1       4.290   3.435  18.303  0.00  0.00    +0.000 C 
BRANCH  14  15
ATOM     15  C   UNL     1       3.314   4.060  19.318  0.00  0.00    +0.000 C 
BRANCH  15  17
ATOM     16  C   UNL     1       1.851   2.170  18.984  0.00  0.00    +0.000 C 
ATOM     17  N   UNL     1       1.910   3.628  19.126  0.00  0.00    +0.000 NA
ATOM     18  C   UNL     1       1.041   4.047  20.229  0.00  0.00    +0.000 C 
ENDBRANCH  15  17
ENDBRANCH  14  15
ENDBRANCH  12  14
ENDBRANCH   1  12
BRANCH   3  19
ATOM     19  C   UNL     1       7.633   7.530  17.829  0.00  0.00    +0.000 C 
ATOM     20  C   UNL     1       7.868   8.774  17.379  0.00  0.00    +0.000 C 
BRANCH  20  21
ATOM     21  C   UNL     1       8.501   9.829  18.187  0.00  0.00    +0.000 A 
ATOM     22  C   UNL     1       9.058   9.489  19.429  0.00  0.00    +0.000 A 
ATOM     23  C   UNL     1       9.653  10.462  20.241  0.00  0.00    +0.000 A 
ATOM     24  C   UNL     1       9.700  11.791  19.805  0.00  0.00    +0.000 A 
ATOM     25  C   UNL     1       9.171  12.145  18.560  0.00  0.00    +0.000 A 
ATOM     26  C   UNL     1       8.583  11.163  17.756  0.00  0.00    +0.000 A 
BRANCH  24  27
ATOM     27  N   UNL     1      10.304  12.821  20.657  0.00  0.00    +0.000 N 
ATOM     28  O   UNL     1      11.225  13.500  20.176  0.00  0.00    +0.000 OA
ATOM     29  O   UNL     1       9.862  12.952  21.808  0.00  0.00    +0.000 OA
ENDBRANCH  24  27
ENDBRANCH  20  21
ENDBRANCH   3  19
TORSDOF 7
ENDMDL
MODEL 4
REMARK VINA RESULT:      -7.7      8.334      9.904
REMARK  Name = 
REMARK  9 active torsions:
REMARK  status: ('A' for Active; 'I' for Inactive)
REMARK    1  A    between atoms: C_1  and  N_2
REMARK    2  A    between atoms: N_2  and  C_3
REMARK    3  A    between atoms: N_2  and  C_4
REMARK    4  A    between atoms: C_4  and  C_5
REMARK    5  A    between atoms: C_5  and  N_6
REMARK    6  A    between atoms: N_6  and  C_7
REMARK    7  A    between atoms: C_9  and  C_10
REMARK    8  A    between atoms: C_11  and  C_12
REMARK    9  A    between atoms: C_15  and  N_16
REMARK                            x       y       z     vdW  Elec       q    Type
REMARK                         _______ _______ _______ _____ _____    ______ ____
ROOT
ATOM      1  C   UNL     1      -0.251  11.032  19.707  0.00  0.00    +0.000 A 
ATOM      2  C   UNL     1       0.872  10.236  19.458  0.00  0.00    +0.000 A 
ATOM      3  C   UNL     1       0.907   9.432  18.334  0.00  0.00    +0.000 A 
ATOM      4  N   UNL     1      -0.113   9.321  17.467  0.00  0.00    +0.000 NA
ATOM      5  C   UNL     1      -1.219  10.035  17.712  0.00  0.00    +0.000 A 
ATOM      6  C   UNL     1      -2.279   9.884  16.830  0.00  0.00    +0.000 A 
ATOM      7  C   UNL     1      -3.470  10.595  16.978  0.00  0.00    +0.000 A 
ATOM      8  C   UNL     1      -3.604  11.480  18.037  0.00  0.00    +0.000 A 
ATOM      9 CL   UNL     1      -5.061  12.375  18.223  0.00  0.00    +0.000 Cl
ATOM     10  C   UNL     1      -2.563  11.644  18.948  0.00  0.00    +0.000 A 
ATOM     11  C   UNL     1      -1.349  10.925  18.810  0.00  0.00    +0.000 A 
ENDROOT
BRANCH   1  12
ATOM     12  N   UNL     1      -0.329  11.866  20.851  0.00  0.00    +0.000 N 
ATOM     13  H   UNL     1       0.581  12.272  21.063  0.00  0.00    +0.000 HD
BRANCH  12  14
ATOM     14  C   UNL     1      -1.008  11.334  22.043  0.00  0.00    +0.000 C 
BRANCH  14  15
ATOM     15  C   UNL     1      -1.810  12.412  22.796  0.00  0.00    +0.000 C 
BRANCH  15  17
ATOM     16  C   UNL     1      -3.730  12.533  24.253  0.00  0.00    +0.000 C 
ATOM     17  N   UNL     1      -3.246  12.078  22.946  0.00  0.00    +0.000 NA
ATOM     18  C   UNL     1      -4.071  12.668  21.887  0.00  0.00    +0.000 C 
ENDBRANCH  15  17
ENDBRANCH  14  15
ENDBRANCH  12  14
ENDBRANCH   1  12
BRANCH   3  19
ATOM     19  C   UNL     1       2.140   8.735  17.984  0.00  0.00    +0.000 C 
ATOM     20  C   UNL     1       2.382   7.454  18.308  0.00  0.00    +0.000 C 
BRANCH  20  21
ATOM     21  C   UNL     1       3.655   6.769  18.035  0.00  0.00    +0.000 A 
ATOM     22  C   UNL     1       3.955   5.591  18.734  0.00  0.00    +0.000 A 
ATOM     23  C   UNL     1       5.163   4.916  18.523  0.00  0.00    +0.000 A 
ATOM     24  C   UNL     1       6.081   5.418  17.593  0.00  0.00    +0.000 A 
ATOM     25  C   UNL     1       5.790   6.577  16.868  0.00  0.00    +0.000 A 
ATOM     26  C   UNL     1       4.578   7.240  17.086  0.00  0.00    +0.000 A 
BRANCH  24  27
ATOM     27  N   UNL     1       7.357   4.728  17.377  0.00  0.00    +0.000 N 
ATOM     28  O   UNL     1       8.024   4.422  18.378  0.00  0.00    +0.000 OA
ATOM     29  O   UNL     1       7.698   4.491  16.208  0.00  0.00    +0.000 OA
ENDBRANCH  24  27
ENDBRANCH  20  21
ENDBRANCH   3  19
TORSDOF 7
ENDMDL
MODEL 5
REMARK VINA RESULT:      -7.6      8.238     10.232
REMARK  Name = 
REMARK  9 active torsions:
REMARK  status: ('A' for Active; 'I' for Inactive)
REMARK    1  A    between atoms: C_1  and  N_2
REMARK    2  A    between atoms: N_2  and  C_3
REMARK    3  A    between atoms: N_2  and  C_4
REMARK    4  A    between atoms: C_4  and  C_5
REMARK    5  A    between atoms: C_5  and  N_6
REMARK    6  A    between atoms: N_6  and  C_7
REMARK    7  A    between atoms: C_9  and  C_10
REMARK    8  A    between atoms: C_11  and  C_12
REMARK    9  A    between atoms: C_15  and  N_16
REMARK                            x       y       z     vdW  Elec       q    Type
REMARK                         _______ _______ _______ _____ _____    ______ ____
ROOT
ATOM      1  C   UNL     1      -0.230  11.171  19.107  0.00  0.00    +0.000 A 
ATOM      2  C   UNL     1       0.752  10.467  18.402  0.00  0.00    +0.000 A 
ATOM      3  C   UNL     1       1.445   9.447  19.025  0.00  0.00    +0.000 A 
ATOM      4  N   UNL     1       1.273   9.109  20.314  0.00  0.00    +0.000 NA
ATOM      5  C   UNL     1       0.374   9.803  21.024  0.00  0.00    +0.000 A 
ATOM      6  C   UNL     1       0.231   9.469  22.363  0.00  0.00    +0.000 A 
ATOM      7  C   UNL     1      -0.690  10.112  23.190  0.00  0.00    +0.000 A 
ATOM      8  C   UNL     1      -1.488  11.117  22.663  0.00  0.00    +0.000 A 
ATOM      9 CL   UNL     1      -2.639  11.908  23.668  0.00  0.00    +0.000 Cl
ATOM     10  C   UNL     1      -1.359  11.485  21.326  0.00  0.00    +0.000 A 
ATOM     11  C   UNL     1      -0.425  10.840  20.477  0.00  0.00    +0.000 A 
ENDROOT
BRANCH   1  12
ATOM     12  N   UNL     1      -0.960  12.229  18.507  0.00  0.00    +0.000 N 
ATOM     13  H   UNL     1      -1.284  12.888  19.214  0.00  0.00    +0.000 HD
BRANCH  12  14
ATOM     14  C   UNL     1      -2.004  11.876  17.534  0.00  0.00    +0.000 C 
BRANCH  14  15
ATOM     15  C   UNL     1      -3.353  11.556  18.204  0.00  0.00    +0.000 C 
BRANCH  15  17
ATOM     16  C   UNL     1      -4.237  10.960  16.039  0.00  0.00    +0.000 C 
ATOM     17  N   UNL     1      -4.509  11.681  17.286  0.00  0.00    +0.000 NA
ATOM     18  C   UNL     1      -5.751  11.177  17.880  0.00  0.00    +0.000 C 
ENDBRANCH  15  17
ENDBRANCH  14  15
ENDBRANCH  12  14
ENDBRANCH   1  12
BRANCH   3  19
ATOM     19  C   UNL     1       2.343   8.603  18.244  0.00  0.00    +0.000 C 
ATOM     20  C   UNL     1       2.783   7.405  18.665  0.00  0.00    +0.000 C 
BRANCH  20  21
ATOM     21  C   UNL     1       3.755   6.586  17.923  0.00  0.00    +0.000 A 
ATOM     22  C   UNL     1       4.136   5.343  18.451  0.00  0.00    +0.000 A 
ATOM     23  C   UNL     1       5.072   4.538  17.791  0.00  0.00    +0.000 A 
ATOM     24  C   UNL     1       5.629   4.975  16.583  0.00  0.00    +0.000 A 
ATOM     25  C   UNL     1       5.243   6.200  16.029  0.00  0.00    +0.000 A 
ATOM     26  C   UNL     1       4.304   6.993  16.696  0.00  0.00    +0.000 A 
BRANCH  24  27
ATOM     27  N   UNL     1       6.624   4.147  15.893  0.00  0.00    +0.000 N 
ATOM     28  O   UNL     1       6.259   3.528  14.881  0.00  0.00    +0.000 OA
ATOM     29  O   UNL     1       7.772   4.110  16.362  0.00  0.00    +0.000 OA
ENDBRANCH  24  27
ENDBRANCH  20  21
ENDBRANCH   3  19
TORSDOF 7
ENDMDL
MODEL 6
REMARK VINA RESULT:      -7.6      6.447      8.154
REMARK  Name = 
REMARK  9 active torsions:
REMARK  status: ('A' for Active; 'I' for Inactive)
REMARK    1  A    between atoms: C_1  and  N_2
REMARK    2  A    between atoms: N_2  and  C_3
REMARK    3  A    between atoms: N_2  and  C_4
REMARK    4  A    between atoms: C_4  and  C_5
REMARK    5  A    between atoms: C_5  and  N_6
REMARK    6  A    between atoms: N_6  and  C_7
REMARK    7  A    between atoms: C_9  and  C_10
REMARK    8  A    between atoms: C_11  and  C_12
REMARK    9  A    between atoms: C_15  and  N_16
REMARK                            x       y       z     vdW  Elec       q    Type
REMARK                         _______ _______ _______ _____ _____    ______ ____
ROOT
ATOM      1  C   UNL     1       3.527   6.244  18.092  0.00  0.00    +0.000 A 
ATOM      2  C   UNL     1       2.920   7.431  18.513  0.00  0.00    +0.000 A 
ATOM      3  C   UNL     1       2.002   7.403  19.547  0.00  0.00    +0.000 A 
ATOM      4  N   UNL     1       1.604   6.275  20.158  0.00  0.00    +0.000 NA
ATOM      5  C   UNL     1       2.134   5.119  19.737  0.00  0.00    +0.000 A 
ATOM      6  C   UNL     1       1.687   3.958  20.351  0.00  0.00    +0.000 A 
ATOM      7  C   UNL     1       2.186   2.701  20.005  0.00  0.00    +0.000 A 
ATOM      8  C   UNL     1       3.157   2.605  19.020  0.00  0.00    +0.000 A 
ATOM      9 CL   UNL     1       3.793   1.064  18.595  0.00  0.00    +0.000 Cl
ATOM     10  C   UNL     1       3.617   3.752  18.375  0.00  0.00    +0.000 A 
ATOM     11  C   UNL     1       3.115   5.033  18.716  0.00  0.00    +0.000 A 
ENDROOT
BRANCH   1  12
ATOM     12  N   UNL     1       4.468   6.227  17.032  0.00  0.00    +0.000 N 
ATOM     13  H   UNL     1       4.377   5.373  16.484  0.00  0.00    +0.000 HD
BRANCH  12  14
ATOM     14  C   UNL     1       5.866   6.555  17.350  0.00  0.00    +0.000 C 
BRANCH  14  15
ATOM     15  C   UNL     1       6.821   6.271  16.176  0.00  0.00    +0.000 C 
BRANCH  15  17
ATOM     16  C   UNL     1       7.618   4.520  17.634  0.00  0.00    +0.000 C 
ATOM     17  N   UNL     1       7.444   4.928  16.236  0.00  0.00    +0.000 NA
ATOM     18  C   UNL     1       6.656   3.915  15.527  0.00  0.00    +0.000 C 
ENDBRANCH  15  17
ENDBRANCH  14  15
ENDBRANCH  12  14
ENDBRANCH   1  12
BRANCH   3  19
ATOM     19  C   UNL     1       1.500   8.656  20.099  0.00  0.00    +0.000 C 
ATOM     20  C   UNL     1       0.760   8.726  21.218  0.00  0.00    +0.000 C 
BRANCH  20  21
ATOM     21  C   UNL     1       0.177   9.974  21.735  0.00  0.00    +0.000 A 
ATOM     22  C   UNL     1      -0.744   9.906  22.792  0.00  0.00    +0.000 A 
ATOM     23  C   UNL     1      -1.339  11.065  23.303  0.00  0.00    +0.000 A 
ATOM     24  C   UNL     1      -1.004  12.310  22.760  0.00  0.00    +0.000 A 
ATOM     25  C   UNL     1      -0.071  12.401  21.723  0.00  0.00    +0.000 A 
ATOM     26  C   UNL     1       0.520  11.236  21.223  0.00  0.00    +0.000 A 
BRANCH  24  27
ATOM     27  N   UNL     1      -1.637  13.529  23.277  0.00  0.00    +0.000 N 
ATOM     28  O   UNL     1      -0.928  14.318  23.922  0.00  0.00    +0.000 OA
ATOM     29  O   UNL     1      -2.843  13.700  23.042  0.00  0.00    +0.000 OA
ENDBRANCH  24  27
ENDBRANCH  20  21
ENDBRANCH   3  19
TORSDOF 7
ENDMDL
MODEL 7
REMARK VINA RESULT:      -7.5      5.477      6.500
REMARK  Name = 
REMARK  9 active torsions:
REMARK  status: ('A' for Active; 'I' for Inactive)
REMARK    1  A    between atoms: C_1  and  N_2
REMARK    2  A    between atoms: N_2  and  C_3
REMARK    3  A    between atoms: N_2  and  C_4
REMARK    4  A    between atoms: C_4  and  C_5
REMARK    5  A    between atoms: C_5  and  N_6
REMARK    6  A    between atoms: N_6  and  C_7
REMARK    7  A    between atoms: C_9  and  C_10
REMARK    8  A    between atoms: C_11  and  C_12
REMARK    9  A    between atoms: C_15  and  N_16
REMARK                            x       y       z     vdW  Elec       q    Type
REMARK                         _______ _______ _______ _____ _____    ______ ____
ROOT
ATOM      1  C   UNL     1       4.024   4.181  18.300  0.00  0.00    +0.000 A 
ATOM      2  C   UNL     1       3.456   5.048  19.239  0.00  0.00    +0.000 A 
ATOM      3  C   UNL     1       3.356   6.397  18.955  0.00  0.00    +0.000 A 
ATOM      4  N   UNL     1       3.826   6.957  17.828  0.00  0.00    +0.000 NA
ATOM      5  C   UNL     1       4.421   6.154  16.936  0.00  0.00    +0.000 A 
ATOM      6  C   UNL     1       4.936   6.749  15.794  0.00  0.00    +0.000 A 
ATOM      7  C   UNL     1       5.557   6.006  14.789  0.00  0.00    +0.000 A 
ATOM      8  C   UNL     1       5.665   4.630  14.933  0.00  0.00    +0.000 A 
ATOM      9 CL   UNL     1       6.414   3.699  13.695  0.00  0.00    +0.000 Cl
ATOM     10  C   UNL     1       5.170   4.004  16.075  0.00  0.00    +0.000 A 
ATOM     11  C   UNL     1       4.541   4.750  17.103  0.00  0.00    +0.000 A 
ENDROOT
BRANCH   1  12
ATOM     12  N   UNL     1       4.151   2.792  18.555  0.00  0.00    +0.000 N 
ATOM     13  H   UNL     1       3.860   2.250  17.743  0.00  0.00    +0.000 HD
BRANCH  12  14
ATOM     14  C   UNL     1       3.602   2.272  19.816  0.00  0.00    +0.000 C 
BRANCH  14  15
ATOM     15  C   UNL     1       2.143   1.800  19.675  0.00  0.00    +0.000 C 
BRANCH  15  17
ATOM     16  C   UNL     1       1.911   2.877  21.823  0.00  0.00    +0.000 C 
ATOM     17  N   UNL     1       1.210   2.494  20.593  0.00  0.00    +0.000 NA
ATOM     18  C   UNL     1       0.607   3.684  19.984  0.00  0.00    +0.000 C 
ENDBRANCH  15  17
ENDBRANCH  14  15
ENDBRANCH  12  14
ENDBRANCH   1  12
BRANCH   3  19
ATOM     19  C   UNL     1       2.611   7.270  19.856  0.00  0.00    +0.000 C 
ATOM     20  C   UNL     1       1.693   8.156  19.434  0.00  0.00    +0.000 C 
BRANCH  20  21
ATOM     21  C   UNL     1       1.000   9.100  20.324  0.00  0.00    +0.000 A 
ATOM     22  C   UNL     1       0.522   8.640  21.561  0.00  0.00    +0.000 A 
ATOM     23  C   UNL     1      -0.161   9.496  22.432  0.00  0.00    +0.000 A 
ATOM     24  C   UNL     1      -0.362  10.833  22.070  0.00  0.00    +0.000 A 
ATOM     25  C   UNL     1       0.127  11.316  20.852  0.00  0.00    +0.000 A 
ATOM     26  C   UNL     1       0.811  10.452  19.992  0.00  0.00    +0.000 A 
BRANCH  24  27
ATOM     27  N   UNL     1      -1.093  11.734  22.968  0.00  0.00    +0.000 N 
ATOM     28  O   UNL     1      -0.537  12.793  23.300  0.00  0.00    +0.000 OA
ATOM     29  O   UNL     1      -2.221  11.385  23.346  0.00  0.00    +0.000 OA
ENDBRANCH  24  27
ENDBRANCH  20  21
ENDBRANCH   3  19
TORSDOF 7
ENDMDL
MODEL 8
REMARK VINA RESULT:      -7.5      6.599      8.257
REMARK  Name = 
REMARK  9 active torsions:
REMARK  status: ('A' for Active; 'I' for Inactive)
REMARK    1  A    between atoms: C_1  and  N_2
REMARK    2  A    between atoms: N_2  and  C_3
REMARK    3  A    between atoms: N_2  and  C_4
REMARK    4  A    between atoms: C_4  and  C_5
REMARK    5  A    between atoms: C_5  and  N_6
REMARK    6  A    between atoms: N_6  and  C_7
REMARK    7  A    between atoms: C_9  and  C_10
REMARK    8  A    between atoms: C_11  and  C_12
REMARK    9  A    between atoms: C_15  and  N_16
REMARK                            x       y       z     vdW  Elec       q    Type
REMARK                         _______ _______ _______ _____ _____    ______ ____
ROOT
ATOM      1  C   UNL     1       2.942   6.452  18.583  0.00  0.00    +0.000 A 
ATOM      2  C   UNL     1       2.333   7.553  19.194  0.00  0.00    +0.000 A 
ATOM      3  C   UNL     1       1.618   7.379  20.363  0.00  0.00    +0.000 A 
ATOM      4  N   UNL     1       1.419   6.185  20.944  0.00  0.00    +0.000 NA
ATOM      5  C   UNL     1       1.949   5.108  20.349  0.00  0.00    +0.000 A 
ATOM      6  C   UNL     1       1.704   3.876  20.937  0.00  0.00    +0.000 A 
ATOM      7  C   UNL     1       2.226   2.691  20.414  0.00  0.00    +0.000 A 
ATOM      8  C   UNL     1       3.011   2.743  19.272  0.00  0.00    +0.000 A 
ATOM      9 CL   UNL     1       3.673   1.293  18.625  0.00  0.00    +0.000 Cl
ATOM     10  C   UNL     1       3.264   3.964  18.650  0.00  0.00    +0.000 A 
ATOM     11  C   UNL     1       2.737   5.172  19.171  0.00  0.00    +0.000 A 
ENDROOT
BRANCH   1  12
ATOM     12  N   UNL     1       3.679   6.585  17.379  0.00  0.00    +0.000 N 
ATOM     13  H   UNL     1       3.383   5.887  16.697  0.00  0.00    +0.000 HD
BRANCH  12  14
ATOM     14  C   UNL     1       5.142   6.701  17.479  0.00  0.00    +0.000 C 
BRANCH  14  15
ATOM     15  C   UNL     1       5.864   6.168  16.228  0.00  0.00    +0.000 C 
BRANCH  15  17
ATOM     16  C   UNL     1       6.671   4.233  15.032  0.00  0.00    +0.000 C 
ATOM     17  N   UNL     1       6.274   4.749  16.346  0.00  0.00    +0.000 NA
ATOM     18  C   UNL     1       7.374   4.563  17.297  0.00  0.00    +0.000 C 
ENDBRANCH  15  17
ENDBRANCH  14  15
ENDBRANCH  12  14
ENDBRANCH   1  12
BRANCH   3  19
ATOM     19  C   UNL     1       1.131   8.547  21.090  0.00  0.00    +0.000 C 
ATOM     20  C   UNL     1       0.420   9.532  20.515  0.00  0.00    +0.000 C 
BRANCH  20  21
ATOM     21  C   UNL     1      -0.002  10.753  21.219  0.00  0.00    +0.000 A 
ATOM     22  C   UNL     1      -0.796  10.632  22.369  0.00  0.00    +0.000 A 
ATOM     23  C   UNL     1      -1.238  11.767  23.060  0.00  0.00    +0.000 A 
ATOM     24  C   UNL     1      -0.874  13.039  22.603  0.00  0.00    +0.000 A 
ATOM     25  C   UNL     1      -0.063  13.179  21.473  0.00  0.00    +0.000 A 
ATOM     26  C   UNL     1       0.375  12.037  20.793  0.00  0.00    +0.000 A 
BRANCH  24  27
ATOM     27  N   UNL     1      -1.348  14.234  23.310  0.00  0.00    +0.000 N 
ATOM     28  O   UNL     1      -0.728  14.587  24.326  0.00  0.00    +0.000 OA
ATOM     29  O   UNL     1      -2.340  14.821  22.854  0.00  0.00    +0.000 OA
ENDBRANCH  24  27
ENDBRANCH  20  21
ENDBRANCH   3  19
TORSDOF 7
ENDMDL
MODEL 9
REMARK VINA RESULT:      -7.5      7.689      9.974
REMARK  Name = 
REMARK  9 active torsions:
REMARK  status: ('A' for Active; 'I' for Inactive)
REMARK    1  A    between atoms: C_1  and  N_2
REMARK    2  A    between atoms: N_2  and  C_3
REMARK    3  A    between atoms: N_2  and  C_4
REMARK    4  A    between atoms: C_4  and  C_5
REMARK    5  A    between atoms: C_5  and  N_6
REMARK    6  A    between atoms: N_6  and  C_7
REMARK    7  A    between atoms: C_9  and  C_10
REMARK    8  A    between atoms: C_11  and  C_12
REMARK    9  A    between atoms: C_15  and  N_16
REMARK                            x       y       z     vdW  Elec       q    Type
REMARK                         _______ _______ _______ _____ _____    ______ ____
ROOT
ATOM      1  C   UNL     1      -0.281  11.212  19.769  0.00  0.00    +0.000 A 
ATOM      2  C   UNL     1       0.873  10.439  19.601  0.00  0.00    +0.000 A 
ATOM      3  C   UNL     1       0.963   9.564  18.536  0.00  0.00    +0.000 A 
ATOM      4  N   UNL     1      -0.030   9.360  17.654  0.00  0.00    +0.000 NA
ATOM      5  C   UNL     1      -1.164  10.051  17.824  0.00  0.00    +0.000 A 
ATOM      6  C   UNL     1      -2.195   9.805  16.929  0.00  0.00    +0.000 A 
ATOM      7  C   UNL     1      -3.413  10.483  17.001  0.00  0.00    +0.000 A 
ATOM      8  C   UNL     1      -3.602  11.432  17.995  0.00  0.00    +0.000 A 
ATOM      9 CL   UNL     1      -5.093  12.288  18.085  0.00  0.00    +0.000 Cl
ATOM     10  C   UNL     1      -2.591  11.693  18.916  0.00  0.00    +0.000 A 
ATOM     11  C   UNL     1      -1.352  11.007  18.855  0.00  0.00    +0.000 A 
ENDROOT
BRANCH   1  12
ATOM     12  N   UNL     1      -0.416  12.117  20.852  0.00  0.00    +0.000 N 
ATOM     13  H   UNL     1      -1.388  12.403  20.962  0.00  0.00    +0.000 HD
BRANCH  12  14
ATOM     14  C   UNL     1       0.523  13.247  20.924  0.00  0.00    +0.000 C 
BRANCH  14  15
ATOM     15  C   UNL     1       0.370  14.219  19.739  0.00  0.00    +0.000 C 
BRANCH  15  17
ATOM     16  C   UNL     1       1.982  15.986  20.056  0.00  0.00    +0.000 C 
ATOM     17  N   UNL     1       1.657  14.788  19.277  0.00  0.00    +0.000 NA
ATOM     18  C   UNL     1       2.761  13.828  19.373  0.00  0.00    +0.000 C 
ENDBRANCH  15  17
ENDBRANCH  14  15
ENDBRANCH  12  14
ENDBRANCH   1  12
BRANCH   3  19
ATOM     19  C   UNL     1       2.227   8.888  18.263  0.00  0.00    +0.000 C 
ATOM     20  C   UNL     1       2.326   7.565  18.049  0.00  0.00    +0.000 C 
BRANCH  20  21
ATOM     21  C   UNL     1       3.604   6.862  17.858  0.00  0.00    +0.000 A 
ATOM     22  C   UNL     1       4.048   5.980  18.855  0.00  0.00    +0.000 A 
ATOM     23  C   UNL     1       5.268   5.304  18.726  0.00  0.00    +0.000 A 
ATOM     24  C   UNL     1       6.050   5.504  17.583  0.00  0.00    +0.000 A 
ATOM     25  C   UNL     1       5.614   6.361  16.568  0.00  0.00    +0.000 A 
ATOM     26  C   UNL     1       4.392   7.027  16.707  0.00  0.00    +0.000 A 
BRANCH  24  27
ATOM     27  N   UNL     1       7.338   4.814  17.448  0.00  0.00    +0.000 N 
ATOM     28  O   UNL     1       7.764   4.608  16.300  0.00  0.00    +0.000 OA
ATOM     29  O   UNL     1       7.926   4.476  18.486  0.00  0.00    +0.000 OA
ENDBRANCH  24  27
ENDBRANCH  20  21
ENDBRANCH   3  19
TORSDOF 7
ENDMDL
