MODEL 1
REMARK VINA RESULT:      -8.4      0.000      0.000
REMARK  Name = 
REMARK  4 active torsions:
REMARK  status: ('A' for Active; 'I' for Inactive)
REMARK    1  A    between atoms: C_2  and  O_3
REMARK    2  A    between atoms: C_2  and  C_4
REMARK    3  A    between atoms: C_7  and  C_8
REMARK    4  A    between atoms: C_18  and  C_19
REMARK                            x       y       z     vdW  Elec       q    Type
REMARK                         _______ _______ _______ _____ _____    ______ ____
ROOT
ATOM      1  C   UNL     1       3.584   3.747  19.140  0.00  0.00    +0.000 A 
ATOM      2  C   UNL     1       2.624   4.223  20.058  0.00  0.00    +0.000 A 
ATOM      3  C   UNL     1       2.139   5.534  19.995  0.00  0.00    +0.000 A 
ATOM      4  C   UNL     1       2.623   6.444  19.050  0.00  0.00    +0.000 A 
ATOM      5  C   UNL     1       3.620   5.973  18.176  0.00  0.00    +0.000 A 
ATOM      6  C   UNL     1       4.115   4.642  18.185  0.00  0.00    +0.000 A 
ENDROOT
BRANCH   4   7
ATOM      7  C   UNL     1       2.131   7.836  18.998  0.00  0.00    +0.000 A 
ATOM      8  C   UNL     1       2.228   8.639  17.842  0.00  0.00    +0.000 A 
ATOM      9  C   UNL     1       1.737   9.942  17.844  0.00  0.00    +0.000 A 
ATOM     10  N   UNL     1       1.141  10.558  18.888  0.00  0.00    +0.000 NA
ATOM     11  C   UNL     1       1.067   9.760  19.967  0.00  0.00    +0.000 A 
ATOM     12  N   UNL     1       0.520  10.092  21.172  0.00  0.00    +0.000 N 
ATOM     13  C   UNL     1       0.648   9.010  21.996  0.00  0.00    +0.000 A 
ATOM     14  N   UNL     1       1.250   8.005  21.394  0.00  0.00    +0.000 NA
ATOM     15  C   UNL     1       1.515   8.452  20.113  0.00  0.00    +0.000 A 
ATOM     16  H   UNL     1       0.089  10.978  21.386  0.00  0.00    +0.000 HD
ENDBRANCH   4   7
BRANCH   6  17
ATOM     17  C   UNL     1       5.161   4.323  17.129  0.00  0.00    +0.000 C 
ATOM     18  C   UNL     1       4.997   5.023  15.780  0.00  0.00    +0.000 C 
ATOM     19  C   UNL     1       6.390   5.046  15.162  0.00  0.00    +0.000 C 
ATOM     20  C   UNL     1       7.393   4.727  16.268  0.00  0.00    +0.000 C 
ATOM     21  C   UNL     1       6.607   4.547  17.559  0.00  0.00    +0.000 C 
ENDBRANCH   6  17
BRANCH   1  23
ATOM     22  O   UNL     1       3.421   1.376  18.694  0.00  0.00    +0.000 OA
ATOM     23  C   UNL     1       3.972   2.303  19.255  0.00  0.00    +0.000 C 
BRANCH  23  24
ATOM     24  O   UNL     1       5.034   2.097  20.070  0.00  0.00    +0.000 OA
ATOM     25  H   UNL     1       5.876   1.910  19.618  0.00  0.00    +0.000 HD
ENDBRANCH  23  24
ENDBRANCH   1  23
TORSDOF 4
ENDMDL
MODEL 2
REMARK VINA RESULT:      -8.3      1.250      2.199
REMARK  Name = 
REMARK  4 active torsions:
REMARK  status: ('A' for Active; 'I' for Inactive)
REMARK    1  A    between atoms: C_2  and  O_3
REMARK    2  A    between atoms: C_2  and  C_4
REMARK    3  A    between atoms: C_7  and  C_8
REMARK    4  A    between atoms: C_18  and  C_19
REMARK                            x       y       z     vdW  Elec       q    Type
REMARK                         _______ _______ _______ _____ _____    ______ ____
ROOT
ATOM      1  C   UNL     1       3.490   3.825  19.540  0.00  0.00    +0.000 A 
ATOM      2  C   UNL     1       2.256   3.887  20.220  0.00  0.00    +0.000 A 
ATOM      3  C   UNL     1       1.617   5.106  20.468  0.00  0.00    +0.000 A 
ATOM      4  C   UNL     1       2.202   6.322  20.097  0.00  0.00    +0.000 A 
ATOM      5  C   UNL     1       3.458   6.250  19.468  0.00  0.00    +0.000 A 
ATOM      6  C   UNL     1       4.124   5.031  19.169  0.00  0.00    +0.000 A 
ENDROOT
BRANCH   4   7
ATOM      7  C   UNL     1       1.542   7.612  20.381  0.00  0.00    +0.000 A 
ATOM      8  C   UNL     1       0.860   7.873  21.588  0.00  0.00    +0.000 A 
ATOM      9  C   UNL     1       0.265   9.113  21.809  0.00  0.00    +0.000 A 
ATOM     10  N   UNL     1       0.271  10.154  20.950  0.00  0.00    +0.000 NA
ATOM     11  C   UNL     1       0.930   9.866  19.815  0.00  0.00    +0.000 A 
ATOM     12  N   UNL     1       1.112  10.710  18.758  0.00  0.00    +0.000 N 
ATOM     13  C   UNL     1       1.828  10.036  17.810  0.00  0.00    +0.000 A 
ATOM     14  N   UNL     1       2.112   8.808  18.192  0.00  0.00    +0.000 NA
ATOM     15  C   UNL     1       1.564   8.682  19.455  0.00  0.00    +0.000 A 
ATOM     16  H   UNL     1       0.782  11.662  18.716  0.00  0.00    +0.000 HD
ENDBRANCH   4   7
BRANCH   6  17
ATOM     17  C   UNL     1       5.454   5.170  18.447  0.00  0.00    +0.000 C 
ATOM     18  C   UNL     1       5.522   6.230  17.348  0.00  0.00    +0.000 C 
ATOM     19  C   UNL     1       6.997   6.595  17.224  0.00  0.00    +0.000 C 
ATOM     20  C   UNL     1       7.711   6.061  18.464  0.00  0.00    +0.000 C 
ATOM     21  C   UNL     1       6.661   5.407  19.350  0.00  0.00    +0.000 C 
ENDBRANCH   6  17
BRANCH   1  23
ATOM     22  O   UNL     1       3.633   1.690  18.412  0.00  0.00    +0.000 OA
ATOM     23  C   UNL     1       4.041   2.458  19.261  0.00  0.00    +0.000 C 
BRANCH  23  24
ATOM     24  O   UNL     1       5.080   2.125  20.065  0.00  0.00    +0.000 OA
ATOM     25  H   UNL     1       5.397   1.209  19.977  0.00  0.00    +0.000 HD
ENDBRANCH  23  24
ENDBRANCH   1  23
TORSDOF 4
ENDMDL
MODEL 3
REMARK VINA RESULT:      -8.3      1.579      3.512
REMARK  Name = 
REMARK  4 active torsions:
REMARK  status: ('A' for Active; 'I' for Inactive)
REMARK    1  A    between atoms: C_2  and  O_3
REMARK    2  A    between atoms: C_2  and  C_4
REMARK    3  A    between atoms: C_7  and  C_8
REMARK    4  A    between atoms: C_18  and  C_19
REMARK                            x       y       z     vdW  Elec       q    Type
REMARK                         _______ _______ _______ _____ _____    ______ ____
ROOT
ATOM      1  C   UNL     1       4.130   5.426  17.931  0.00  0.00    +0.000 A 
ATOM      2  C   UNL     1       4.295   6.697  17.343  0.00  0.00    +0.000 A 
ATOM      3  C   UNL     1       3.471   7.775  17.686  0.00  0.00    +0.000 A 
ATOM      4  C   UNL     1       2.415   7.623  18.591  0.00  0.00    +0.000 A 
ATOM      5  C   UNL     1       2.227   6.336  19.129  0.00  0.00    +0.000 A 
ATOM      6  C   UNL     1       3.061   5.225  18.831  0.00  0.00    +0.000 A 
ENDROOT
BRANCH   4   7
ATOM      7  C   UNL     1       1.528   8.752  18.936  0.00  0.00    +0.000 A 
ATOM      8  C   UNL     1       0.964   9.606  17.965  0.00  0.00    +0.000 A 
ATOM      9  C   UNL     1       0.124  10.650  18.344  0.00  0.00    +0.000 A 
ATOM     10  N   UNL     1      -0.236  10.951  19.610  0.00  0.00    +0.000 NA
ATOM     11  C   UNL     1       0.320  10.115  20.503  0.00  0.00    +0.000 A 
ATOM     12  N   UNL     1       0.148  10.159  21.856  0.00  0.00    +0.000 N 
ATOM     13  C   UNL     1       0.882   9.143  22.399  0.00  0.00    +0.000 A 
ATOM     14  N   UNL     1       1.521   8.453  21.477  0.00  0.00    +0.000 NA
ATOM     15  C   UNL     1       1.175   9.042  20.274  0.00  0.00    +0.000 A 
ATOM     16  H   UNL     1      -0.437  10.821  22.343  0.00  0.00    +0.000 HD
ENDBRANCH   4   7
BRANCH   6  17
ATOM     17  C   UNL     1       2.714   3.933  19.552  0.00  0.00    +0.000 C 
ATOM     18  C   UNL     1       2.216   4.071  20.990  0.00  0.00    +0.000 C 
ATOM     19  C   UNL     1       1.395   2.815  21.259  0.00  0.00    +0.000 C 
ATOM     20  C   UNL     1       1.098   2.159  19.913  0.00  0.00    +0.000 C 
ATOM     21  C   UNL     1       1.710   3.038  18.831  0.00  0.00    +0.000 C 
ENDBRANCH   6  17
BRANCH   1  23
ATOM     22  O   UNL     1       5.187   3.825  16.457  0.00  0.00    +0.000 OA
ATOM     23  C   UNL     1       5.121   4.368  17.544  0.00  0.00    +0.000 C 
BRANCH  23  24
ATOM     24  O   UNL     1       5.979   4.046  18.541  0.00  0.00    +0.000 OA
ATOM     25  H   UNL     1       6.916   4.236  18.361  0.00  0.00    +0.000 HD
ENDBRANCH  23  24
ENDBRANCH   1  23
TORSDOF 4
ENDMDL
MODEL 4
REMARK VINA RESULT:      -8.1      4.047      7.569
REMARK  Name = 
REMARK  4 active torsions:
REMARK  status: ('A' for Active; 'I' for Inactive)
REMARK    1  A    between atoms: C_2  and  O_3
REMARK    2  A    between atoms: C_2  and  C_4
REMARK    3  A    between atoms: C_7  and  C_8
REMARK    4  A    between atoms: C_18  and  C_19
REMARK                            x       y       z     vdW  Elec       q    Type
REMARK                         _______ _______ _______ _____ _____    ______ ____
ROOT
ATOM      1  C   UNL     1       1.502   9.577  18.836  0.00  0.00    +0.000 A 
ATOM      2  C   UNL     1       2.025   8.705  17.859  0.00  0.00    +0.000 A 
ATOM      3  C   UNL     1       2.344   7.376  18.158  0.00  0.00    +0.000 A 
ATOM      4  C   UNL     1       2.205   6.870  19.456  0.00  0.00    +0.000 A 
ATOM      5  C   UNL     1       1.734   7.766  20.433  0.00  0.00    +0.000 A 
ATOM      6  C   UNL     1       1.368   9.112  20.162  0.00  0.00    +0.000 A 
ENDROOT
BRANCH   4   7
ATOM      7  C   UNL     1       2.566   5.476  19.781  0.00  0.00    +0.000 A 
ATOM      8  C   UNL     1       1.711   4.612  20.497  0.00  0.00    +0.000 A 
ATOM      9  C   UNL     1       2.096   3.301  20.767  0.00  0.00    +0.000 A 
ATOM     10  N   UNL     1       3.262   2.730  20.395  0.00  0.00    +0.000 NA
ATOM     11  C   UNL     1       4.046   3.584  19.716  0.00  0.00    +0.000 A 
ATOM     12  N   UNL     1       5.281   3.305  19.207  0.00  0.00    +0.000 N 
ATOM     13  C   UNL     1       5.740   4.436  18.594  0.00  0.00    +0.000 A 
ATOM     14  N   UNL     1       4.877   5.427  18.685  0.00  0.00    +0.000 NA
ATOM     15  C   UNL     1       3.799   4.910  19.380  0.00  0.00    +0.000 A 
ATOM     16  H   UNL     1       5.742   2.411  19.269  0.00  0.00    +0.000 HD
ENDBRANCH   4   7
BRANCH   6  17
ATOM     17  C   UNL     1       0.841   9.900  21.350  0.00  0.00    +0.000 C 
ATOM     18  C   UNL     1      -0.505  10.598  21.158  0.00  0.00    +0.000 C 
ATOM     19  C   UNL     1      -1.079  10.768  22.560  0.00  0.00    +0.000 C 
ATOM     20  C   UNL     1      -0.288   9.859  23.497  0.00  0.00    +0.000 C 
ATOM     21  C   UNL     1       0.739   9.116  22.655  0.00  0.00    +0.000 C 
ENDBRANCH   6  17
BRANCH   1  23
ATOM     22  O   UNL     1       1.816  11.950  18.487  0.00  0.00    +0.000 OA
ATOM     23  C   UNL     1       1.124  10.955  18.380  0.00  0.00    +0.000 C 
BRANCH  23  24
ATOM     24  O   UNL     1      -0.104  11.014  17.813  0.00  0.00    +0.000 OA
ATOM     25  H   UNL     1      -0.370  11.891  17.484  0.00  0.00    +0.000 HD
ENDBRANCH  23  24
ENDBRANCH   1  23
TORSDOF 4
ENDMDL
MODEL 5
REMARK VINA RESULT:      -8.0      1.023      2.087
REMARK  Name = 
REMARK  4 active torsions:
REMARK  status: ('A' for Active; 'I' for Inactive)
REMARK    1  A    between atoms: C_2  and  O_3
REMARK    2  A    between atoms: C_2  and  C_4
REMARK    3  A    between atoms: C_7  and  C_8
REMARK    4  A    between atoms: C_18  and  C_19
REMARK                            x       y       z     vdW  Elec       q    Type
REMARK                         _______ _______ _______ _____ _____    ______ ____
ROOT
ATOM      1  C   UNL     1       3.378   3.756  19.545  0.00  0.00    +0.000 A 
ATOM      2  C   UNL     1       2.415   3.924  20.562  0.00  0.00    +0.000 A 
ATOM      3  C   UNL     1       1.818   5.165  20.809  0.00  0.00    +0.000 A 
ATOM      4  C   UNL     1       2.191   6.306  20.089  0.00  0.00    +0.000 A 
ATOM      5  C   UNL     1       3.192   6.137  19.115  0.00  0.00    +0.000 A 
ATOM      6  C   UNL     1       3.798   4.888  18.812  0.00  0.00    +0.000 A 
ENDROOT
BRANCH   4   7
ATOM      7  C   UNL     1       1.582   7.622  20.365  0.00  0.00    +0.000 A 
ATOM      8  C   UNL     1       0.942   7.929  21.585  0.00  0.00    +0.000 A 
ATOM      9  C   UNL     1       0.394   9.192  21.797  0.00  0.00    +0.000 A 
ATOM     10  N   UNL     1       0.411  10.216  20.917  0.00  0.00    +0.000 NA
ATOM     11  C   UNL     1       1.029   9.884  19.771  0.00  0.00    +0.000 A 
ATOM     12  N   UNL     1       1.208  10.701  18.693  0.00  0.00    +0.000 N 
ATOM     13  C   UNL     1       1.876   9.985  17.739  0.00  0.00    +0.000 A 
ATOM     14  N   UNL     1       2.130   8.756  18.138  0.00  0.00    +0.000 NA
ATOM     15  C   UNL     1       1.613   8.673  19.418  0.00  0.00    +0.000 A 
ATOM     16  H   UNL     1       0.909  11.662  18.640  0.00  0.00    +0.000 HD
ENDBRANCH   4   7
BRANCH   6  17
ATOM     17  C   UNL     1       4.828   4.913  17.695  0.00  0.00    +0.000 C 
ATOM     18  C   UNL     1       4.571   3.976  16.514  0.00  0.00    +0.000 C 
ATOM     19  C   UNL     1       5.320   4.591  15.337  0.00  0.00    +0.000 C 
ATOM     20  C   UNL     1       5.673   6.028  15.713  0.00  0.00    +0.000 C 
ATOM     21  C   UNL     1       5.107   6.290  17.101  0.00  0.00    +0.000 C 
ENDBRANCH   6  17
BRANCH   1  23
ATOM     22  O   UNL     1       3.334   1.503  18.667  0.00  0.00    +0.000 OA
ATOM     23  C   UNL     1       3.890   2.365  19.321  0.00  0.00    +0.000 C 
BRANCH  23  24
ATOM     24  O   UNL     1       5.077   2.126  19.928  0.00  0.00    +0.000 OA
ATOM     25  H   UNL     1       5.126   2.387  20.864  0.00  0.00    +0.000 HD
ENDBRANCH  23  24
ENDBRANCH   1  23
TORSDOF 4
ENDMDL
MODEL 6
REMARK VINA RESULT:      -8.0      2.881      4.742
REMARK  Name = 
REMARK  4 active torsions:
REMARK  status: ('A' for Active; 'I' for Inactive)
REMARK    1  A    between atoms: C_2  and  O_3
REMARK    2  A    between atoms: C_2  and  C_4
REMARK    3  A    between atoms: C_7  and  C_8
REMARK    4  A    between atoms: C_18  and  C_19
REMARK                            x       y       z     vdW  Elec       q    Type
REMARK                         _______ _______ _______ _____ _____    ______ ____
ROOT
ATOM      1  C   UNL     1       6.093   4.560  15.837  0.00  0.00    +0.000 A 
ATOM      2  C   UNL     1       5.023   3.643  15.780  0.00  0.00    +0.000 A 
ATOM      3  C   UNL     1       4.114   3.511  16.835  0.00  0.00    +0.000 A 
ATOM      4  C   UNL     1       4.258   4.250  18.014  0.00  0.00    +0.000 A 
ATOM      5  C   UNL     1       5.360   5.122  18.080  0.00  0.00    +0.000 A 
ATOM      6  C   UNL     1       6.286   5.308  17.019  0.00  0.00    +0.000 A 
ENDROOT
BRANCH   4   7
ATOM      7  C   UNL     1       3.314   4.095  19.140  0.00  0.00    +0.000 A 
ATOM      8  C   UNL     1       3.002   2.843  19.709  0.00  0.00    +0.000 A 
ATOM      9  C   UNL     1       2.113   2.755  20.778  0.00  0.00    +0.000 A 
ATOM     10  N   UNL     1       1.484   3.794  21.367  0.00  0.00    +0.000 NA
ATOM     11  C   UNL     1       1.809   4.967  20.798  0.00  0.00    +0.000 A 
ATOM     12  N   UNL     1       1.342   6.194  21.169  0.00  0.00    +0.000 N 
ATOM     13  C   UNL     1       1.911   7.120  20.342  0.00  0.00    +0.000 A 
ATOM     14  N   UNL     1       2.711   6.561  19.457  0.00  0.00    +0.000 NA
ATOM     15  C   UNL     1       2.669   5.206  19.732  0.00  0.00    +0.000 A 
ATOM     16  H   UNL     1       0.706   6.362  21.933  0.00  0.00    +0.000 HD
ENDBRANCH   4   7
BRANCH   6  17
ATOM     17  C   UNL     1       7.382   6.329  17.276  0.00  0.00    +0.000 C 
ATOM     18  C   UNL     1       7.056   7.779  16.918  0.00  0.00    +0.000 C 
ATOM     19  C   UNL     1       7.979   8.629  17.784  0.00  0.00    +0.000 C 
ATOM     20  C   UNL     1       8.540   7.730  18.883  0.00  0.00    +0.000 C 
ATOM     21  C   UNL     1       7.929   6.348  18.700  0.00  0.00    +0.000 C 
ENDBRANCH   6  17
BRANCH   1  23
ATOM     22  O   UNL     1       7.825   5.502  14.436  0.00  0.00    +0.000 OA
ATOM     23  C   UNL     1       6.957   4.669  14.616  0.00  0.00    +0.000 C 
BRANCH  23  24
ATOM     24  O   UNL     1       6.687   3.726  13.682  0.00  0.00    +0.000 OA
ATOM     25  H   UNL     1       7.360   3.624  12.986  0.00  0.00    +0.000 HD
ENDBRANCH  23  24
ENDBRANCH   1  23
TORSDOF 4
ENDMDL
MODEL 7
REMARK VINA RESULT:      -7.9      0.757      1.089
REMARK  Name = 
REMARK  4 active torsions:
REMARK  status: ('A' for Active; 'I' for Inactive)
REMARK    1  A    between atoms: C_2  and  O_3
REMARK    2  A    between atoms: C_2  and  C_4
REMARK    3  A    between atoms: C_7  and  C_8
REMARK    4  A    between atoms: C_18  and  C_19
REMARK                            x       y       z     vdW  Elec       q    Type
REMARK                         _______ _______ _______ _____ _____    ______ ____
ROOT
ATOM      1  C   UNL     1       3.625   4.438  18.983  0.00  0.00    +0.000 A 
ATOM      2  C   UNL     1       2.651   4.728  19.962  0.00  0.00    +0.000 A 
ATOM      3  C   UNL     1       2.030   5.979  20.029  0.00  0.00    +0.000 A 
ATOM      4  C   UNL     1       2.385   7.015  19.158  0.00  0.00    +0.000 A 
ATOM      5  C   UNL     1       3.396   6.730  18.222  0.00  0.00    +0.000 A 
ATOM      6  C   UNL     1       4.028   5.464  18.100  0.00  0.00    +0.000 A 
ENDROOT
BRANCH   4   7
ATOM      7  C   UNL     1       1.750   8.345  19.244  0.00  0.00    +0.000 A 
ATOM      8  C   UNL     1       1.554   9.172  18.118  0.00  0.00    +0.000 A 
ATOM      9  C   UNL     1       0.938  10.414  18.253  0.00  0.00    +0.000 A 
ATOM     10  N   UNL     1       0.477  10.944  19.406  0.00  0.00    +0.000 NA
ATOM     11  C   UNL     1       0.681  10.125  20.452  0.00  0.00    +0.000 A 
ATOM     12  N   UNL     1       0.326  10.376  21.746  0.00  0.00    +0.000 N 
ATOM     13  C   UNL     1       0.711   9.300  22.495  0.00  0.00    +0.000 A 
ATOM     14  N   UNL     1       1.297   8.377  21.762  0.00  0.00    +0.000 NA
ATOM     15  C   UNL     1       1.282   8.872  20.470  0.00  0.00    +0.000 A 
ATOM     16  H   UNL     1      -0.151  11.205  22.064  0.00  0.00    +0.000 HD
ENDBRANCH   4   7
BRANCH   6  17
ATOM     17  C   UNL     1       5.065   5.352  16.995  0.00  0.00    +0.000 C 
ATOM     18  C   UNL     1       6.518   5.189  17.441  0.00  0.00    +0.000 C 
ATOM     19  C   UNL     1       7.228   4.512  16.275  0.00  0.00    +0.000 C 
ATOM     20  C   UNL     1       6.158   3.947  15.346  0.00  0.00    +0.000 C 
ATOM     21  C   UNL     1       4.803   4.253  15.969  0.00  0.00    +0.000 C 
ENDBRANCH   6  17
BRANCH   1  23
ATOM     22  O   UNL     1       3.661   2.096  18.379  0.00  0.00    +0.000 OA
ATOM     23  C   UNL     1       4.165   3.039  18.959  0.00  0.00    +0.000 C 
BRANCH  23  24
ATOM     24  O   UNL     1       5.312   2.895  19.664  0.00  0.00    +0.000 OA
ATOM     25  H   UNL     1       5.855   2.123  19.425  0.00  0.00    +0.000 HD
ENDBRANCH  23  24
ENDBRANCH   1  23
TORSDOF 4
ENDMDL
MODEL 8
REMARK VINA RESULT:      -7.8      3.348      5.020
REMARK  Name = 
REMARK  4 active torsions:
REMARK  status: ('A' for Active; 'I' for Inactive)
REMARK    1  A    between atoms: C_2  and  O_3
REMARK    2  A    between atoms: C_2  and  C_4
REMARK    3  A    between atoms: C_7  and  C_8
REMARK    4  A    between atoms: C_18  and  C_19
REMARK                            x       y       z     vdW  Elec       q    Type
REMARK                         _______ _______ _______ _____ _____    ______ ____
ROOT
ATOM      1  C   UNL     1       6.055   4.844  15.811  0.00  0.00    +0.000 A 
ATOM      2  C   UNL     1       4.917   4.018  15.704  0.00  0.00    +0.000 A 
ATOM      3  C   UNL     1       3.902   4.042  16.666  0.00  0.00    +0.000 A 
ATOM      4  C   UNL     1       3.997   4.851  17.803  0.00  0.00    +0.000 A 
ATOM      5  C   UNL     1       5.163   5.630  17.926  0.00  0.00    +0.000 A 
ATOM      6  C   UNL     1       6.200   5.658  16.955  0.00  0.00    +0.000 A 
ENDROOT
BRANCH   4   7
ATOM      7  C   UNL     1       2.939   4.860  18.834  0.00  0.00    +0.000 A 
ATOM      8  C   UNL     1       2.758   5.930  19.734  0.00  0.00    +0.000 A 
ATOM      9  C   UNL     1       1.736   5.892  20.680  0.00  0.00    +0.000 A 
ATOM     10  N   UNL     1       0.846   4.888  20.838  0.00  0.00    +0.000 NA
ATOM     11  C   UNL     1       1.052   3.891  19.961  0.00  0.00    +0.000 A 
ATOM     12  N   UNL     1       0.320   2.743  19.868  0.00  0.00    +0.000 N 
ATOM     13  C   UNL     1       0.853   1.994  18.857  0.00  0.00    +0.000 A 
ATOM     14  N   UNL     1       1.888   2.589  18.301  0.00  0.00    +0.000 NA
ATOM     15  C   UNL     1       2.026   3.789  18.974  0.00  0.00    +0.000 A 
ATOM     16  H   UNL     1      -0.479   2.520  20.441  0.00  0.00    +0.000 HD
ENDBRANCH   4   7
BRANCH   6  17
ATOM     17  C   UNL     1       7.355   6.600  17.257  0.00  0.00    +0.000 C 
ATOM     18  C   UNL     1       7.096   8.088  17.022  0.00  0.00    +0.000 C 
ATOM     19  C   UNL     1       8.084   8.820  17.923  0.00  0.00    +0.000 C 
ATOM     20  C   UNL     1       8.627   7.811  18.931  0.00  0.00    +0.000 C 
ATOM     21  C   UNL     1       7.940   6.480  18.661  0.00  0.00    +0.000 C 
ENDBRANCH   6  17
BRANCH   1  23
ATOM     22  O   UNL     1       7.960   5.565  14.506  0.00  0.00    +0.000 OA
ATOM     23  C   UNL     1       7.040   4.790  14.681  0.00  0.00    +0.000 C 
BRANCH  23  24
ATOM     24  O   UNL     1       6.819   3.763  13.826  0.00  0.00    +0.000 OA
ATOM     25  H   UNL     1       7.577   3.513  13.269  0.00  0.00    +0.000 HD
ENDBRANCH  23  24
ENDBRANCH   1  23
TORSDOF 4
ENDMDL
MODEL 9
REMARK VINA RESULT:      -7.8      3.342      6.054
REMARK  Name = 
REMARK  4 active torsions:
REMARK  status: ('A' for Active; 'I' for Inactive)
REMARK    1  A    between atoms: C_2  and  O_3
REMARK    2  A    between atoms: C_2  and  C_4
REMARK    3  A    between atoms: C_7  and  C_8
REMARK    4  A    between atoms: C_18  and  C_19
REMARK                            x       y       z     vdW  Elec       q    Type
REMARK                         _______ _______ _______ _____ _____    ______ ____
ROOT
ATOM      1  C   UNL     1       2.073   3.447  19.056  0.00  0.00    +0.000 A 
ATOM      2  C   UNL     1       2.858   2.467  18.413  0.00  0.00    +0.000 A 
ATOM      3  C   UNL     1       3.938   2.815  17.595  0.00  0.00    +0.000 A 
ATOM      4  C   UNL     1       4.253   4.154  17.338  0.00  0.00    +0.000 A 
ATOM      5  C   UNL     1       3.428   5.121  17.940  0.00  0.00    +0.000 A 
ATOM      6  C   UNL     1       2.344   4.809  18.803  0.00  0.00    +0.000 A 
ENDROOT
BRANCH   4   7
ATOM      7  C   UNL     1       5.376   4.524  16.453  0.00  0.00    +0.000 A 
ATOM      8  C   UNL     1       5.607   3.901  15.209  0.00  0.00    +0.000 A 
ATOM      9  C   UNL     1       6.675   4.298  14.408  0.00  0.00    +0.000 A 
ATOM     10  N   UNL     1       7.564   5.271  14.705  0.00  0.00    +0.000 NA
ATOM     11  C   UNL     1       7.309   5.839  15.895  0.00  0.00    +0.000 A 
ATOM     12  N   UNL     1       8.024   6.848  16.471  0.00  0.00    +0.000 N 
ATOM     13  C   UNL     1       7.442   7.134  17.673  0.00  0.00    +0.000 A 
ATOM     14  N   UNL     1       6.400   6.364  17.908  0.00  0.00    +0.000 NA
ATOM     15  C   UNL     1       6.292   5.546  16.797  0.00  0.00    +0.000 A 
ATOM     16  H   UNL     1       8.824   7.299  16.054  0.00  0.00    +0.000 HD
ENDBRANCH   4   7
BRANCH   6  17
ATOM     17  C   UNL     1       1.605   6.003  19.386  0.00  0.00    +0.000 C 
ATOM     18  C   UNL     1       1.726   6.205  20.896  0.00  0.00    +0.000 C 
ATOM     19  C   UNL     1       1.462   7.688  21.131  0.00  0.00    +0.000 C 
ATOM     20  C   UNL     1       1.570   8.397  19.783  0.00  0.00    +0.000 C 
ATOM     21  C   UNL     1       1.934   7.347  18.742  0.00  0.00    +0.000 C 
ENDBRANCH   6  17
BRANCH   1  23
ATOM     22  O   UNL     1       1.066   2.887  21.182  0.00  0.00    +0.000 OA
ATOM     23  C   UNL     1       0.991   2.954  19.970  0.00  0.00    +0.000 C 
BRANCH  23  24
ATOM     24  O   UNL     1      -0.131   2.572  19.316  0.00  0.00    +0.000 OA
ATOM     25  H   UNL     1      -0.016   2.374  18.370  0.00  0.00    +0.000 HD
ENDBRANCH  23  24
ENDBRANCH   1  23
TORSDOF 4
ENDMDL
