MODEL 1
REMARK VINA RESULT:      -7.2      0.000      0.000
REMARK  Name = 
REMARK  4 active torsions:
REMARK  status: ('A' for Active; 'I' for Inactive)
REMARK    1  A    between atoms: C_2  and  C_5
REMARK    2  A    between atoms: N_3  and  O_4
REMARK    3  A    between atoms: C_5  and  C_6
REMARK    4  A    between atoms: C_5  and  C_12
REMARK                            x       y       z     vdW  Elec       q    Type
REMARK                         _______ _______ _______ _____ _____    ______ ____
ROOT
ATOM      1  C   UNL     1       5.537   4.211  16.734  0.00  0.00    +0.000 C 
ENDROOT
BRANCH   1   2
ATOM      2  C   UNL     1       6.400   5.256  17.437  0.00  0.00    +0.000 A 
ATOM      3  C   UNL     1       6.656   6.503  16.843  0.00  0.00    +0.000 A 
ATOM      4  C   UNL     1       7.528   7.412  17.443  0.00  0.00    +0.000 A 
ATOM      5  C   UNL     1       8.144   7.096  18.651  0.00  0.00    +0.000 A 
ATOM      6  C   UNL     1       7.876   5.877  19.269  0.00  0.00    +0.000 A 
ATOM      7  C   UNL     1       7.007   4.962  18.669  0.00  0.00    +0.000 A 
ENDBRANCH   1   2
BRANCH   1   8
ATOM      8  C   UNL     1       4.105   4.140  17.264  0.00  0.00    +0.000 A 
ATOM      9  C   UNL     1       3.487   2.883  17.406  0.00  0.00    +0.000 A 
ATOM     10  C   UNL     1       2.178   2.774  17.883  0.00  0.00    +0.000 A 
ATOM     11  C   UNL     1       1.465   3.916  18.232  0.00  0.00    +0.000 A 
ATOM     12  C   UNL     1       2.063   5.167  18.116  0.00  0.00    +0.000 A 
ATOM     13  C   UNL     1       3.372   5.278  17.641  0.00  0.00    +0.000 A 
ENDBRANCH   1   8
BRANCH   1  15
ATOM     14  O   UNL     1       5.161   5.303  14.553  0.00  0.00    +0.000 OA
ATOM     15  C   UNL     1       5.644   4.371  15.204  0.00  0.00    +0.000 C 
ATOM     16  N   UNL     1       6.365   3.384  14.564  0.00  0.00    +0.000 N 
ATOM     17  H   UNL     1       6.539   2.467  14.956  0.00  0.00    +0.000 HD
BRANCH  16  18
ATOM     18  O   UNL     1       6.389   3.484  13.151  0.00  0.00    +0.000 OA
ATOM     19  H   UNL     1       7.334   3.304  12.944  0.00  0.00    +0.000 HD
ENDBRANCH  16  18
ENDBRANCH   1  15
TORSDOF 4
ENDMDL
MODEL 2
REMARK VINA RESULT:      -7.2      2.898      4.896
REMARK  Name = 
REMARK  4 active torsions:
REMARK  status: ('A' for Active; 'I' for Inactive)
REMARK    1  A    between atoms: C_2  and  C_5
REMARK    2  A    between atoms: N_3  and  O_4
REMARK    3  A    between atoms: C_5  and  C_6
REMARK    4  A    between atoms: C_5  and  C_12
REMARK                            x       y       z     vdW  Elec       q    Type
REMARK                         _______ _______ _______ _____ _____    ______ ____
ROOT
ATOM      1  C   UNL     1       3.722   3.739  17.719  0.00  0.00    +0.000 C 
ENDROOT
BRANCH   1   2
ATOM      2  C   UNL     1       3.054   4.866  18.502  0.00  0.00    +0.000 A 
ATOM      3  C   UNL     1       3.082   6.190  18.033  0.00  0.00    +0.000 A 
ATOM      4  C   UNL     1       2.559   7.229  18.803  0.00  0.00    +0.000 A 
ATOM      5  C   UNL     1       1.987   6.960  20.043  0.00  0.00    +0.000 A 
ATOM      6  C   UNL     1       1.922   5.649  20.509  0.00  0.00    +0.000 A 
ATOM      7  C   UNL     1       2.449   4.606  19.743  0.00  0.00    +0.000 A 
ENDBRANCH   1   2
BRANCH   1   8
ATOM      8  C   UNL     1       4.963   4.182  16.943  0.00  0.00    +0.000 A 
ATOM      9  C   UNL     1       4.947   4.134  15.536  0.00  0.00    +0.000 A 
ATOM     10  C   UNL     1       6.062   4.526  14.790  0.00  0.00    +0.000 A 
ATOM     11  C   UNL     1       7.209   4.979  15.434  0.00  0.00    +0.000 A 
ATOM     12  C   UNL     1       7.240   5.050  16.823  0.00  0.00    +0.000 A 
ATOM     13  C   UNL     1       6.126   4.660  17.571  0.00  0.00    +0.000 A 
ENDBRANCH   1   8
BRANCH   1  15
ATOM     14  O   UNL     1       3.236   1.499  18.632  0.00  0.00    +0.000 OA
ATOM     15  C   UNL     1       3.942   2.513  18.628  0.00  0.00    +0.000 C 
ATOM     16  N   UNL     1       5.037   2.594  19.463  0.00  0.00    +0.000 N 
ATOM     17  H   UNL     1       5.481   3.464  19.729  0.00  0.00    +0.000 HD
BRANCH  16  18
ATOM     18  O   UNL     1       5.188   1.506  20.357  0.00  0.00    +0.000 OA
ATOM     19  H   UNL     1       6.090   1.655  20.719  0.00  0.00    +0.000 HD
ENDBRANCH  16  18
ENDBRANCH   1  15
TORSDOF 4
ENDMDL
MODEL 3
REMARK VINA RESULT:      -7.2      2.666      4.765
REMARK  Name = 
REMARK  4 active torsions:
REMARK  status: ('A' for Active; 'I' for Inactive)
REMARK    1  A    between atoms: C_2  and  C_5
REMARK    2  A    between atoms: N_3  and  O_4
REMARK    3  A    between atoms: C_5  and  C_6
REMARK    4  A    between atoms: C_5  and  C_12
REMARK                            x       y       z     vdW  Elec       q    Type
REMARK                         _______ _______ _______ _____ _____    ______ ____
ROOT
ATOM      1  C   UNL     1       3.350   4.139  17.282  0.00  0.00    +0.000 C 
ENDROOT
BRANCH   1   2
ATOM      2  C   UNL     1       2.794   5.098  18.331  0.00  0.00    +0.000 A 
ATOM      3  C   UNL     1       2.740   6.482  18.091  0.00  0.00    +0.000 A 
ATOM      4  C   UNL     1       2.328   7.363  19.091  0.00  0.00    +0.000 A 
ATOM      5  C   UNL     1       1.949   6.874  20.338  0.00  0.00    +0.000 A 
ATOM      6  C   UNL     1       1.966   5.503  20.583  0.00  0.00    +0.000 A 
ATOM      7  C   UNL     1       2.383   4.618  19.585  0.00  0.00    +0.000 A 
ENDBRANCH   1   2
BRANCH   1   8
ATOM      8  C   UNL     1       4.810   4.406  16.917  0.00  0.00    +0.000 A 
ATOM      9  C   UNL     1       5.206   4.327  15.568  0.00  0.00    +0.000 A 
ATOM     10  C   UNL     1       6.532   4.561  15.192  0.00  0.00    +0.000 A 
ATOM     11  C   UNL     1       7.484   4.882  16.155  0.00  0.00    +0.000 A 
ATOM     12  C   UNL     1       7.110   4.981  17.491  0.00  0.00    +0.000 A 
ATOM     13  C   UNL     1       5.784   4.750  17.869  0.00  0.00    +0.000 A 
ENDBRANCH   1   8
BRANCH   1  15
ATOM     14  O   UNL     1       1.928   2.157  17.659  0.00  0.00    +0.000 OA
ATOM     15  C   UNL     1       3.048   2.679  17.678  0.00  0.00    +0.000 C 
ATOM     16  N   UNL     1       4.148   1.936  18.051  0.00  0.00    +0.000 N 
ATOM     17  H   UNL     1       5.022   2.340  18.366  0.00  0.00    +0.000 HD
BRANCH  16  18
ATOM     18  O   UNL     1       3.859   0.624  18.497  0.00  0.00    +0.000 OA
ATOM     19  H   UNL     1       4.036   0.686  19.463  0.00  0.00    +0.000 HD
ENDBRANCH  16  18
ENDBRANCH   1  15
TORSDOF 4
ENDMDL
MODEL 4
REMARK VINA RESULT:      -7.2      2.928      5.013
REMARK  Name = 
REMARK  4 active torsions:
REMARK  status: ('A' for Active; 'I' for Inactive)
REMARK    1  A    between atoms: C_2  and  C_5
REMARK    2  A    between atoms: N_3  and  O_4
REMARK    3  A    between atoms: C_5  and  C_6
REMARK    4  A    between atoms: C_5  and  C_12
REMARK                            x       y       z     vdW  Elec       q    Type
REMARK                         _______ _______ _______ _____ _____    ______ ____
ROOT
ATOM      1  C   UNL     1       3.773   3.788  17.759  0.00  0.00    +0.000 C 
ENDROOT
BRANCH   1   2
ATOM      2  C   UNL     1       3.191   4.937  18.579  0.00  0.00    +0.000 A 
ATOM      3  C   UNL     1       2.582   4.703  19.823  0.00  0.00    +0.000 A 
ATOM      4  C   UNL     1       1.962   5.741  20.519  0.00  0.00    +0.000 A 
ATOM      5  C   UNL     1       1.955   7.029  19.991  0.00  0.00    +0.000 A 
ATOM      6  C   UNL     1       2.583   7.285  18.774  0.00  0.00    +0.000 A 
ATOM      7  C   UNL     1       3.200   6.247  18.072  0.00  0.00    +0.000 A 
ENDBRANCH   1   2
BRANCH   1   8
ATOM      8  C   UNL     1       4.991   4.184  16.925  0.00  0.00    +0.000 A 
ATOM      9  C   UNL     1       4.901   4.153  15.520  0.00  0.00    +0.000 A 
ATOM     10  C   UNL     1       5.993   4.503  14.720  0.00  0.00    +0.000 A 
ATOM     11  C   UNL     1       7.190   4.897  15.308  0.00  0.00    +0.000 A 
ATOM     12  C   UNL     1       7.295   4.952  16.695  0.00  0.00    +0.000 A 
ATOM     13  C   UNL     1       6.204   4.603  17.496  0.00  0.00    +0.000 A 
ENDBRANCH   1   8
BRANCH   1  15
ATOM     14  O   UNL     1       3.288   1.529  18.623  0.00  0.00    +0.000 OA
ATOM     15  C   UNL     1       3.986   2.548  18.650  0.00  0.00    +0.000 C 
ATOM     16  N   UNL     1       5.064   2.623  19.507  0.00  0.00    +0.000 N 
ATOM     17  H   UNL     1       5.496   3.492  19.796  0.00  0.00    +0.000 HD
BRANCH  16  18
ATOM     18  O   UNL     1       5.207   1.521  20.385  0.00  0.00    +0.000 OA
ATOM     19  H   UNL     1       4.276   1.334  20.641  0.00  0.00    +0.000 HD
ENDBRANCH  16  18
ENDBRANCH   1  15
TORSDOF 4
ENDMDL
MODEL 5
REMARK VINA RESULT:      -7.1      2.671      4.922
REMARK  Name = 
REMARK  4 active torsions:
REMARK  status: ('A' for Active; 'I' for Inactive)
REMARK    1  A    between atoms: C_2  and  C_5
REMARK    2  A    between atoms: N_3  and  O_4
REMARK    3  A    between atoms: C_5  and  C_6
REMARK    4  A    between atoms: C_5  and  C_12
REMARK                            x       y       z     vdW  Elec       q    Type
REMARK                         _______ _______ _______ _____ _____    ______ ____
ROOT
ATOM      1  C   UNL     1       3.382   4.152  17.268  0.00  0.00    +0.000 C 
ENDROOT
BRANCH   1   2
ATOM      2  C   UNL     1       2.924   5.103  18.370  0.00  0.00    +0.000 A 
ATOM      3  C   UNL     1       2.503   4.617  19.619  0.00  0.00    +0.000 A 
ATOM      4  C   UNL     1       1.988   5.482  20.585  0.00  0.00    +0.000 A 
ATOM      5  C   UNL     1       1.901   6.847  20.323  0.00  0.00    +0.000 A 
ATOM      6  C   UNL     1       2.343   7.350  19.102  0.00  0.00    +0.000 A 
ATOM      7  C   UNL     1       2.854   6.486  18.131  0.00  0.00    +0.000 A 
ENDBRANCH   1   2
BRANCH   1   8
ATOM      8  C   UNL     1       4.819   4.394  16.806  0.00  0.00    +0.000 A 
ATOM      9  C   UNL     1       5.804   4.710  17.762  0.00  0.00    +0.000 A 
ATOM     10  C   UNL     1       7.129   4.942  17.381  0.00  0.00    +0.000 A 
ATOM     11  C   UNL     1       7.495   4.858  16.042  0.00  0.00    +0.000 A 
ATOM     12  C   UNL     1       6.541   4.530  15.084  0.00  0.00    +0.000 A 
ATOM     13  C   UNL     1       5.216   4.295  15.462  0.00  0.00    +0.000 A 
ENDBRANCH   1   8
BRANCH   1  15
ATOM     14  O   UNL     1       1.954   2.174  17.636  0.00  0.00    +0.000 OA
ATOM     15  C   UNL     1       3.075   2.692  17.659  0.00  0.00    +0.000 C 
ATOM     16  N   UNL     1       4.172   1.945  18.032  0.00  0.00    +0.000 N 
ATOM     17  H   UNL     1       5.047   2.345  18.350  0.00  0.00    +0.000 HD
BRANCH  16  18
ATOM     18  O   UNL     1       3.879   0.632  18.473  0.00  0.00    +0.000 OA
ATOM     19  H   UNL     1       4.689   0.137  18.216  0.00  0.00    +0.000 HD
ENDBRANCH  16  18
ENDBRANCH   1  15
TORSDOF 4
ENDMDL
MODEL 6
REMARK VINA RESULT:      -7.1      2.680      4.800
REMARK  Name = 
REMARK  4 active torsions:
REMARK  status: ('A' for Active; 'I' for Inactive)
REMARK    1  A    between atoms: C_2  and  C_5
REMARK    2  A    between atoms: N_3  and  O_4
REMARK    3  A    between atoms: C_5  and  C_6
REMARK    4  A    between atoms: C_5  and  C_12
REMARK                            x       y       z     vdW  Elec       q    Type
REMARK                         _______ _______ _______ _____ _____    ______ ____
ROOT
ATOM      1  C   UNL     1       3.332   4.120  17.281  0.00  0.00    +0.000 C 
ENDROOT
BRANCH   1   2
ATOM      2  C   UNL     1       2.783   5.092  18.322  0.00  0.00    +0.000 A 
ATOM      3  C   UNL     1       2.748   6.474  18.075  0.00  0.00    +0.000 A 
ATOM      4  C   UNL     1       2.342   7.366  19.069  0.00  0.00    +0.000 A 
ATOM      5  C   UNL     1       1.951   6.888  20.317  0.00  0.00    +0.000 A 
ATOM      6  C   UNL     1       1.950   5.518  20.568  0.00  0.00    +0.000 A 
ATOM      7  C   UNL     1       2.360   4.623  19.577  0.00  0.00    +0.000 A 
ENDBRANCH   1   2
BRANCH   1   8
ATOM      8  C   UNL     1       4.792   4.378  16.909  0.00  0.00    +0.000 A 
ATOM      9  C   UNL     1       5.718   4.676  17.926  0.00  0.00    +0.000 A 
ATOM     10  C   UNL     1       7.061   4.922  17.628  0.00  0.00    +0.000 A 
ATOM     11  C   UNL     1       7.504   4.868  16.311  0.00  0.00    +0.000 A 
ATOM     12  C   UNL     1       6.609   4.558  15.292  0.00  0.00    +0.000 A 
ATOM     13  C   UNL     1       5.266   4.310  15.588  0.00  0.00    +0.000 A 
ENDBRANCH   1   8
BRANCH   1  15
ATOM     14  O   UNL     1       1.902   2.153  17.700  0.00  0.00    +0.000 OA
ATOM     15  C   UNL     1       3.025   2.665  17.693  0.00  0.00    +0.000 C 
ATOM     16  N   UNL     1       4.127   1.915  18.048  0.00  0.00    +0.000 N 
ATOM     17  H   UNL     1       5.010   2.314  18.343  0.00  0.00    +0.000 HD
BRANCH  16  18
ATOM     18  O   UNL     1       3.836   0.608  18.509  0.00  0.00    +0.000 OA
ATOM     19  H   UNL     1       4.713   0.298  18.829  0.00  0.00    +0.000 HD
ENDBRANCH  16  18
ENDBRANCH   1  15
TORSDOF 4
ENDMDL
MODEL 7
REMARK VINA RESULT:      -7.1      3.369      3.986
REMARK  Name = 
REMARK  4 active torsions:
REMARK  status: ('A' for Active; 'I' for Inactive)
REMARK    1  A    between atoms: C_2  and  C_5
REMARK    2  A    between atoms: N_3  and  O_4
REMARK    3  A    between atoms: C_5  and  C_6
REMARK    4  A    between atoms: C_5  and  C_12
REMARK                            x       y       z     vdW  Elec       q    Type
REMARK                         _______ _______ _______ _____ _____    ______ ____
ROOT
ATOM      1  C   UNL     1       3.206   6.017  17.887  0.00  0.00    +0.000 C 
ENDROOT
BRANCH   1   2
ATOM      2  C   UNL     1       4.724   6.013  18.050  0.00  0.00    +0.000 A 
ATOM      3  C   UNL     1       5.334   5.372  19.141  0.00  0.00    +0.000 A 
ATOM      4  C   UNL     1       6.712   5.460  19.339  0.00  0.00    +0.000 A 
ATOM      5  C   UNL     1       7.502   6.175  18.443  0.00  0.00    +0.000 A 
ATOM      6  C   UNL     1       6.917   6.790  17.338  0.00  0.00    +0.000 A 
ATOM      7  C   UNL     1       5.537   6.708  17.139  0.00  0.00    +0.000 A 
ENDBRANCH   1   2
BRANCH   1   8
ATOM      8  C   UNL     1       2.545   4.688  18.256  0.00  0.00    +0.000 A 
ATOM      9  C   UNL     1       2.828   3.544  17.487  0.00  0.00    +0.000 A 
ATOM     10  C   UNL     1       2.241   2.311  17.788  0.00  0.00    +0.000 A 
ATOM     11  C   UNL     1       1.369   2.198  18.864  0.00  0.00    +0.000 A 
ATOM     12  C   UNL     1       1.089   3.313  19.648  0.00  0.00    +0.000 A 
ATOM     13  C   UNL     1       1.675   4.546  19.350  0.00  0.00    +0.000 A 
ENDBRANCH   1   8
BRANCH   1  15
ATOM     14  O   UNL     1       2.440   7.366  19.806  0.00  0.00    +0.000 OA
ATOM     15  C   UNL     1       2.596   7.249  18.586  0.00  0.00    +0.000 C 
ATOM     16  N   UNL     1       2.236   8.279  17.743  0.00  0.00    +0.000 N 
ATOM     17  H   UNL     1       2.061   8.163  16.752  0.00  0.00    +0.000 HD
BRANCH  16  18
ATOM     18  O   UNL     1       1.597   9.373  18.376  0.00  0.00    +0.000 OA
ATOM     19  H   UNL     1       0.645   9.148  18.275  0.00  0.00    +0.000 HD
ENDBRANCH  16  18
ENDBRANCH   1  15
TORSDOF 4
ENDMDL
MODEL 8
REMARK VINA RESULT:      -7.1      0.271      1.201
REMARK  Name = 
REMARK  4 active torsions:
REMARK  status: ('A' for Active; 'I' for Inactive)
REMARK    1  A    between atoms: C_2  and  C_5
REMARK    2  A    between atoms: N_3  and  O_4
REMARK    3  A    between atoms: C_5  and  C_6
REMARK    4  A    between atoms: C_5  and  C_12
REMARK                            x       y       z     vdW  Elec       q    Type
REMARK                         _______ _______ _______ _____ _____    ______ ____
ROOT
ATOM      1  C   UNL     1       5.593   4.305  16.685  0.00  0.00    +0.000 C 
ENDROOT
BRANCH   1   2
ATOM      2  C   UNL     1       6.555   5.289  17.344  0.00  0.00    +0.000 A 
ATOM      3  C   UNL     1       7.210   4.968  18.544  0.00  0.00    +0.000 A 
ATOM      4  C   UNL     1       8.007   5.911  19.195  0.00  0.00    +0.000 A 
ATOM      5  C   UNL     1       8.174   7.180  18.648  0.00  0.00    +0.000 A 
ATOM      6  C   UNL     1       7.557   7.505  17.442  0.00  0.00    +0.000 A 
ATOM      7  C   UNL     1       6.754   6.565  16.791  0.00  0.00    +0.000 A 
ENDBRANCH   1   2
BRANCH   1   8
ATOM      8  C   UNL     1       4.168   4.377  17.233  0.00  0.00    +0.000 A 
ATOM      9  C   UNL     1       3.386   3.207  17.273  0.00  0.00    +0.000 A 
ATOM     10  C   UNL     1       2.078   3.231  17.763  0.00  0.00    +0.000 A 
ATOM     11  C   UNL     1       1.528   4.421  18.228  0.00  0.00    +0.000 A 
ATOM     12  C   UNL     1       2.289   5.586  18.214  0.00  0.00    +0.000 A 
ATOM     13  C   UNL     1       3.598   5.564  17.725  0.00  0.00    +0.000 A 
ENDBRANCH   1   8
BRANCH   1  15
ATOM     14  O   UNL     1       5.231   5.330  14.470  0.00  0.00    +0.000 OA
ATOM     15  C   UNL     1       5.691   4.407  15.149  0.00  0.00    +0.000 C 
ATOM     16  N   UNL     1       6.375   3.377  14.539  0.00  0.00    +0.000 N 
ATOM     17  H   UNL     1       6.525   2.469  14.962  0.00  0.00    +0.000 HD
BRANCH  16  18
ATOM     18  O   UNL     1       6.391   3.425  13.123  0.00  0.00    +0.000 OA
ATOM     19  H   UNL     1       5.565   3.921  12.921  0.00  0.00    +0.000 HD
ENDBRANCH  16  18
ENDBRANCH   1  15
TORSDOF 4
ENDMDL
MODEL 9
REMARK VINA RESULT:      -7.1      0.229      1.665
REMARK  Name = 
REMARK  4 active torsions:
REMARK  status: ('A' for Active; 'I' for Inactive)
REMARK    1  A    between atoms: C_2  and  C_5
REMARK    2  A    between atoms: N_3  and  O_4
REMARK    3  A    between atoms: C_5  and  C_6
REMARK    4  A    between atoms: C_5  and  C_12
REMARK                            x       y       z     vdW  Elec       q    Type
REMARK                         _______ _______ _______ _____ _____    ______ ____
ROOT
ATOM      1  C   UNL     1       5.599   4.224  16.652  0.00  0.00    +0.000 C 
ENDROOT
BRANCH   1   2
ATOM      2  C   UNL     1       6.544   5.214  17.329  0.00  0.00    +0.000 A 
ATOM      3  C   UNL     1       7.160   4.907  18.553  0.00  0.00    +0.000 A 
ATOM      4  C   UNL     1       7.940   5.855  19.216  0.00  0.00    +0.000 A 
ATOM      5  C   UNL     1       8.127   7.117  18.659  0.00  0.00    +0.000 A 
ATOM      6  C   UNL     1       7.549   7.428  17.430  0.00  0.00    +0.000 A 
ATOM      7  C   UNL     1       6.764   6.482  16.766  0.00  0.00    +0.000 A 
ENDBRANCH   1   2
BRANCH   1   8
ATOM      8  C   UNL     1       4.179   4.244  17.218  0.00  0.00    +0.000 A 
ATOM      9  C   UNL     1       3.618   5.471  17.621  0.00  0.00    +0.000 A 
ATOM     10  C   UNL     1       2.324   5.532  18.147  0.00  0.00    +0.000 A 
ATOM     11  C   UNL     1       1.567   4.373  18.275  0.00  0.00    +0.000 A 
ATOM     12  C   UNL     1       2.096   3.152  17.867  0.00  0.00    +0.000 A 
ATOM     13  C   UNL     1       3.389   3.088  17.339  0.00  0.00    +0.000 A 
ENDBRANCH   1   8
BRANCH   1  15
ATOM     14  O   UNL     1       5.189   5.303  14.472  0.00  0.00    +0.000 OA
ATOM     15  C   UNL     1       5.677   4.371  15.119  0.00  0.00    +0.000 C 
ATOM     16  N   UNL     1       6.376   3.374  14.472  0.00  0.00    +0.000 N 
ATOM     17  H   UNL     1       6.550   2.458  14.867  0.00  0.00    +0.000 HD
BRANCH  16  18
ATOM     18  O   UNL     1       6.373   3.463  13.059  0.00  0.00    +0.000 OA
ATOM     19  H   UNL     1       5.477   3.130  12.828  0.00  0.00    +0.000 HD
ENDBRANCH  16  18
ENDBRANCH   1  15
TORSDOF 4
ENDMDL
