MODEL 1
REMARK VINA RESULT:      -7.0      0.000      0.000
REMARK  Name = 
REMARK  8 active torsions:
REMARK  status: ('A' for Active; 'I' for Inactive)
REMARK    1  A    between atoms: C_1  and  N_2
REMARK    2  A    between atoms: C_8  and  S_9
REMARK    3  A    between atoms: S_9  and  C_10
REMARK    4  A    between atoms: C_10  and  C_11
REMARK    5  A    between atoms: C_11  and  C_12
REMARK    6  A    between atoms: C_12  and  C_13
REMARK    7  A    between atoms: N_20  and  C_21
REMARK    8  A    between atoms: N_22  and  C_23
REMARK                            x       y       z     vdW  Elec       q    Type
REMARK                         _______ _______ _______ _____ _____    ______ ____
ROOT
ATOM      1  C   UNL     1       8.249   6.949  18.819  0.00  0.00    +0.000 C 
ATOM      2  N   UNL     1       7.164   6.130  18.313  0.00  0.00    +0.000 N 
ATOM      3  C   UNL     1       6.589   5.189  19.173  0.00  0.00    +0.000 A 
ATOM      4  O   UNL     1       6.941   5.012  20.335  0.00  0.00    +0.000 OA
ATOM      5  C   UNL     1       5.539   4.447  18.560  0.00  0.00    +0.000 A 
ATOM      6  C   UNL     1       5.138   4.642  17.274  0.00  0.00    +0.000 A 
ATOM      7  N   UNL     1       4.117   3.811  16.927  0.00  0.00    +0.000 NA
ATOM      8  C   UNL     1       3.884   3.096  18.011  0.00  0.00    +0.000 A 
ATOM      9  N   UNL     1       4.728   3.448  19.041  0.00  0.00    +0.000 N 
ATOM     10  C   UNL     1       4.806   2.931  20.388  0.00  0.00    +0.000 C 
ATOM     11  N   UNL     1       5.731   5.587  16.472  0.00  0.00    +0.000 N 
ATOM     12  C   UNL     1       5.309   5.802  15.103  0.00  0.00    +0.000 C 
ATOM     13  C   UNL     1       6.775   6.364  16.979  0.00  0.00    +0.000 A 
ATOM     14  O   UNL     1       7.336   7.221  16.288  0.00  0.00    +0.000 OA
ENDROOT
BRANCH   8  15
ATOM     15  S   UNL     1       2.663   1.864  18.133  0.00  0.00    +0.000 S 
BRANCH  15  16
ATOM     16  C   UNL     1       1.747   2.397  19.625  0.00  0.00    +0.000 C 
BRANCH  16  17
ATOM     17  C   UNL     1       1.172   3.810  19.448  0.00  0.00    +0.000 C 
BRANCH  17  18
ATOM     18  C   UNL     1       1.787   4.799  20.451  0.00  0.00    +0.000 C 
BRANCH  18  19
ATOM     19  C   UNL     1       1.839   6.218  19.928  0.00  0.00    +0.000 A 
ATOM     20  C   UNL     1       2.329   6.492  18.642  0.00  0.00    +0.000 A 
ATOM     21  C   UNL     1       2.364   7.803  18.154  0.00  0.00    +0.000 A 
ATOM     22  C   UNL     1       1.911   8.857  18.947  0.00  0.00    +0.000 A 
ATOM     23  C   UNL     1       1.428   8.594  20.226  0.00  0.00    +0.000 A 
ATOM     24 CL   UNL     1       0.866   9.893  21.207  0.00  0.00    +0.000 Cl
ATOM     25  C   UNL     1       1.391   7.287  20.719  0.00  0.00    +0.000 A 
ENDBRANCH  18  19
ENDBRANCH  17  18
ENDBRANCH  16  17
ENDBRANCH  15  16
ENDBRANCH   8  15
TORSDOF 5
ENDMDL
MODEL 2
REMARK VINA RESULT:      -6.8      1.043      1.417
REMARK  Name = 
REMARK  8 active torsions:
REMARK  status: ('A' for Active; 'I' for Inactive)
REMARK    1  A    between atoms: C_1  and  N_2
REMARK    2  A    between atoms: C_8  and  S_9
REMARK    3  A    between atoms: S_9  and  C_10
REMARK    4  A    between atoms: C_10  and  C_11
REMARK    5  A    between atoms: C_11  and  C_12
REMARK    6  A    between atoms: C_12  and  C_13
REMARK    7  A    between atoms: N_20  and  C_21
REMARK    8  A    between atoms: N_22  and  C_23
REMARK                            x       y       z     vdW  Elec       q    Type
REMARK                         _______ _______ _______ _____ _____    ______ ____
ROOT
ATOM      1  C   UNL     1       8.174   6.792  18.766  0.00  0.00    +0.000 C 
ATOM      2  N   UNL     1       7.083   5.979  18.264  0.00  0.00    +0.000 N 
ATOM      3  C   UNL     1       6.482   5.067  19.138  0.00  0.00    +0.000 A 
ATOM      4  O   UNL     1       6.816   4.911  20.308  0.00  0.00    +0.000 OA
ATOM      5  C   UNL     1       5.428   4.329  18.529  0.00  0.00    +0.000 A 
ATOM      6  C   UNL     1       5.046   4.500  17.233  0.00  0.00    +0.000 A 
ATOM      7  N   UNL     1       4.016   3.678  16.892  0.00  0.00    +0.000 NA
ATOM      8  C   UNL     1       3.757   2.992  17.989  0.00  0.00    +0.000 A 
ATOM      9  N   UNL     1       4.594   3.354  19.022  0.00  0.00    +0.000 N 
ATOM     10  C   UNL     1       4.647   2.867  20.381  0.00  0.00    +0.000 C 
ATOM     11  N   UNL     1       5.665   5.417  16.418  0.00  0.00    +0.000 N 
ATOM     12  C   UNL     1       5.264   5.607  15.039  0.00  0.00    +0.000 C 
ATOM     13  C   UNL     1       6.715   6.188  16.920  0.00  0.00    +0.000 A 
ATOM     14  O   UNL     1       7.299   7.020  16.217  0.00  0.00    +0.000 OA
ENDROOT
BRANCH   8  15
ATOM     15  S   UNL     1       2.515   1.783  18.122  0.00  0.00    +0.000 S 
BRANCH  15  16
ATOM     16  C   UNL     1       1.752   2.213  19.730  0.00  0.00    +0.000 C 
BRANCH  16  17
ATOM     17  C   UNL     1       1.079   3.593  19.673  0.00  0.00    +0.000 C 
BRANCH  17  18
ATOM     18  C   UNL     1       1.592   4.517  20.788  0.00  0.00    +0.000 C 
BRANCH  18  19
ATOM     19  C   UNL     1       1.690   5.965  20.360  0.00  0.00    +0.000 A 
ATOM     20  C   UNL     1       1.129   6.986  21.144  0.00  0.00    +0.000 A 
ATOM     21  C   UNL     1       1.232   8.325  20.754  0.00  0.00    +0.000 A 
ATOM     22  C   UNL     1       1.896   8.662  19.573  0.00  0.00    +0.000 A 
ATOM     23  C   UNL     1       2.450   7.655  18.788  0.00  0.00    +0.000 A 
ATOM     24 CL   UNL     1       3.271   8.067  17.332  0.00  0.00    +0.000 Cl
ATOM     25  C   UNL     1       2.350   6.316  19.173  0.00  0.00    +0.000 A 
ENDBRANCH  18  19
ENDBRANCH  17  18
ENDBRANCH  16  17
ENDBRANCH  15  16
ENDBRANCH   8  15
TORSDOF 5
ENDMDL
MODEL 3
REMARK VINA RESULT:      -6.7      6.813      9.254
REMARK  Name = 
REMARK  8 active torsions:
REMARK  status: ('A' for Active; 'I' for Inactive)
REMARK    1  A    between atoms: C_1  and  N_2
REMARK    2  A    between atoms: C_8  and  S_9
REMARK    3  A    between atoms: S_9  and  C_10
REMARK    4  A    between atoms: C_10  and  C_11
REMARK    5  A    between atoms: C_11  and  C_12
REMARK    6  A    between atoms: C_12  and  C_13
REMARK    7  A    between atoms: N_20  and  C_21
REMARK    8  A    between atoms: N_22  and  C_23
REMARK                            x       y       z     vdW  Elec       q    Type
REMARK                         _______ _______ _______ _____ _____    ______ ____
ROOT
ATOM      1  C   UNL     1      -5.689  12.833  19.006  0.00  0.00    +0.000 C 
ATOM      2  N   UNL     1      -4.423  12.188  18.719  0.00  0.00    +0.000 N 
ATOM      3  C   UNL     1      -3.400  12.287  19.667  0.00  0.00    +0.000 A 
ATOM      4  O   UNL     1      -3.504  12.886  20.733  0.00  0.00    +0.000 OA
ATOM      5  C   UNL     1      -2.208  11.616  19.270  0.00  0.00    +0.000 A 
ATOM      6  C   UNL     1      -2.086  10.945  18.091  0.00  0.00    +0.000 A 
ATOM      7  N   UNL     1      -0.852  10.389  17.947  0.00  0.00    +0.000 NA
ATOM      8  C   UNL     1      -0.205  10.718  19.049  0.00  0.00    +0.000 A 
ATOM      9  N   UNL     1      -0.993  11.471  19.893  0.00  0.00    +0.000 N 
ATOM     10  C   UNL     1      -0.686  12.024  21.192  0.00  0.00    +0.000 C 
ATOM     11  N   UNL     1      -3.126  10.870  17.197  0.00  0.00    +0.000 N 
ATOM     12  C   UNL     1      -3.005  10.156  15.942  0.00  0.00    +0.000 C 
ATOM     13  C   UNL     1      -4.337  11.500  17.492  0.00  0.00    +0.000 A 
ATOM     14  O   UNL     1      -5.293  11.458  16.712  0.00  0.00    +0.000 OA
ENDROOT
BRANCH   8  15
ATOM     15  S   UNL     1       1.436  10.262  19.400  0.00  0.00    +0.000 S 
BRANCH  15  16
ATOM     16  C   UNL     1       1.795   9.096  18.035  0.00  0.00    +0.000 C 
BRANCH  16  17
ATOM     17  C   UNL     1       2.206   7.719  18.576  0.00  0.00    +0.000 C 
BRANCH  17  18
ATOM     18  C   UNL     1       3.334   7.098  17.737  0.00  0.00    +0.000 C 
BRANCH  18  19
ATOM     19  C   UNL     1       3.290   5.585  17.713  0.00  0.00    +0.000 A 
ATOM     20  C   UNL     1       4.375   4.842  17.220  0.00  0.00    +0.000 A 
ATOM     21  C   UNL     1       4.340   3.444  17.212  0.00  0.00    +0.000 A 
ATOM     22  C   UNL     1       3.218   2.769  17.694  0.00  0.00    +0.000 A 
ATOM     23  C   UNL     1       2.136   3.499  18.180  0.00  0.00    +0.000 A 
ATOM     24 CL   UNL     1       0.751   2.669  18.778  0.00  0.00    +0.000 Cl
ATOM     25  C   UNL     1       2.166   4.895  18.191  0.00  0.00    +0.000 A 
ENDBRANCH  18  19
ENDBRANCH  17  18
ENDBRANCH  16  17
ENDBRANCH  15  16
ENDBRANCH   8  15
TORSDOF 5
ENDMDL
MODEL 4
REMARK VINA RESULT:      -6.7      1.556      2.596
REMARK  Name = 
REMARK  8 active torsions:
REMARK  status: ('A' for Active; 'I' for Inactive)
REMARK    1  A    between atoms: C_1  and  N_2
REMARK    2  A    between atoms: C_8  and  S_9
REMARK    3  A    between atoms: S_9  and  C_10
REMARK    4  A    between atoms: C_10  and  C_11
REMARK    5  A    between atoms: C_11  and  C_12
REMARK    6  A    between atoms: C_12  and  C_13
REMARK    7  A    between atoms: N_20  and  C_21
REMARK    8  A    between atoms: N_22  and  C_23
REMARK                            x       y       z     vdW  Elec       q    Type
REMARK                         _______ _______ _______ _____ _____    ______ ____
ROOT
ATOM      1  C   UNL     1       6.329   5.412  14.427  0.00  0.00    +0.000 C 
ATOM      2  N   UNL     1       6.140   5.028  15.812  0.00  0.00    +0.000 N 
ATOM      3  C   UNL     1       5.180   4.054  16.103  0.00  0.00    +0.000 A 
ATOM      4  O   UNL     1       4.485   3.497  15.259  0.00  0.00    +0.000 OA
ATOM      5  C   UNL     1       5.086   3.766  17.495  0.00  0.00    +0.000 A 
ATOM      6  C   UNL     1       5.856   4.374  18.437  0.00  0.00    +0.000 A 
ATOM      7  N   UNL     1       5.577   3.924  19.692  0.00  0.00    +0.000 NA
ATOM      8  C   UNL     1       4.625   3.026  19.522  0.00  0.00    +0.000 A 
ATOM      9  N   UNL     1       4.288   2.892  18.193  0.00  0.00    +0.000 N 
ATOM     10  C   UNL     1       3.315   2.024  17.572  0.00  0.00    +0.000 C 
ATOM     11  N   UNL     1       6.793   5.320  18.098  0.00  0.00    +0.000 N 
ATOM     12  C   UNL     1       7.619   5.970  19.095  0.00  0.00    +0.000 C 
ATOM     13  C   UNL     1       6.959   5.677  16.758  0.00  0.00    +0.000 A 
ATOM     14  O   UNL     1       7.787   6.526  16.414  0.00  0.00    +0.000 OA
ENDROOT
BRANCH   8  15
ATOM     15  S   UNL     1       3.885   2.122  20.809  0.00  0.00    +0.000 S 
BRANCH  15  16
ATOM     16  C   UNL     1       2.748   3.364  21.527  0.00  0.00    +0.000 C 
BRANCH  16  17
ATOM     17  C   UNL     1       1.282   3.005  21.242  0.00  0.00    +0.000 C 
BRANCH  17  18
ATOM     18  C   UNL     1       0.792   3.637  19.930  0.00  0.00    +0.000 C 
BRANCH  18  19
ATOM     19  C   UNL     1       1.349   5.025  19.696  0.00  0.00    +0.000 A 
ATOM     20  C   UNL     1       2.042   5.332  18.514  0.00  0.00    +0.000 A 
ATOM     21  C   UNL     1       2.544   6.618  18.293  0.00  0.00    +0.000 A 
ATOM     22  C   UNL     1       2.363   7.615  19.252  0.00  0.00    +0.000 A 
ATOM     23  C   UNL     1       1.682   7.317  20.429  0.00  0.00    +0.000 A 
ATOM     24 CL   UNL     1       1.454   8.546  21.614  0.00  0.00    +0.000 Cl
ATOM     25  C   UNL     1       1.178   6.034  20.655  0.00  0.00    +0.000 A 
ENDBRANCH  18  19
ENDBRANCH  17  18
ENDBRANCH  16  17
ENDBRANCH  15  16
ENDBRANCH   8  15
TORSDOF 5
ENDMDL
MODEL 5
REMARK VINA RESULT:      -6.7      5.126      7.749
REMARK  Name = 
REMARK  8 active torsions:
REMARK  status: ('A' for Active; 'I' for Inactive)
REMARK    1  A    between atoms: C_1  and  N_2
REMARK    2  A    between atoms: C_8  and  S_9
REMARK    3  A    between atoms: S_9  and  C_10
REMARK    4  A    between atoms: C_10  and  C_11
REMARK    5  A    between atoms: C_11  and  C_12
REMARK    6  A    between atoms: C_12  and  C_13
REMARK    7  A    between atoms: N_20  and  C_21
REMARK    8  A    between atoms: N_22  and  C_23
REMARK                            x       y       z     vdW  Elec       q    Type
REMARK                         _______ _______ _______ _____ _____    ______ ____
ROOT
ATOM      1  C   UNL     1      -2.059  12.666  20.427  0.00  0.00    +0.000 C 
ATOM      2  N   UNL     1      -1.163  11.541  20.620  0.00  0.00    +0.000 N 
ATOM      3  C   UNL     1      -0.512  11.016  19.500  0.00  0.00    +0.000 A 
ATOM      4  O   UNL     1      -0.647  11.447  18.358  0.00  0.00    +0.000 OA
ATOM      5  C   UNL     1       0.336   9.916  19.816  0.00  0.00    +0.000 A 
ATOM      6  C   UNL     1       0.496   9.436  21.080  0.00  0.00    +0.000 A 
ATOM      7  N   UNL     1       1.359   8.384  21.119  0.00  0.00    +0.000 NA
ATOM      8  C   UNL     1       1.738   8.214  19.867  0.00  0.00    +0.000 A 
ATOM      9  N   UNL     1       1.140   9.129  19.028  0.00  0.00    +0.000 N 
ATOM     10  C   UNL     1       1.281   9.302  17.601  0.00  0.00    +0.000 C 
ATOM     11  N   UNL     1      -0.162   9.994  22.149  0.00  0.00    +0.000 N 
ATOM     12  C   UNL     1       0.005   9.490  23.497  0.00  0.00    +0.000 C 
ATOM     13  C   UNL     1      -1.021  11.076  21.942  0.00  0.00    +0.000 A 
ATOM     14  O   UNL     1      -1.633  11.602  22.877  0.00  0.00    +0.000 OA
ENDROOT
BRANCH   8  15
ATOM     15  S   UNL     1       2.855   6.992  19.335  0.00  0.00    +0.000 S 
BRANCH  15  16
ATOM     16  C   UNL     1       2.098   5.475  20.025  0.00  0.00    +0.000 C 
BRANCH  16  17
ATOM     17  C   UNL     1       2.930   4.231  19.676  0.00  0.00    +0.000 C 
BRANCH  17  18
ATOM     18  C   UNL     1       3.126   4.092  18.158  0.00  0.00    +0.000 C 
BRANCH  18  19
ATOM     19  C   UNL     1       4.568   4.258  17.730  0.00  0.00    +0.000 A 
ATOM     20  C   UNL     1       4.978   3.901  16.435  0.00  0.00    +0.000 A 
ATOM     21  C   UNL     1       6.308   4.068  16.035  0.00  0.00    +0.000 A 
ATOM     22  C   UNL     1       7.247   4.591  16.926  0.00  0.00    +0.000 A 
ATOM     23  C   UNL     1       6.848   4.943  18.212  0.00  0.00    +0.000 A 
ATOM     24 CL   UNL     1       8.003   5.591  19.312  0.00  0.00    +0.000 Cl
ATOM     25  C   UNL     1       5.521   4.778  18.617  0.00  0.00    +0.000 A 
ENDBRANCH  18  19
ENDBRANCH  17  18
ENDBRANCH  16  17
ENDBRANCH  15  16
ENDBRANCH   8  15
TORSDOF 5
ENDMDL
MODEL 6
REMARK VINA RESULT:      -6.6      4.426      6.357
REMARK  Name = 
REMARK  8 active torsions:
REMARK  status: ('A' for Active; 'I' for Inactive)
REMARK    1  A    between atoms: C_1  and  N_2
REMARK    2  A    between atoms: C_8  and  S_9
REMARK    3  A    between atoms: S_9  and  C_10
REMARK    4  A    between atoms: C_10  and  C_11
REMARK    5  A    between atoms: C_11  and  C_12
REMARK    6  A    between atoms: C_12  and  C_13
REMARK    7  A    between atoms: N_20  and  C_21
REMARK    8  A    between atoms: N_22  and  C_23
REMARK                            x       y       z     vdW  Elec       q    Type
REMARK                         _______ _______ _______ _____ _____    ______ ____
ROOT
ATOM      1  C   UNL     1       4.611   3.299  17.222  0.00  0.00    +0.000 C 
ATOM      2  N   UNL     1       3.841   4.133  18.125  0.00  0.00    +0.000 N 
ATOM      3  C   UNL     1       3.642   5.473  17.779  0.00  0.00    +0.000 A 
ATOM      4  O   UNL     1       4.076   5.993  16.756  0.00  0.00    +0.000 OA
ATOM      5  C   UNL     1       2.875   6.187  18.744  0.00  0.00    +0.000 A 
ATOM      6  C   UNL     1       2.385   5.616  19.879  0.00  0.00    +0.000 A 
ATOM      7  N   UNL     1       1.685   6.507  20.635  0.00  0.00    +0.000 NA
ATOM      8  C   UNL     1       1.741   7.638  19.959  0.00  0.00    +0.000 A 
ATOM      9  N   UNL     1       2.460   7.495  18.792  0.00  0.00    +0.000 N 
ATOM     10  C   UNL     1       2.754   8.468  17.765  0.00  0.00    +0.000 C 
ATOM     11  N   UNL     1       2.602   4.291  20.168  0.00  0.00    +0.000 N 
ATOM     12  C   UNL     1       2.081   3.676  21.372  0.00  0.00    +0.000 C 
ATOM     13  C   UNL     1       3.347   3.506  19.286  0.00  0.00    +0.000 A 
ATOM     14  O   UNL     1       3.566   2.311  19.513  0.00  0.00    +0.000 OA
ENDROOT
BRANCH   8  15
ATOM     15  S   UNL     1       1.003   9.127  20.470  0.00  0.00    +0.000 S 
BRANCH  15  16
ATOM     16  C   UNL     1       0.968   8.916  22.288  0.00  0.00    +0.000 C 
BRANCH  16  17
ATOM     17  C   UNL     1       0.017   9.928  22.946  0.00  0.00    +0.000 C 
BRANCH  17  18
ATOM     18  C   UNL     1      -0.359  11.060  21.977  0.00  0.00    +0.000 C 
BRANCH  18  19
ATOM     19  C   UNL     1      -1.200  12.139  22.625  0.00  0.00    +0.000 A 
ATOM     20  C   UNL     1      -0.807  13.486  22.569  0.00  0.00    +0.000 A 
ATOM     21  C   UNL     1      -1.592  14.484  23.156  0.00  0.00    +0.000 A 
ATOM     22  C   UNL     1      -2.779  14.149  23.809  0.00  0.00    +0.000 A 
ATOM     23  C   UNL     1      -3.172  12.815  23.872  0.00  0.00    +0.000 A 
ATOM     24 CL   UNL     1      -4.637  12.398  24.675  0.00  0.00    +0.000 Cl
ATOM     25  C   UNL     1      -2.392  11.813  23.288  0.00  0.00    +0.000 A 
ENDBRANCH  18  19
ENDBRANCH  17  18
ENDBRANCH  16  17
ENDBRANCH  15  16
ENDBRANCH   8  15
TORSDOF 5
ENDMDL
MODEL 7
REMARK VINA RESULT:      -6.6      4.415      7.199
REMARK  Name = 
REMARK  8 active torsions:
REMARK  status: ('A' for Active; 'I' for Inactive)
REMARK    1  A    between atoms: C_1  and  N_2
REMARK    2  A    between atoms: C_8  and  S_9
REMARK    3  A    between atoms: S_9  and  C_10
REMARK    4  A    between atoms: C_10  and  C_11
REMARK    5  A    between atoms: C_11  and  C_12
REMARK    6  A    between atoms: C_12  and  C_13
REMARK    7  A    between atoms: N_20  and  C_21
REMARK    8  A    between atoms: N_22  and  C_23
REMARK                            x       y       z     vdW  Elec       q    Type
REMARK                         _______ _______ _______ _____ _____    ______ ____
ROOT
ATOM      1  C   UNL     1       2.365   3.066  21.038  0.00  0.00    +0.000 C 
ATOM      2  N   UNL     1       2.960   4.139  20.265  0.00  0.00    +0.000 N 
ATOM      3  C   UNL     1       4.209   3.917  19.678  0.00  0.00    +0.000 A 
ATOM      4  O   UNL     1       4.838   2.867  19.772  0.00  0.00    +0.000 OA
ATOM      5  C   UNL     1       4.687   5.043  18.949  0.00  0.00    +0.000 A 
ATOM      6  C   UNL     1       3.994   6.209  18.835  0.00  0.00    +0.000 A 
ATOM      7  N   UNL     1       4.663   7.129  18.087  0.00  0.00    +0.000 NA
ATOM      8  C   UNL     1       5.781   6.525  17.734  0.00  0.00    +0.000 A 
ATOM      9  N   UNL     1       5.845   5.243  18.237  0.00  0.00    +0.000 N 
ATOM     10  C   UNL     1       6.876   4.243  18.084  0.00  0.00    +0.000 C 
ATOM     11  N   UNL     1       2.764   6.373  19.425  0.00  0.00    +0.000 N 
ATOM     12  C   UNL     1       2.018   7.609  19.306  0.00  0.00    +0.000 C 
ATOM     13  C   UNL     1       2.210   5.328  20.167  0.00  0.00    +0.000 A 
ATOM     14  O   UNL     1       1.108   5.439  20.715  0.00  0.00    +0.000 OA
ENDROOT
BRANCH   8  15
ATOM     15  S   UNL     1       7.023   7.248  16.755  0.00  0.00    +0.000 S 
BRANCH  15  16
ATOM     16  C   UNL     1       8.215   7.808  18.026  0.00  0.00    +0.000 C 
BRANCH  16  17
ATOM     17  C   UNL     1       8.297   9.341  18.073  0.00  0.00    +0.000 C 
BRANCH  17  18
ATOM     18  C   UNL     1       9.132   9.824  19.270  0.00  0.00    +0.000 C 
BRANCH  18  19
ATOM     19  C   UNL     1       9.891  11.102  18.984  0.00  0.00    +0.000 A 
ATOM     20  C   UNL     1      10.516  11.305  17.744  0.00  0.00    +0.000 A 
ATOM     21  C   UNL     1      11.206  12.492  17.476  0.00  0.00    +0.000 A 
ATOM     22  C   UNL     1      11.283  13.491  18.447  0.00  0.00    +0.000 A 
ATOM     23  C   UNL     1      10.670  13.295  19.681  0.00  0.00    +0.000 A 
ATOM     24 CL   UNL     1      10.761  14.528  20.880  0.00  0.00    +0.000 Cl
ATOM     25  C   UNL     1       9.980  12.112  19.954  0.00  0.00    +0.000 A 
ENDBRANCH  18  19
ENDBRANCH  17  18
ENDBRANCH  16  17
ENDBRANCH  15  16
ENDBRANCH   8  15
TORSDOF 5
ENDMDL
MODEL 8
REMARK VINA RESULT:      -6.5      3.931      6.831
REMARK  Name = 
REMARK  8 active torsions:
REMARK  status: ('A' for Active; 'I' for Inactive)
REMARK    1  A    between atoms: C_1  and  N_2
REMARK    2  A    between atoms: C_8  and  S_9
REMARK    3  A    between atoms: S_9  and  C_10
REMARK    4  A    between atoms: C_10  and  C_11
REMARK    5  A    between atoms: C_11  and  C_12
REMARK    6  A    between atoms: C_12  and  C_13
REMARK    7  A    between atoms: N_20  and  C_21
REMARK    8  A    between atoms: N_22  and  C_23
REMARK                            x       y       z     vdW  Elec       q    Type
REMARK                         _______ _______ _______ _____ _____    ______ ____
ROOT
ATOM      1  C   UNL     1       0.737   4.187  20.625  0.00  0.00    +0.000 C 
ATOM      2  N   UNL     1       2.089   4.167  20.101  0.00  0.00    +0.000 N 
ATOM      3  C   UNL     1       2.499   5.230  19.290  0.00  0.00    +0.000 A 
ATOM      4  O   UNL     1       1.788   6.184  18.992  0.00  0.00    +0.000 OA
ATOM      5  C   UNL     1       3.843   5.096  18.837  0.00  0.00    +0.000 A 
ATOM      6  C   UNL     1       4.641   4.044  19.168  0.00  0.00    +0.000 A 
ATOM      7  N   UNL     1       5.880   4.149  18.611  0.00  0.00    +0.000 NA
ATOM      8  C   UNL     1       5.847   5.280  17.932  0.00  0.00    +0.000 A 
ATOM      9  N   UNL     1       4.620   5.899  18.038  0.00  0.00    +0.000 N 
ATOM     10  C   UNL     1       4.163   7.145  17.468  0.00  0.00    +0.000 C 
ATOM     11  N   UNL     1       4.193   3.028  19.976  0.00  0.00    +0.000 N 
ATOM     12  C   UNL     1       5.036   1.907  20.335  0.00  0.00    +0.000 C 
ATOM     13  C   UNL     1       2.886   3.065  20.469  0.00  0.00    +0.000 A 
ATOM     14  O   UNL     1       2.445   2.169  21.196  0.00  0.00    +0.000 OA
ENDROOT
BRANCH   8  15
ATOM     15  S   UNL     1       7.180   5.916  17.015  0.00  0.00    +0.000 S 
BRANCH  15  16
ATOM     16  C   UNL     1       7.910   7.104  18.201  0.00  0.00    +0.000 C 
BRANCH  16  17
ATOM     17  C   UNL     1       7.564   8.551  17.820  0.00  0.00    +0.000 C 
BRANCH  17  18
ATOM     18  C   UNL     1       8.825   9.362  17.483  0.00  0.00    +0.000 C 
BRANCH  18  19
ATOM     19  C   UNL     1       9.049  10.528  18.422  0.00  0.00    +0.000 A 
ATOM     20  C   UNL     1       9.445  10.314  19.752  0.00  0.00    +0.000 A 
ATOM     21  C   UNL     1       9.665  11.393  20.614  0.00  0.00    +0.000 A 
ATOM     22  C   UNL     1       9.490  12.700  20.160  0.00  0.00    +0.000 A 
ATOM     23  C   UNL     1       9.092  12.920  18.844  0.00  0.00    +0.000 A 
ATOM     24 CL   UNL     1       8.878  14.532  18.278  0.00  0.00    +0.000 Cl
ATOM     25  C   UNL     1       8.871  11.846  17.977  0.00  0.00    +0.000 A 
ENDBRANCH  18  19
ENDBRANCH  17  18
ENDBRANCH  16  17
ENDBRANCH  15  16
ENDBRANCH   8  15
TORSDOF 5
ENDMDL
MODEL 9
REMARK VINA RESULT:      -6.5      4.017      6.798
REMARK  Name = 
REMARK  8 active torsions:
REMARK  status: ('A' for Active; 'I' for Inactive)
REMARK    1  A    between atoms: C_1  and  N_2
REMARK    2  A    between atoms: C_8  and  S_9
REMARK    3  A    between atoms: S_9  and  C_10
REMARK    4  A    between atoms: C_10  and  C_11
REMARK    5  A    between atoms: C_11  and  C_12
REMARK    6  A    between atoms: C_12  and  C_13
REMARK    7  A    between atoms: N_20  and  C_21
REMARK    8  A    between atoms: N_22  and  C_23
REMARK                            x       y       z     vdW  Elec       q    Type
REMARK                         _______ _______ _______ _____ _____    ______ ____
ROOT
ATOM      1  C   UNL     1       1.305   1.964  19.225  0.00  0.00    +0.000 C 
ATOM      2  N   UNL     1       2.117   3.133  18.949  0.00  0.00    +0.000 N 
ATOM      3  C   UNL     1       3.183   3.000  18.053  0.00  0.00    +0.000 A 
ATOM      4  O   UNL     1       3.476   1.955  17.481  0.00  0.00    +0.000 OA
ATOM      5  C   UNL     1       3.905   4.213  17.867  0.00  0.00    +0.000 A 
ATOM      6  C   UNL     1       3.584   5.378  18.493  0.00  0.00    +0.000 A 
ATOM      7  N   UNL     1       4.424   6.392  18.147  0.00  0.00    +0.000 NA
ATOM      8  C   UNL     1       5.273   5.848  17.296  0.00  0.00    +0.000 A 
ATOM      9  N   UNL     1       4.998   4.514  17.090  0.00  0.00    +0.000 N 
ATOM     10  C   UNL     1       5.664   3.556  16.239  0.00  0.00    +0.000 C 
ATOM     11  N   UNL     1       2.520   5.458  19.359  0.00  0.00    +0.000 N 
ATOM     12  C   UNL     1       2.169   6.695  20.027  0.00  0.00    +0.000 C 
ATOM     13  C   UNL     1       1.750   4.320  19.612  0.00  0.00    +0.000 A 
ATOM     14  O   UNL     1       0.788   4.351  20.387  0.00  0.00    +0.000 OA
ENDROOT
BRANCH   8  15
ATOM     15  S   UNL     1       6.577   6.702  16.526  0.00  0.00    +0.000 S 
BRANCH  15  16
ATOM     16  C   UNL     1       7.516   7.322  17.970  0.00  0.00    +0.000 C 
BRANCH  16  17
ATOM     17  C   UNL     1       8.063   8.734  17.712  0.00  0.00    +0.000 C 
BRANCH  17  18
ATOM     18  C   UNL     1       9.097   9.140  18.773  0.00  0.00    +0.000 C 
BRANCH  18  19
ATOM     19  C   UNL     1       9.172  10.637  18.986  0.00  0.00    +0.000 A 
ATOM     20  C   UNL     1       9.987  11.181  19.991  0.00  0.00    +0.000 A 
ATOM     21  C   UNL     1      10.066  12.565  20.177  0.00  0.00    +0.000 A 
ATOM     22  C   UNL     1       9.328  13.424  19.362  0.00  0.00    +0.000 A 
ATOM     23  C   UNL     1       8.514  12.892  18.366  0.00  0.00    +0.000 A 
ATOM     24 CL   UNL     1       7.604  13.950  17.357  0.00  0.00    +0.000 Cl
ATOM     25  C   UNL     1       8.431  11.511  18.176  0.00  0.00    +0.000 A 
ENDBRANCH  18  19
ENDBRANCH  17  18
ENDBRANCH  16  17
ENDBRANCH  15  16
ENDBRANCH   8  15
TORSDOF 5
ENDMDL
