MODEL 1
REMARK VINA RESULT:      -8.0      0.000      0.000
REMARK  Name = 
REMARK  9 active torsions:
REMARK  status: ('A' for Active; 'I' for Inactive)
REMARK    1  A    between atoms: C_1  and  O_2
REMARK    2  A    between atoms: O_2  and  C_3
REMARK    3  A    between atoms: C_8  and  C_9
REMARK    4  A    between atoms: N_11  and  C_12
REMARK    5  A    between atoms: C_12  and  C_13
REMARK    6  A    between atoms: C_13  and  C_14
REMARK    7  A    between atoms: C_16  and  C_17
REMARK    8  A    between atoms: C_18  and  C_19
REMARK    9  A    between atoms: C_19  and  O_21
REMARK                            x       y       z     vdW  Elec       q    Type
REMARK                         _______ _______ _______ _____ _____    ______ ____
ROOT
ATOM      1  C   UNL     1       5.461   3.925  17.910  0.00  0.00    +0.000 C 
ATOM      2  O   UNL     1       5.971   4.261  18.975  0.00  0.00    +0.000 OA
ATOM      3  N   UNL     1       4.303   3.183  17.859  0.00  0.00    +0.000 N 
ATOM      4  H   UNL     1       3.907   2.954  16.951  0.00  0.00    +0.000 HD
ENDROOT
BRANCH   1  10
ATOM      5  C   UNL     1       7.037   5.365  16.479  0.00  0.00    +0.000 A 
ATOM      6  N   UNL     1       7.587   5.736  15.292  0.00  0.00    +0.000 NA
ATOM      7  C   UNL     1       7.210   5.024  14.222  0.00  0.00    +0.000 A 
ATOM      8  C   UNL     1       6.336   3.955  14.262  0.00  0.00    +0.000 A 
ATOM      9  C   UNL     1       5.753   3.606  15.468  0.00  0.00    +0.000 A 
ATOM     10  C   UNL     1       6.093   4.337  16.620  0.00  0.00    +0.000 A 
ATOM     11  C   UNL     1       6.224   3.287  12.935  0.00  0.00    +0.000 C 
ATOM     12  C   UNL     1       6.916   4.286  11.994  0.00  0.00    +0.000 C 
ATOM     13  C   UNL     1       7.737   5.268  12.842  0.00  0.00    +0.000 C 
BRANCH   5  15
ATOM     14  C   UNL     1       7.543   7.463  17.355  0.00  0.00    +0.000 C 
ATOM     15  O   UNL     1       7.459   6.057  17.598  0.00  0.00    +0.000 OA
ENDBRANCH   5  15
ENDBRANCH   1  10
BRANCH   3  16
ATOM     16  C   UNL     1       3.580   2.766  19.049  0.00  0.00    +0.000 C 
BRANCH  16  17
ATOM     17  C   UNL     1       2.176   3.358  19.156  0.00  0.00    +0.000 C 
BRANCH  17  18
ATOM     18  C   UNL     1       2.176   4.850  19.293  0.00  0.00    +0.000 A 
ATOM     19  N   UNL     1       2.621   5.686  18.382  0.00  0.00    +0.000 NA
ATOM     20  C   UNL     1       2.422   7.006  18.781  0.00  0.00    +0.000 A 
ATOM     21  C   UNL     1       2.853   8.071  17.831  0.00  0.00    +0.000 C 
ATOM     22  C   UNL     1       1.820   7.148  20.026  0.00  0.00    +0.000 A 
ATOM     23  S   UNL     1       1.517   5.590  20.691  0.00  0.00    +0.000 S 
BRANCH  22  24
ATOM     24  C   UNL     1       1.457   8.351  20.746  0.00  0.00    +0.000 C 
ATOM     25  O   UNL     1       0.850   9.309  20.286  0.00  0.00    +0.000 OA
BRANCH  24  26
ATOM     26  O   UNL     1       1.864   8.336  22.048  0.00  0.00    +0.000 OA
ATOM     27  H   UNL     1       1.319   8.913  22.612  0.00  0.00    +0.000 HD
ENDBRANCH  24  26
ENDBRANCH  22  24
ENDBRANCH  17  18
ENDBRANCH  16  17
ENDBRANCH   3  16
TORSDOF 7
ENDMDL
MODEL 2
REMARK VINA RESULT:      -7.7      1.315      1.625
REMARK  Name = 
REMARK  9 active torsions:
REMARK  status: ('A' for Active; 'I' for Inactive)
REMARK    1  A    between atoms: C_1  and  O_2
REMARK    2  A    between atoms: O_2  and  C_3
REMARK    3  A    between atoms: C_8  and  C_9
REMARK    4  A    between atoms: N_11  and  C_12
REMARK    5  A    between atoms: C_12  and  C_13
REMARK    6  A    between atoms: C_13  and  C_14
REMARK    7  A    between atoms: C_16  and  C_17
REMARK    8  A    between atoms: C_18  and  C_19
REMARK    9  A    between atoms: C_19  and  O_21
REMARK                            x       y       z     vdW  Elec       q    Type
REMARK                         _______ _______ _______ _____ _____    ______ ____
ROOT
ATOM      1  C   UNL     1       4.797   4.211  17.499  0.00  0.00    +0.000 C 
ATOM      2  O   UNL     1       4.228   3.126  17.580  0.00  0.00    +0.000 OA
ATOM      3  N   UNL     1       4.667   5.176  18.472  0.00  0.00    +0.000 N 
ATOM      4  H   UNL     1       5.181   6.048  18.370  0.00  0.00    +0.000 HD
ENDROOT
BRANCH   1  10
ATOM      5  C   UNL     1       6.816   5.317  16.357  0.00  0.00    +0.000 A 
ATOM      6  N   UNL     1       7.588   5.589  15.270  0.00  0.00    +0.000 NA
ATOM      7  C   UNL     1       7.225   4.991  14.129  0.00  0.00    +0.000 A 
ATOM      8  C   UNL     1       6.156   4.126  14.003  0.00  0.00    +0.000 A 
ATOM      9  C   UNL     1       5.353   3.884  15.104  0.00  0.00    +0.000 A 
ATOM     10  C   UNL     1       5.672   4.506  16.324  0.00  0.00    +0.000 A 
ATOM     11  C   UNL     1       6.094   3.521  12.643  0.00  0.00    +0.000 C 
ATOM     12  C   UNL     1       7.098   4.372  11.849  0.00  0.00    +0.000 C 
ATOM     13  C   UNL     1       7.976   5.145  12.842  0.00  0.00    +0.000 C 
BRANCH   5  15
ATOM     14  C   UNL     1       7.575   7.258  17.396  0.00  0.00    +0.000 C 
ATOM     15  O   UNL     1       7.212   5.886  17.553  0.00  0.00    +0.000 OA
ENDBRANCH   5  15
ENDBRANCH   1  10
BRANCH   3  16
ATOM     16  C   UNL     1       3.879   4.980  19.676  0.00  0.00    +0.000 C 
BRANCH  16  17
ATOM     17  C   UNL     1       2.390   5.276  19.495  0.00  0.00    +0.000 C 
BRANCH  17  18
ATOM     18  C   UNL     1       2.072   6.739  19.544  0.00  0.00    +0.000 A 
ATOM     19  N   UNL     1       2.274   7.584  18.559  0.00  0.00    +0.000 NA
ATOM     20  C   UNL     1       1.813   8.855  18.893  0.00  0.00    +0.000 A 
ATOM     21  C   UNL     1       1.949   9.917  17.855  0.00  0.00    +0.000 C 
ATOM     22  C   UNL     1       1.263   8.954  20.166  0.00  0.00    +0.000 A 
ATOM     23  S   UNL     1       1.345   7.419  20.939  0.00  0.00    +0.000 S 
BRANCH  22  24
ATOM     24  C   UNL     1       0.685  10.099  20.838  0.00  0.00    +0.000 C 
ATOM     25  O   UNL     1       1.104  10.616  21.865  0.00  0.00    +0.000 OA
BRANCH  24  26
ATOM     26  O   UNL     1      -0.421  10.586  20.206  0.00  0.00    +0.000 OA
ATOM     27  H   UNL     1      -0.202  11.283  19.563  0.00  0.00    +0.000 HD
ENDBRANCH  24  26
ENDBRANCH  22  24
ENDBRANCH  17  18
ENDBRANCH  16  17
ENDBRANCH   3  16
TORSDOF 7
ENDMDL
MODEL 3
REMARK VINA RESULT:      -7.7      1.693      2.286
REMARK  Name = 
REMARK  9 active torsions:
REMARK  status: ('A' for Active; 'I' for Inactive)
REMARK    1  A    between atoms: C_1  and  O_2
REMARK    2  A    between atoms: O_2  and  C_3
REMARK    3  A    between atoms: C_8  and  C_9
REMARK    4  A    between atoms: N_11  and  C_12
REMARK    5  A    between atoms: C_12  and  C_13
REMARK    6  A    between atoms: C_13  and  C_14
REMARK    7  A    between atoms: C_16  and  C_17
REMARK    8  A    between atoms: C_18  and  C_19
REMARK    9  A    between atoms: C_19  and  O_21
REMARK                            x       y       z     vdW  Elec       q    Type
REMARK                         _______ _______ _______ _____ _____    ______ ____
ROOT
ATOM      1  C   UNL     1       4.837   4.484  17.618  0.00  0.00    +0.000 C 
ATOM      2  O   UNL     1       4.308   3.392  17.806  0.00  0.00    +0.000 OA
ATOM      3  N   UNL     1       4.675   5.532  18.496  0.00  0.00    +0.000 N 
ATOM      4  H   UNL     1       5.156   6.408  18.309  0.00  0.00    +0.000 HD
ENDROOT
BRANCH   1  10
ATOM      5  C   UNL     1       6.854   5.488  16.383  0.00  0.00    +0.000 A 
ATOM      6  N   UNL     1       7.611   5.685  15.271  0.00  0.00    +0.000 NA
ATOM      7  C   UNL     1       7.218   5.034  14.170  0.00  0.00    +0.000 A 
ATOM      8  C   UNL     1       6.130   4.184  14.110  0.00  0.00    +0.000 A 
ATOM      9  C   UNL     1       5.343   4.017  15.236  0.00  0.00    +0.000 A 
ATOM     10  C   UNL     1       5.696   4.698  16.415  0.00  0.00    +0.000 A 
ATOM     11  C   UNL     1       6.034   3.507  12.786  0.00  0.00    +0.000 C 
ATOM     12  C   UNL     1       7.038   4.294  11.930  0.00  0.00    +0.000 C 
ATOM     13  C   UNL     1       7.948   5.103  12.864  0.00  0.00    +0.000 C 
BRANCH   5  15
ATOM     14  C   UNL     1       7.516   7.507  17.336  0.00  0.00    +0.000 C 
ATOM     15  O   UNL     1       7.281   6.113  17.539  0.00  0.00    +0.000 OA
ENDBRANCH   5  15
ENDBRANCH   1  10
BRANCH   3  16
ATOM     16  C   UNL     1       3.899   5.422  19.720  0.00  0.00    +0.000 C 
BRANCH  16  17
ATOM     17  C   UNL     1       2.392   5.565  19.510  0.00  0.00    +0.000 C 
BRANCH  17  18
ATOM     18  C   UNL     1       1.896   6.958  19.745  0.00  0.00    +0.000 A 
ATOM     19  N   UNL     1       1.444   7.409  20.894  0.00  0.00    +0.000 NA
ATOM     20  C   UNL     1       1.123   8.761  20.805  0.00  0.00    +0.000 A 
ATOM     21  C   UNL     1       0.622   9.420  22.045  0.00  0.00    +0.000 C 
ATOM     22  C   UNL     1       1.335   9.324  19.551  0.00  0.00    +0.000 A 
ATOM     23  S   UNL     1       1.938   8.117  18.483  0.00  0.00    +0.000 S 
BRANCH  22  24
ATOM     24  C   UNL     1       1.124  10.683  19.099  0.00  0.00    +0.000 C 
ATOM     25  O   UNL     1       1.460  11.698  19.693  0.00  0.00    +0.000 OA
BRANCH  24  26
ATOM     26  O   UNL     1       0.487  10.751  17.895  0.00  0.00    +0.000 OA
ATOM     27  H   UNL     1      -0.472  10.890  17.991  0.00  0.00    +0.000 HD
ENDBRANCH  24  26
ENDBRANCH  22  24
ENDBRANCH  17  18
ENDBRANCH  16  17
ENDBRANCH   3  16
TORSDOF 7
ENDMDL
MODEL 4
REMARK VINA RESULT:      -7.6      2.703      7.085
REMARK  Name = 
REMARK  9 active torsions:
REMARK  status: ('A' for Active; 'I' for Inactive)
REMARK    1  A    between atoms: C_1  and  O_2
REMARK    2  A    between atoms: O_2  and  C_3
REMARK    3  A    between atoms: C_8  and  C_9
REMARK    4  A    between atoms: N_11  and  C_12
REMARK    5  A    between atoms: C_12  and  C_13
REMARK    6  A    between atoms: C_13  and  C_14
REMARK    7  A    between atoms: C_16  and  C_17
REMARK    8  A    between atoms: C_18  and  C_19
REMARK    9  A    between atoms: C_19  and  O_21
REMARK                            x       y       z     vdW  Elec       q    Type
REMARK                         _______ _______ _______ _____ _____    ______ ____
ROOT
ATOM      1  C   UNL     1       2.113   4.928  20.564  0.00  0.00    +0.000 C 
ATOM      2  O   UNL     1       2.351   4.492  21.687  0.00  0.00    +0.000 OA
ATOM      3  N   UNL     1       2.106   4.116  19.453  0.00  0.00    +0.000 N 
ATOM      4  H   UNL     1       1.876   4.522  18.550  0.00  0.00    +0.000 HD
ENDROOT
BRANCH   1  10
ATOM      5  C   UNL     1       2.219   7.156  19.287  0.00  0.00    +0.000 A 
ATOM      6  N   UNL     1       1.945   8.481  19.148  0.00  0.00    +0.000 NA
ATOM      7  C   UNL     1       1.197   9.030  20.114  0.00  0.00    +0.000 A 
ATOM      8  C   UNL     1       0.689   8.341  21.197  0.00  0.00    +0.000 A 
ATOM      9  C   UNL     1       1.002   7.001  21.351  0.00  0.00    +0.000 A 
ATOM     10  C   UNL     1       1.806   6.379  20.380  0.00  0.00    +0.000 A 
ATOM     11  C   UNL     1      -0.214   9.195  22.018  0.00  0.00    +0.000 C 
ATOM     12  C   UNL     1       0.052  10.603  21.460  0.00  0.00    +0.000 C 
ATOM     13  C   UNL     1       0.768  10.464  20.109  0.00  0.00    +0.000 C 
BRANCH   5  15
ATOM     14  C   UNL     1       3.584   7.536  17.439  0.00  0.00    +0.000 C 
ATOM     15  O   UNL     1       2.945   6.566  18.270  0.00  0.00    +0.000 OA
ENDBRANCH   5  15
ENDBRANCH   1  10
BRANCH   3  16
ATOM     16  C   UNL     1       2.346   2.684  19.522  0.00  0.00    +0.000 C 
BRANCH  16  17
ATOM     17  C   UNL     1       3.469   2.203  18.603  0.00  0.00    +0.000 C 
BRANCH  17  18
ATOM     18  C   UNL     1       4.435   3.287  18.238  0.00  0.00    +0.000 A 
ATOM     19  N   UNL     1       5.237   3.893  19.084  0.00  0.00    +0.000 NA
ATOM     20  C   UNL     1       6.057   4.805  18.424  0.00  0.00    +0.000 A 
ATOM     21  C   UNL     1       7.045   5.550  19.256  0.00  0.00    +0.000 C 
ATOM     22  C   UNL     1       5.849   4.881  17.052  0.00  0.00    +0.000 A 
ATOM     23  S   UNL     1       4.594   3.791  16.607  0.00  0.00    +0.000 S 
BRANCH  22  24
ATOM     24  C   UNL     1       6.513   5.700  16.059  0.00  0.00    +0.000 C 
ATOM     25  O   UNL     1       7.705   5.977  16.037  0.00  0.00    +0.000 OA
BRANCH  24  26
ATOM     26  O   UNL     1       5.665   6.165  15.097  0.00  0.00    +0.000 OA
ATOM     27  H   UNL     1       5.564   7.132  15.130  0.00  0.00    +0.000 HD
ENDBRANCH  24  26
ENDBRANCH  22  24
ENDBRANCH  17  18
ENDBRANCH  16  17
ENDBRANCH   3  16
TORSDOF 7
ENDMDL
MODEL 5
REMARK VINA RESULT:      -7.4      4.504     10.235
REMARK  Name = 
REMARK  9 active torsions:
REMARK  status: ('A' for Active; 'I' for Inactive)
REMARK    1  A    between atoms: C_1  and  O_2
REMARK    2  A    between atoms: O_2  and  C_3
REMARK    3  A    between atoms: C_8  and  C_9
REMARK    4  A    between atoms: N_11  and  C_12
REMARK    5  A    between atoms: C_12  and  C_13
REMARK    6  A    between atoms: C_13  and  C_14
REMARK    7  A    between atoms: C_16  and  C_17
REMARK    8  A    between atoms: C_18  and  C_19
REMARK    9  A    between atoms: C_19  and  O_21
REMARK                            x       y       z     vdW  Elec       q    Type
REMARK                         _______ _______ _______ _____ _____    ______ ____
ROOT
ATOM      1  C   UNL     1       0.387   9.829  22.204  0.00  0.00    +0.000 C 
ATOM      2  O   UNL     1       0.945   9.736  23.294  0.00  0.00    +0.000 OA
ATOM      3  N   UNL     1       0.706   9.005  21.149  0.00  0.00    +0.000 N 
ATOM      4  H   UNL     1       0.194   9.106  20.276  0.00  0.00    +0.000 HD
ENDROOT
BRANCH   1  10
ATOM      5  C   UNL     1      -0.965  11.491  20.785  0.00  0.00    +0.000 A 
ATOM      6  N   UNL     1      -1.931  12.436  20.627  0.00  0.00    +0.000 NA
ATOM      7  C   UNL     1      -2.661  12.715  21.713  0.00  0.00    +0.000 A 
ATOM      8  C   UNL     1      -2.506  12.102  22.941  0.00  0.00    +0.000 A 
ATOM      9  C   UNL     1      -1.497  11.168  23.104  0.00  0.00    +0.000 A 
ATOM     10  C   UNL     1      -0.682  10.854  22.002  0.00  0.00    +0.000 A 
ATOM     11  C   UNL     1      -3.556  12.530  23.907  0.00  0.00    +0.000 C 
ATOM     12  C   UNL     1      -4.199  13.732  23.196  0.00  0.00    +0.000 C 
ATOM     13  C   UNL     1      -3.788  13.702  21.718  0.00  0.00    +0.000 C 
BRANCH   5  15
ATOM     14  C   UNL     1      -1.086  10.739  18.584  0.00  0.00    +0.000 C 
ATOM     15  O   UNL     1      -0.240  11.155  19.658  0.00  0.00    +0.000 OA
ENDBRANCH   5  15
ENDBRANCH   1  10
BRANCH   3  16
ATOM     16  C   UNL     1       1.696   7.946  21.248  0.00  0.00    +0.000 C 
BRANCH  16  17
ATOM     17  C   UNL     1       2.036   7.293  19.908  0.00  0.00    +0.000 C 
BRANCH  17  18
ATOM     18  C   UNL     1       2.347   5.833  20.029  0.00  0.00    +0.000 A 
ATOM     19  N   UNL     1       1.743   5.003  20.849  0.00  0.00    +0.000 NA
ATOM     20  C   UNL     1       2.212   3.704  20.675  0.00  0.00    +0.000 A 
ATOM     21  C   UNL     1       1.595   2.643  21.522  0.00  0.00    +0.000 C 
ATOM     22  C   UNL     1       3.198   3.571  19.703  0.00  0.00    +0.000 A 
ATOM     23  S   UNL     1       3.531   5.115  19.019  0.00  0.00    +0.000 S 
BRANCH  22  24
ATOM     24  C   UNL     1       3.901   2.388  19.253  0.00  0.00    +0.000 C 
ATOM     25  O   UNL     1       3.508   1.599  18.404  0.00  0.00    +0.000 OA
BRANCH  24  26
ATOM     26  O   UNL     1       5.099   2.208  19.880  0.00  0.00    +0.000 OA
ATOM     27  H   UNL     1       4.997   2.079  20.840  0.00  0.00    +0.000 HD
ENDBRANCH  24  26
ENDBRANCH  22  24
ENDBRANCH  17  18
ENDBRANCH  16  17
ENDBRANCH   3  16
TORSDOF 7
ENDMDL
MODEL 6
REMARK VINA RESULT:      -7.3      1.649      2.143
REMARK  Name = 
REMARK  9 active torsions:
REMARK  status: ('A' for Active; 'I' for Inactive)
REMARK    1  A    between atoms: C_1  and  O_2
REMARK    2  A    between atoms: O_2  and  C_3
REMARK    3  A    between atoms: C_8  and  C_9
REMARK    4  A    between atoms: N_11  and  C_12
REMARK    5  A    between atoms: C_12  and  C_13
REMARK    6  A    between atoms: C_13  and  C_14
REMARK    7  A    between atoms: C_16  and  C_17
REMARK    8  A    between atoms: C_18  and  C_19
REMARK    9  A    between atoms: C_19  and  O_21
REMARK                            x       y       z     vdW  Elec       q    Type
REMARK                         _______ _______ _______ _____ _____    ______ ____
ROOT
ATOM      1  C   UNL     1       4.000   4.003  18.651  0.00  0.00    +0.000 C 
ATOM      2  O   UNL     1       4.157   3.066  19.430  0.00  0.00    +0.000 OA
ATOM      3  N   UNL     1       2.898   4.825  18.714  0.00  0.00    +0.000 N 
ATOM      4  H   UNL     1       2.829   5.603  18.063  0.00  0.00    +0.000 HD
ENDROOT
BRANCH   1  10
ATOM      5  C   UNL     1       6.313   4.793  17.857  0.00  0.00    +0.000 A 
ATOM      6  N   UNL     1       7.230   5.058  16.888  0.00  0.00    +0.000 NA
ATOM      7  C   UNL     1       6.864   4.758  15.635  0.00  0.00    +0.000 A 
ATOM      8  C   UNL     1       5.652   4.195  15.288  0.00  0.00    +0.000 A 
ATOM      9  C   UNL     1       4.709   3.962  16.275  0.00  0.00    +0.000 A 
ATOM     10  C   UNL     1       5.031   4.281  17.606  0.00  0.00    +0.000 A 
ATOM     11  C   UNL     1       5.598   3.855  13.838  0.00  0.00    +0.000 C 
ATOM     12  C   UNL     1       6.836   4.575  13.277  0.00  0.00    +0.000 C 
ATOM     13  C   UNL     1       7.755   4.949  14.447  0.00  0.00    +0.000 C 
BRANCH   5  15
ATOM     14  C   UNL     1       7.927   5.776  19.217  0.00  0.00    +0.000 C 
ATOM     15  O   UNL     1       6.700   5.047  19.158  0.00  0.00    +0.000 OA
ENDBRANCH   5  15
ENDBRANCH   1  10
BRANCH   3  16
ATOM     16  C   UNL     1       1.858   4.674  19.716  0.00  0.00    +0.000 C 
BRANCH  16  17
ATOM     17  C   UNL     1       1.956   5.678  20.864  0.00  0.00    +0.000 C 
BRANCH  17  18
ATOM     18  C   UNL     1       1.714   7.091  20.430  0.00  0.00    +0.000 A 
ATOM     19  N   UNL     1       2.067   7.588  19.267  0.00  0.00    +0.000 NA
ATOM     20  C   UNL     1       1.643   8.909  19.142  0.00  0.00    +0.000 A 
ATOM     21  C   UNL     1       1.949   9.598  17.856  0.00  0.00    +0.000 C 
ATOM     22  C   UNL     1       0.964   9.404  20.250  0.00  0.00    +0.000 A 
ATOM     23  S   UNL     1       0.877   8.179  21.455  0.00  0.00    +0.000 S 
BRANCH  22  24
ATOM     24  C   UNL     1       0.380  10.711  20.469  0.00  0.00    +0.000 C 
ATOM     25  O   UNL     1      -0.728  11.075  20.097  0.00  0.00    +0.000 OA
BRANCH  24  26
ATOM     26  O   UNL     1       1.201  11.553  21.160  0.00  0.00    +0.000 OA
ATOM     27  H   UNL     1       0.869  11.740  22.056  0.00  0.00    +0.000 HD
ENDBRANCH  24  26
ENDBRANCH  22  24
ENDBRANCH  17  18
ENDBRANCH  16  17
ENDBRANCH   3  16
TORSDOF 7
ENDMDL
MODEL 7
REMARK VINA RESULT:      -7.3      5.160      7.907
REMARK  Name = 
REMARK  9 active torsions:
REMARK  status: ('A' for Active; 'I' for Inactive)
REMARK    1  A    between atoms: C_1  and  O_2
REMARK    2  A    between atoms: O_2  and  C_3
REMARK    3  A    between atoms: C_8  and  C_9
REMARK    4  A    between atoms: N_11  and  C_12
REMARK    5  A    between atoms: C_12  and  C_13
REMARK    6  A    between atoms: C_13  and  C_14
REMARK    7  A    between atoms: C_16  and  C_17
REMARK    8  A    between atoms: C_18  and  C_19
REMARK    9  A    between atoms: C_19  and  O_21
REMARK                            x       y       z     vdW  Elec       q    Type
REMARK                         _______ _______ _______ _____ _____    ______ ____
ROOT
ATOM      1  C   UNL     1       7.212   7.145  17.318  0.00  0.00    +0.000 C 
ATOM      2  O   UNL     1       7.858   6.888  16.306  0.00  0.00    +0.000 OA
ATOM      3  N   UNL     1       7.393   8.315  18.020  0.00  0.00    +0.000 N 
ATOM      4  H   UNL     1       6.813   8.492  18.836  0.00  0.00    +0.000 HD
ENDROOT
BRANCH   1  10
ATOM      5  C   UNL     1       6.464   5.009  18.536  0.00  0.00    +0.000 A 
ATOM      6  N   UNL     1       5.516   4.131  18.959  0.00  0.00    +0.000 NA
ATOM      7  C   UNL     1       4.247   4.460  18.684  0.00  0.00    +0.000 A 
ATOM      8  C   UNL     1       3.862   5.616  18.033  0.00  0.00    +0.000 A 
ATOM      9  C   UNL     1       4.835   6.486  17.573  0.00  0.00    +0.000 A 
ATOM     10  C   UNL     1       6.186   6.178  17.811  0.00  0.00    +0.000 A 
ATOM     11  C   UNL     1       2.380   5.760  18.000  0.00  0.00    +0.000 C 
ATOM     12  C   UNL     1       1.895   4.373  18.452  0.00  0.00    +0.000 C 
ATOM     13  C   UNL     1       3.072   3.633  19.102  0.00  0.00    +0.000 C 
BRANCH   5  15
ATOM     14  C   UNL     1       8.196   5.378  20.049  0.00  0.00    +0.000 C 
ATOM     15  O   UNL     1       7.773   4.707  18.861  0.00  0.00    +0.000 OA
ENDBRANCH   5  15
ENDBRANCH   1  10
BRANCH   3  16
ATOM     16  C   UNL     1       8.330   9.346  17.606  0.00  0.00    +0.000 C 
BRANCH  16  17
ATOM     17  C   UNL     1       8.994  10.079  18.771  0.00  0.00    +0.000 C 
BRANCH  17  18
ATOM     18  C   UNL     1       9.597  11.391  18.373  0.00  0.00    +0.000 A 
ATOM     19  N   UNL     1      10.686  11.527  17.650  0.00  0.00    +0.000 NA
ATOM     20  C   UNL     1      10.948  12.871  17.396  0.00  0.00    +0.000 A 
ATOM     21  C   UNL     1      12.142  13.180  16.559  0.00  0.00    +0.000 C 
ATOM     22  C   UNL     1      10.030  13.754  17.954  0.00  0.00    +0.000 A 
ATOM     23  S   UNL     1       8.836  12.862  18.813  0.00  0.00    +0.000 S 
BRANCH  22  24
ATOM     24  C   UNL     1       9.981  15.200  17.891  0.00  0.00    +0.000 C 
ATOM     25  O   UNL     1      10.811  15.968  18.357  0.00  0.00    +0.000 OA
BRANCH  24  26
ATOM     26  O   UNL     1       8.879  15.667  17.236  0.00  0.00    +0.000 OA
ATOM     27  H   UNL     1       9.059  16.494  16.754  0.00  0.00    +0.000 HD
ENDBRANCH  24  26
ENDBRANCH  22  24
ENDBRANCH  17  18
ENDBRANCH  16  17
ENDBRANCH   3  16
TORSDOF 7
ENDMDL
MODEL 8
REMARK VINA RESULT:      -7.2      2.352      3.225
REMARK  Name = 
REMARK  9 active torsions:
REMARK  status: ('A' for Active; 'I' for Inactive)
REMARK    1  A    between atoms: C_1  and  O_2
REMARK    2  A    between atoms: O_2  and  C_3
REMARK    3  A    between atoms: C_8  and  C_9
REMARK    4  A    between atoms: N_11  and  C_12
REMARK    5  A    between atoms: C_12  and  C_13
REMARK    6  A    between atoms: C_13  and  C_14
REMARK    7  A    between atoms: C_16  and  C_17
REMARK    8  A    between atoms: C_18  and  C_19
REMARK    9  A    between atoms: C_19  and  O_21
REMARK                            x       y       z     vdW  Elec       q    Type
REMARK                         _______ _______ _______ _____ _____    ______ ____
ROOT
ATOM      1  C   UNL     1       4.200   5.862  17.677  0.00  0.00    +0.000 C 
ATOM      2  O   UNL     1       3.929   4.970  18.476  0.00  0.00    +0.000 OA
ATOM      3  N   UNL     1       3.620   7.108  17.752  0.00  0.00    +0.000 N 
ATOM      4  H   UNL     1       3.899   7.820  17.082  0.00  0.00    +0.000 HD
ENDROOT
BRANCH   1  10
ATOM      5  C   UNL     1       6.508   6.104  16.574  0.00  0.00    +0.000 A 
ATOM      6  N   UNL     1       7.393   5.879  15.565  0.00  0.00    +0.000 NA
ATOM      7  C   UNL     1       6.959   5.099  14.568  0.00  0.00    +0.000 A 
ATOM      8  C   UNL     1       5.709   4.514  14.518  0.00  0.00    +0.000 A 
ATOM      9  C   UNL     1       4.801   4.777  15.530  0.00  0.00    +0.000 A 
ATOM     10  C   UNL     1       5.195   5.611  16.591  0.00  0.00    +0.000 A 
ATOM     11  C   UNL     1       5.577   3.596  13.352  0.00  0.00    +0.000 C 
ATOM     12  C   UNL     1       6.820   3.935  12.512  0.00  0.00    +0.000 C 
ATOM     13  C   UNL     1       7.805   4.716  13.393  0.00  0.00    +0.000 C 
BRANCH   5  15
ATOM     14  C   UNL     1       7.682   6.076  18.585  0.00  0.00    +0.000 C 
ATOM     15  O   UNL     1       6.962   6.863  17.635  0.00  0.00    +0.000 OA
ENDBRANCH   5  15
ENDBRANCH   1  10
BRANCH   3  16
ATOM     16  C   UNL     1       2.674   7.476  18.792  0.00  0.00    +0.000 C 
BRANCH  16  17
ATOM     17  C   UNL     1       1.698   8.576  18.376  0.00  0.00    +0.000 C 
BRANCH  17  18
ATOM     18  C   UNL     1       1.196   9.384  19.533  0.00  0.00    +0.000 A 
ATOM     19  N   UNL     1       1.070  10.691  19.536  0.00  0.00    +0.000 NA
ATOM     20  C   UNL     1       0.516  11.134  20.735  0.00  0.00    +0.000 A 
ATOM     21  C   UNL     1       0.285  12.601  20.871  0.00  0.00    +0.000 C 
ATOM     22  C   UNL     1       0.232  10.125  21.647  0.00  0.00    +0.000 A 
ATOM     23  S   UNL     1       0.684   8.608  20.973  0.00  0.00    +0.000 S 
BRANCH  22  24
ATOM     24  C   UNL     1      -0.349  10.210  22.971  0.00  0.00    +0.000 C 
ATOM     25  O   UNL     1      -1.397  10.771  23.262  0.00  0.00    +0.000 OA
BRANCH  24  26
ATOM     26  O   UNL     1       0.402   9.585  23.924  0.00  0.00    +0.000 OA
ATOM     27  H   UNL     1       1.037  10.189  24.348  0.00  0.00    +0.000 HD
ENDBRANCH  24  26
ENDBRANCH  22  24
ENDBRANCH  17  18
ENDBRANCH  16  17
ENDBRANCH   3  16
TORSDOF 7
ENDMDL
MODEL 9
REMARK VINA RESULT:      -7.2      2.379      7.023
REMARK  Name = 
REMARK  9 active torsions:
REMARK  status: ('A' for Active; 'I' for Inactive)
REMARK    1  A    between atoms: C_1  and  O_2
REMARK    2  A    between atoms: O_2  and  C_3
REMARK    3  A    between atoms: C_8  and  C_9
REMARK    4  A    between atoms: N_11  and  C_12
REMARK    5  A    between atoms: C_12  and  C_13
REMARK    6  A    between atoms: C_13  and  C_14
REMARK    7  A    between atoms: C_16  and  C_17
REMARK    8  A    between atoms: C_18  and  C_19
REMARK    9  A    between atoms: C_19  and  O_21
REMARK                            x       y       z     vdW  Elec       q    Type
REMARK                         _______ _______ _______ _____ _____    ______ ____
ROOT
ATOM      1  C   UNL     1       1.823   5.138  20.494  0.00  0.00    +0.000 C 
ATOM      2  O   UNL     1       2.301   4.695  21.535  0.00  0.00    +0.000 OA
ATOM      3  N   UNL     1       1.481   4.317  19.443  0.00  0.00    +0.000 N 
ATOM      4  H   UNL     1       1.063   4.732  18.613  0.00  0.00    +0.000 HD
ENDROOT
BRANCH   1  10
ATOM      5  C   UNL     1       1.949   7.375  19.235  0.00  0.00    +0.000 A 
ATOM      6  N   UNL     1       1.741   8.715  19.133  0.00  0.00    +0.000 NA
ATOM      7  C   UNL     1       1.107   9.290  20.163  0.00  0.00    +0.000 A 
ATOM      8  C   UNL     1       0.652   8.614  21.278  0.00  0.00    +0.000 A 
ATOM      9  C   UNL     1       0.900   7.257  21.392  0.00  0.00    +0.000 A 
ATOM     10  C   UNL     1       1.585   6.606  20.351  0.00  0.00    +0.000 A 
ATOM     11  C   UNL     1      -0.131   9.505  22.180  0.00  0.00    +0.000 C 
ATOM     12  C   UNL     1       0.169  10.904  21.616  0.00  0.00    +0.000 C 
ATOM     13  C   UNL     1       0.762  10.746  20.209  0.00  0.00    +0.000 C 
BRANCH   5  15
ATOM     14  C   UNL     1       3.589   7.569  17.592  0.00  0.00    +0.000 C 
ATOM     15  O   UNL     1       2.554   6.760  18.155  0.00  0.00    +0.000 OA
ENDBRANCH   5  15
ENDBRANCH   1  10
BRANCH   3  16
ATOM     16  C   UNL     1       1.628   2.873  19.490  0.00  0.00    +0.000 C 
BRANCH  16  17
ATOM     17  C   UNL     1       2.422   2.295  18.320  0.00  0.00    +0.000 C 
BRANCH  17  18
ATOM     18  C   UNL     1       3.630   3.108  17.971  0.00  0.00    +0.000 A 
ATOM     19  N   UNL     1       3.880   3.608  16.782  0.00  0.00    +0.000 NA
ATOM     20  C   UNL     1       5.045   4.370  16.799  0.00  0.00    +0.000 A 
ATOM     21  C   UNL     1       5.441   5.027  15.520  0.00  0.00    +0.000 C 
ATOM     22  C   UNL     1       5.680   4.428  18.034  0.00  0.00    +0.000 A 
ATOM     23  S   UNL     1       4.787   3.498  19.174  0.00  0.00    +0.000 S 
BRANCH  22  24
ATOM     24  C   UNL     1       6.890   5.123  18.421  0.00  0.00    +0.000 C 
ATOM     25  O   UNL     1       7.776   5.499  17.666  0.00  0.00    +0.000 OA
BRANCH  24  26
ATOM     26  O   UNL     1       6.975   5.338  19.766  0.00  0.00    +0.000 OA
ATOM     27  H   UNL     1       6.126   5.622  20.148  0.00  0.00    +0.000 HD
ENDBRANCH  24  26
ENDBRANCH  22  24
ENDBRANCH  17  18
ENDBRANCH  16  17
ENDBRANCH   3  16
TORSDOF 7
ENDMDL
