MODEL 1
REMARK VINA RESULT:      -8.4      0.000      0.000
REMARK  Name = 
REMARK  7 active torsions:
REMARK  status: ('A' for Active; 'I' for Inactive)
REMARK    1  A    between atoms: C_2  and  C_3
REMARK    2  A    between atoms: C_8  and  O_9
REMARK    3  A    between atoms: O_9  and  C_10
REMARK    4  A    between atoms: N_14  and  C_15
REMARK    5  A    between atoms: C_19  and  C_20
REMARK    6  A    between atoms: C_27  and  O_28
REMARK    7  A    between atoms: O_28  and  C_29
REMARK                            x       y       z     vdW  Elec       q    Type
REMARK                         _______ _______ _______ _____ _____    ______ ____
ROOT
ATOM      1  C   UNL     1       2.396   6.950  18.827  0.00  0.00    +0.000 A 
ATOM      2  C   UNL     1       2.129   8.313  18.698  0.00  0.00    +0.000 A 
ATOM      3  C   UNL     1       1.458   9.050  19.711  0.00  0.00    +0.000 A 
ATOM      4  C   UNL     1       1.180  10.425  19.643  0.00  0.00    +0.000 A 
ATOM      5  N   UNL     1       1.568  11.163  18.487  0.00  0.00    +0.000 N 
ATOM      6  N   UNL     1       0.554  11.075  20.641  0.00  0.00    +0.000 NA
ATOM      7  C   UNL     1       0.201  10.355  21.707  0.00  0.00    +0.000 A 
ATOM      8  N   UNL     1       0.420   9.047  21.877  0.00  0.00    +0.000 NA
ATOM      9  C   UNL     1       1.053   8.406  20.887  0.00  0.00    +0.000 A 
ATOM     10  C   UNL     1       1.353   7.062  21.028  0.00  0.00    +0.000 A 
ATOM     11  C   UNL     1       2.047   6.340  20.040  0.00  0.00    +0.000 A 
ATOM     12  H   UNL     1       1.092  10.791  17.672  0.00  0.00    +0.000 HD
ENDROOT
BRANCH   5  13
ATOM     13  C   UNL     1       1.667  12.572  18.462  0.00  0.00    +0.000 A 
ATOM     14  C   UNL     1       2.904  13.188  18.232  0.00  0.00    +0.000 A 
ATOM     15  C   UNL     1       3.040  14.571  18.298  0.00  0.00    +0.000 A 
ATOM     16  C   UNL     1       1.931  15.363  18.581  0.00  0.00    +0.000 A 
ATOM     17  C   UNL     1       0.673  14.776  18.770  0.00  0.00    +0.000 A 
ATOM     18  C   UNL     1      -0.520  15.627  19.093  0.00  0.00    +0.000 C 
ATOM     19  C   UNL     1       0.545  13.380  18.691  0.00  0.00    +0.000 A 
ENDBRANCH   5  13
BRANCH  11  20
ATOM     20  O   UNL     1       2.286   5.026  20.362  0.00  0.00    +0.000 OA
ATOM     21  C   UNL     1       1.146   4.179  20.223  0.00  0.00    +0.000 C 
ENDBRANCH  11  20
BRANCH   1  22
ATOM     22  O   UNL     1       2.983   6.173  17.860  0.00  0.00    +0.000 OA
BRANCH  22  28
ATOM     23  C   UNL     1       6.548   4.783  14.591  0.00  0.00    +0.000 C 
ATOM     24  O   UNL     1       7.438   5.587  14.312  0.00  0.00    +0.000 OA
ATOM     25  N   UNL     1       5.650   5.008  15.632  0.00  0.00    +0.000 N 
ATOM     26  C   UNL     1       5.686   6.333  16.252  0.00  0.00    +0.000 C 
ATOM     27  C   UNL     1       5.418   6.290  17.751  0.00  0.00    +0.000 C 
ATOM     28  C   UNL     1       4.195   5.456  18.134  0.00  0.00    +0.000 C 
ATOM     29  C   UNL     1       4.163   4.122  17.386  0.00  0.00    +0.000 C 
ATOM     30  C   UNL     1       4.420   4.260  15.891  0.00  0.00    +0.000 C 
BRANCH  23  32
ATOM     31  C   UNL     1       6.198   3.589  12.483  0.00  0.00    +0.000 C 
ATOM     32  C   UNL     1       6.439   3.524  13.800  0.00  0.00    +0.000 C 
ENDBRANCH  23  32
ENDBRANCH  22  28
ENDBRANCH   1  22
TORSDOF 5
ENDMDL
MODEL 2
REMARK VINA RESULT:      -8.3      0.388      1.195
REMARK  Name = 
REMARK  7 active torsions:
REMARK  status: ('A' for Active; 'I' for Inactive)
REMARK    1  A    between atoms: C_2  and  C_3
REMARK    2  A    between atoms: C_8  and  O_9
REMARK    3  A    between atoms: O_9  and  C_10
REMARK    4  A    between atoms: N_14  and  C_15
REMARK    5  A    between atoms: C_19  and  C_20
REMARK    6  A    between atoms: C_27  and  O_28
REMARK    7  A    between atoms: O_28  and  C_29
REMARK                            x       y       z     vdW  Elec       q    Type
REMARK                         _______ _______ _______ _____ _____    ______ ____
ROOT
ATOM      1  C   UNL     1       2.464   7.019  18.818  0.00  0.00    +0.000 A 
ATOM      2  C   UNL     1       2.083   8.358  18.738  0.00  0.00    +0.000 A 
ATOM      3  C   UNL     1       1.374   9.005  19.785  0.00  0.00    +0.000 A 
ATOM      4  C   UNL     1       0.982  10.354  19.766  0.00  0.00    +0.000 A 
ATOM      5  N   UNL     1       1.285  11.157  18.628  0.00  0.00    +0.000 N 
ATOM      6  N   UNL     1       0.325  10.919  20.795  0.00  0.00    +0.000 NA
ATOM      7  C   UNL     1       0.053  10.140  21.843  0.00  0.00    +0.000 A 
ATOM      8  N   UNL     1       0.383   8.850  21.967  0.00  0.00    +0.000 NA
ATOM      9  C   UNL     1       1.046   8.295  20.947  0.00  0.00    +0.000 A 
ATOM     10  C   UNL     1       1.459   6.976  21.039  0.00  0.00    +0.000 A 
ATOM     11  C   UNL     1       2.189   6.344  20.016  0.00  0.00    +0.000 A 
ATOM     12  H   UNL     1       0.825  10.771  17.810  0.00  0.00    +0.000 HD
ENDROOT
BRANCH   5  13
ATOM     13  C   UNL     1       1.267  12.569  18.646  0.00  0.00    +0.000 A 
ATOM     14  C   UNL     1       0.048  13.259  18.644  0.00  0.00    +0.000 A 
ATOM     15  C   UNL     1       0.009  14.648  18.565  0.00  0.00    +0.000 A 
ATOM     16  C   UNL     1       1.197  15.370  18.502  0.00  0.00    +0.000 A 
ATOM     17  C   UNL     1       2.430  14.709  18.549  0.00  0.00    +0.000 A 
ATOM     18  C   UNL     1       3.712  15.485  18.463  0.00  0.00    +0.000 C 
ATOM     19  C   UNL     1       2.458  13.307  18.639  0.00  0.00    +0.000 A 
ENDBRANCH   5  13
BRANCH  11  20
ATOM     20  O   UNL     1       2.543   5.046  20.292  0.00  0.00    +0.000 OA
ATOM     21  C   UNL     1       1.435   4.149  20.370  0.00  0.00    +0.000 C 
ENDBRANCH  11  20
BRANCH   1  22
ATOM     22  O   UNL     1       3.093   6.322  17.816  0.00  0.00    +0.000 OA
BRANCH  22  28
ATOM     23  C   UNL     1       6.609   4.810  14.549  0.00  0.00    +0.000 C 
ATOM     24  O   UNL     1       7.532   5.579  14.278  0.00  0.00    +0.000 OA
ATOM     25  N   UNL     1       5.718   5.065  15.590  0.00  0.00    +0.000 N 
ATOM     26  C   UNL     1       5.805   6.384  16.217  0.00  0.00    +0.000 C 
ATOM     27  C   UNL     1       5.531   6.342  17.715  0.00  0.00    +0.000 C 
ATOM     28  C   UNL     1       4.274   5.556  18.089  0.00  0.00    +0.000 C 
ATOM     29  C   UNL     1       4.192   4.229  17.334  0.00  0.00    +0.000 C 
ATOM     30  C   UNL     1       4.459   4.364  15.841  0.00  0.00    +0.000 C 
BRANCH  23  32
ATOM     31  C   UNL     1       6.305   3.640  12.421  0.00  0.00    +0.000 C 
ATOM     32  C   UNL     1       6.453   3.561  13.751  0.00  0.00    +0.000 C 
ENDBRANCH  23  32
ENDBRANCH  22  28
ENDBRANCH   1  22
TORSDOF 5
ENDMDL
MODEL 3
REMARK VINA RESULT:      -7.7      2.395      8.950
REMARK  Name = 
REMARK  7 active torsions:
REMARK  status: ('A' for Active; 'I' for Inactive)
REMARK    1  A    between atoms: C_2  and  C_3
REMARK    2  A    between atoms: C_8  and  O_9
REMARK    3  A    between atoms: O_9  and  C_10
REMARK    4  A    between atoms: N_14  and  C_15
REMARK    5  A    between atoms: C_19  and  C_20
REMARK    6  A    between atoms: C_27  and  O_28
REMARK    7  A    between atoms: O_28  and  C_29
REMARK                            x       y       z     vdW  Elec       q    Type
REMARK                         _______ _______ _______ _____ _____    ______ ____
ROOT
ATOM      1  C   UNL     1       2.588   7.502  18.902  0.00  0.00    +0.000 A 
ATOM      2  C   UNL     1       3.425   6.889  17.970  0.00  0.00    +0.000 A 
ATOM      3  C   UNL     1       3.673   5.490  17.984  0.00  0.00    +0.000 A 
ATOM      4  C   UNL     1       4.490   4.817  17.061  0.00  0.00    +0.000 A 
ATOM      5  N   UNL     1       5.145   5.557  16.034  0.00  0.00    +0.000 N 
ATOM      6  N   UNL     1       4.677   3.486  17.113  0.00  0.00    +0.000 NA
ATOM      7  C   UNL     1       4.052   2.823  18.088  0.00  0.00    +0.000 A 
ATOM      8  N   UNL     1       3.251   3.361  19.013  0.00  0.00    +0.000 NA
ATOM      9  C   UNL     1       3.058   4.684  18.951  0.00  0.00    +0.000 A 
ATOM     10  C   UNL     1       2.199   5.291  19.851  0.00  0.00    +0.000 A 
ATOM     11  C   UNL     1       1.927   6.670  19.817  0.00  0.00    +0.000 A 
ATOM     12  H   UNL     1       5.777   6.231  16.454  0.00  0.00    +0.000 HD
ENDROOT
BRANCH   5  13
ATOM     13  C   UNL     1       5.679   4.964  14.869  0.00  0.00    +0.000 A 
ATOM     14  C   UNL     1       7.051   5.055  14.596  0.00  0.00    +0.000 A 
ATOM     15  C   UNL     1       7.580   4.561  13.408  0.00  0.00    +0.000 A 
ATOM     16  C   UNL     1       6.743   3.953  12.478  0.00  0.00    +0.000 A 
ATOM     17  C   UNL     1       5.376   3.808  12.745  0.00  0.00    +0.000 A 
ATOM     18  C   UNL     1       4.469   3.168  11.734  0.00  0.00    +0.000 C 
ATOM     19  C   UNL     1       4.854   4.301  13.952  0.00  0.00    +0.000 A 
ENDBRANCH   5  13
BRANCH  11  20
ATOM     20  O   UNL     1       1.026   7.094  20.764  0.00  0.00    +0.000 OA
ATOM     21  C   UNL     1       1.479   8.203  21.538  0.00  0.00    +0.000 C 
ENDBRANCH  11  20
BRANCH   1  22
ATOM     22  O   UNL     1       2.359   8.854  18.979  0.00  0.00    +0.000 OA
BRANCH  22  28
ATOM     23  C   UNL     1      -0.776  12.782  19.229  0.00  0.00    +0.000 C 
ATOM     24  O   UNL     1      -0.298  13.915  19.292  0.00  0.00    +0.000 OA
ATOM     25  N   UNL     1       0.008  11.665  18.949  0.00  0.00    +0.000 N 
ATOM     26  C   UNL     1       1.457  11.870  18.932  0.00  0.00    +0.000 C 
ATOM     27  C   UNL     1       2.159  11.023  17.878  0.00  0.00    +0.000 C 
ATOM     28  C   UNL     1       1.738   9.553  17.891  0.00  0.00    +0.000 C 
ATOM     29  C   UNL     1       0.221   9.399  18.003  0.00  0.00    +0.000 C 
ATOM     30  C   UNL     1      -0.396  10.267  19.093  0.00  0.00    +0.000 C 
BRANCH  23  32
ATOM     31  C   UNL     1      -2.735  12.622  20.687  0.00  0.00    +0.000 C 
ATOM     32  C   UNL     1      -2.241  12.604  19.441  0.00  0.00    +0.000 C 
ENDBRANCH  23  32
ENDBRANCH  22  28
ENDBRANCH   1  22
TORSDOF 5
ENDMDL
MODEL 4
REMARK VINA RESULT:      -7.7      4.672      9.410
REMARK  Name = 
REMARK  7 active torsions:
REMARK  status: ('A' for Active; 'I' for Inactive)
REMARK    1  A    between atoms: C_2  and  C_3
REMARK    2  A    between atoms: C_8  and  O_9
REMARK    3  A    between atoms: O_9  and  C_10
REMARK    4  A    between atoms: N_14  and  C_15
REMARK    5  A    between atoms: C_19  and  C_20
REMARK    6  A    between atoms: C_27  and  O_28
REMARK    7  A    between atoms: O_28  and  C_29
REMARK                            x       y       z     vdW  Elec       q    Type
REMARK                         _______ _______ _______ _____ _____    ______ ____
ROOT
ATOM      1  C   UNL     1      -1.061  11.026  18.541  0.00  0.00    +0.000 A 
ATOM      2  C   UNL     1      -0.164   9.986  18.785  0.00  0.00    +0.000 A 
ATOM      3  C   UNL     1       0.368   9.736  20.077  0.00  0.00    +0.000 A 
ATOM      4  C   UNL     1       1.258   8.693  20.383  0.00  0.00    +0.000 A 
ATOM      5  N   UNL     1       1.693   7.815  19.349  0.00  0.00    +0.000 N 
ATOM      6  N   UNL     1       1.719   8.494  21.632  0.00  0.00    +0.000 NA
ATOM      7  C   UNL     1       1.297   9.335  22.577  0.00  0.00    +0.000 A 
ATOM      8  N   UNL     1       0.450  10.354  22.397  0.00  0.00    +0.000 NA
ATOM      9  C   UNL     1      -0.016  10.542  21.157  0.00  0.00    +0.000 A 
ATOM     10  C   UNL     1      -0.935  11.550  20.919  0.00  0.00    +0.000 A 
ATOM     11  C   UNL     1      -1.487  11.777  19.645  0.00  0.00    +0.000 A 
ATOM     12  H   UNL     1       2.192   8.345  18.643  0.00  0.00    +0.000 HD
ENDROOT
BRANCH   5  13
ATOM     13  C   UNL     1       2.278   6.553  19.595  0.00  0.00    +0.000 A 
ATOM     14  C   UNL     1       3.545   6.250  19.079  0.00  0.00    +0.000 A 
ATOM     15  C   UNL     1       4.096   4.981  19.229  0.00  0.00    +0.000 A 
ATOM     16  C   UNL     1       3.391   3.997  19.914  0.00  0.00    +0.000 A 
ATOM     17  C   UNL     1       2.142   4.286  20.479  0.00  0.00    +0.000 A 
ATOM     18  C   UNL     1       1.372   3.220  21.203  0.00  0.00    +0.000 C 
ATOM     19  C   UNL     1       1.600   5.573  20.331  0.00  0.00    +0.000 A 
ENDBRANCH   5  13
BRANCH  11  20
ATOM     20  O   UNL     1      -2.407  12.797  19.601  0.00  0.00    +0.000 OA
ATOM     21  C   UNL     1      -3.046  13.054  20.850  0.00  0.00    +0.000 C 
ENDBRANCH  11  20
BRANCH   1  22
ATOM     22  O   UNL     1      -1.560  11.356  17.306  0.00  0.00    +0.000 OA
BRANCH  22  28
ATOM     23  C   UNL     1      -6.507  11.047  18.178  0.00  0.00    +0.000 C 
ATOM     24  O   UNL     1      -7.258  11.835  17.602  0.00  0.00    +0.000 OA
ATOM     25  N   UNL     1      -5.161  10.928  17.839  0.00  0.00    +0.000 N 
ATOM     26  C   UNL     1      -4.632  11.922  16.903  0.00  0.00    +0.000 C 
ATOM     27  C   UNL     1      -3.592  11.341  15.953  0.00  0.00    +0.000 C 
ATOM     28  C   UNL     1      -2.516  10.509  16.653  0.00  0.00    +0.000 C 
ATOM     29  C   UNL     1      -3.120   9.555  17.685  0.00  0.00    +0.000 C 
ATOM     30  C   UNL     1      -4.135  10.222  18.605  0.00  0.00    +0.000 C 
BRANCH  23  32
ATOM     31  C   UNL     1      -7.392  10.730  20.439  0.00  0.00    +0.000 C 
ATOM     32  C   UNL     1      -7.060  10.183  19.260  0.00  0.00    +0.000 C 
ENDBRANCH  23  32
ENDBRANCH  22  28
ENDBRANCH   1  22
TORSDOF 5
ENDMDL
MODEL 5
REMARK VINA RESULT:      -7.3      4.180      7.064
REMARK  Name = 
REMARK  7 active torsions:
REMARK  status: ('A' for Active; 'I' for Inactive)
REMARK    1  A    between atoms: C_2  and  C_3
REMARK    2  A    between atoms: C_8  and  O_9
REMARK    3  A    between atoms: O_9  and  C_10
REMARK    4  A    between atoms: N_14  and  C_15
REMARK    5  A    between atoms: C_19  and  C_20
REMARK    6  A    between atoms: C_27  and  O_28
REMARK    7  A    between atoms: O_28  and  C_29
REMARK                            x       y       z     vdW  Elec       q    Type
REMARK                         _______ _______ _______ _____ _____    ______ ____
ROOT
ATOM      1  C   UNL     1       1.173  12.257  20.368  0.00  0.00    +0.000 A 
ATOM      2  C   UNL     1      -0.003  12.305  21.118  0.00  0.00    +0.000 A 
ATOM      3  C   UNL     1      -0.301  13.391  21.984  0.00  0.00    +0.000 A 
ATOM      4  C   UNL     1      -1.475  13.501  22.747  0.00  0.00    +0.000 A 
ATOM      5  N   UNL     1      -2.451  12.465  22.687  0.00  0.00    +0.000 N 
ATOM      6  N   UNL     1      -1.712  14.562  23.540  0.00  0.00    +0.000 NA
ATOM      7  C   UNL     1      -0.777  15.513  23.578  0.00  0.00    +0.000 A 
ATOM      8  N   UNL     1       0.370  15.511  22.891  0.00  0.00    +0.000 NA
ATOM      9  C   UNL     1       0.597  14.460  22.095  0.00  0.00    +0.000 A 
ATOM     10  C   UNL     1       1.745  14.427  21.321  0.00  0.00    +0.000 A 
ATOM     11  C   UNL     1       2.024  13.368  20.438  0.00  0.00    +0.000 A 
ATOM     12  H   UNL     1      -2.043  11.596  23.016  0.00  0.00    +0.000 HD
ENDROOT
BRANCH   5  13
ATOM     13  C   UNL     1      -3.788  12.630  23.110  0.00  0.00    +0.000 A 
ATOM     14  C   UNL     1      -4.161  12.297  24.419  0.00  0.00    +0.000 A 
ATOM     15  C   UNL     1      -5.490  12.363  24.826  0.00  0.00    +0.000 A 
ATOM     16  C   UNL     1      -6.468  12.779  23.929  0.00  0.00    +0.000 A 
ATOM     17  C   UNL     1      -6.118  13.162  22.628  0.00  0.00    +0.000 A 
ATOM     18  C   UNL     1      -7.175  13.594  21.654  0.00  0.00    +0.000 C 
ATOM     19  C   UNL     1      -4.772  13.101  22.231  0.00  0.00    +0.000 A 
ENDBRANCH   5  13
BRANCH  11  20
ATOM     20  O   UNL     1       3.190  13.517  19.727  0.00  0.00    +0.000 OA
ATOM     21  C   UNL     1       3.164  14.595  18.793  0.00  0.00    +0.000 C 
ENDBRANCH  11  20
BRANCH   1  22
ATOM     22  O   UNL     1       1.545  11.208  19.564  0.00  0.00    +0.000 OA
BRANCH  22  28
ATOM     23  C   UNL     1       2.342   6.240  19.601  0.00  0.00    +0.000 C 
ATOM     24  O   UNL     1       2.203   5.628  20.661  0.00  0.00    +0.000 OA
ATOM     25  N   UNL     1       1.943   7.567  19.457  0.00  0.00    +0.000 N 
ATOM     26  C   UNL     1       1.535   8.263  20.678  0.00  0.00    +0.000 C 
ATOM     27  C   UNL     1       0.393   9.244  20.442  0.00  0.00    +0.000 C 
ATOM     28  C   UNL     1       0.613  10.167  19.243  0.00  0.00    +0.000 C 
ATOM     29  C   UNL     1       1.127   9.398  18.024  0.00  0.00    +0.000 C 
ATOM     30  C   UNL     1       2.280   8.456  18.346  0.00  0.00    +0.000 C 
BRANCH  23  32
ATOM     31  C   UNL     1       2.198   4.657  17.739  0.00  0.00    +0.000 C 
ATOM     32  C   UNL     1       2.940   5.533  18.433  0.00  0.00    +0.000 C 
ENDBRANCH  23  32
ENDBRANCH  22  28
ENDBRANCH   1  22
TORSDOF 5
ENDMDL
MODEL 6
REMARK VINA RESULT:      -7.3      4.741      9.386
REMARK  Name = 
REMARK  7 active torsions:
REMARK  status: ('A' for Active; 'I' for Inactive)
REMARK    1  A    between atoms: C_2  and  C_3
REMARK    2  A    between atoms: C_8  and  O_9
REMARK    3  A    between atoms: O_9  and  C_10
REMARK    4  A    between atoms: N_14  and  C_15
REMARK    5  A    between atoms: C_19  and  C_20
REMARK    6  A    between atoms: C_27  and  O_28
REMARK    7  A    between atoms: O_28  and  C_29
REMARK                            x       y       z     vdW  Elec       q    Type
REMARK                         _______ _______ _______ _____ _____    ______ ____
ROOT
ATOM      1  C   UNL     1      -1.134  11.051  18.312  0.00  0.00    +0.000 A 
ATOM      2  C   UNL     1      -0.158  10.056  18.241  0.00  0.00    +0.000 A 
ATOM      3  C   UNL     1       0.519   9.580  19.396  0.00  0.00    +0.000 A 
ATOM      4  C   UNL     1       1.495   8.570  19.386  0.00  0.00    +0.000 A 
ATOM      5  N   UNL     1       1.870   7.968  18.150  0.00  0.00    +0.000 N 
ATOM      6  N   UNL     1       2.093   8.147  20.514  0.00  0.00    +0.000 NA
ATOM      7  C   UNL     1       1.723   8.733  21.654  0.00  0.00    +0.000 A 
ATOM      8  N   UNL     1       0.805   9.696  21.778  0.00  0.00    +0.000 NA
ATOM      9  C   UNL     1       0.204  10.107  20.655  0.00  0.00    +0.000 A 
ATOM     10  C   UNL     1      -0.792  11.067  20.726  0.00  0.00    +0.000 A 
ATOM     11  C   UNL     1      -1.486  11.515  19.588  0.00  0.00    +0.000 A 
ATOM     12  H   UNL     1       2.261   8.673  17.535  0.00  0.00    +0.000 HD
ENDROOT
BRANCH   5  13
ATOM     13  C   UNL     1       2.548   6.732  18.061  0.00  0.00    +0.000 A 
ATOM     14  C   UNL     1       3.921   6.700  17.781  0.00  0.00    +0.000 A 
ATOM     15  C   UNL     1       4.587   5.493  17.595  0.00  0.00    +0.000 A 
ATOM     16  C   UNL     1       3.889   4.294  17.702  0.00  0.00    +0.000 A 
ATOM     17  C   UNL     1       2.526   4.296  18.025  0.00  0.00    +0.000 A 
ATOM     18  C   UNL     1       1.768   3.004  18.122  0.00  0.00    +0.000 C 
ATOM     19  C   UNL     1       1.866   5.520  18.221  0.00  0.00    +0.000 A 
ENDBRANCH   5  13
BRANCH  11  20
ATOM     20  O   UNL     1      -2.462  12.445  19.849  0.00  0.00    +0.000 OA
ATOM     21  C   UNL     1      -2.705  12.653  21.240  0.00  0.00    +0.000 C 
ENDBRANCH  11  20
BRANCH   1  22
ATOM     22  O   UNL     1      -1.776  11.595  17.228  0.00  0.00    +0.000 OA
BRANCH  22  28
ATOM     23  C   UNL     1      -6.633  10.857  18.320  0.00  0.00    +0.000 C 
ATOM     24  O   UNL     1      -7.456  11.694  17.947  0.00  0.00    +0.000 OA
ATOM     25  N   UNL     1      -5.309  10.877  17.885  0.00  0.00    +0.000 N 
ATOM     26  C   UNL     1      -4.890  12.053  17.121  0.00  0.00    +0.000 C 
ATOM     27  C   UNL     1      -3.894  11.714  16.020  0.00  0.00    +0.000 C 
ATOM     28  C   UNL     1      -2.737  10.830  16.487  0.00  0.00    +0.000 C 
ATOM     29  C   UNL     1      -3.226   9.671  17.357  0.00  0.00    +0.000 C 
ATOM     30  C   UNL     1      -4.203  10.101  18.444  0.00  0.00    +0.000 C 
BRANCH  23  32
ATOM     31  C   UNL     1      -7.467  10.101  20.494  0.00  0.00    +0.000 C 
ATOM     32  C   UNL     1      -7.072   9.780  19.253  0.00  0.00    +0.000 C 
ENDBRANCH  23  32
ENDBRANCH  22  28
ENDBRANCH   1  22
TORSDOF 5
ENDMDL
MODEL 7
REMARK VINA RESULT:      -7.3      2.716      8.696
REMARK  Name = 
REMARK  7 active torsions:
REMARK  status: ('A' for Active; 'I' for Inactive)
REMARK    1  A    between atoms: C_2  and  C_3
REMARK    2  A    between atoms: C_8  and  O_9
REMARK    3  A    between atoms: O_9  and  C_10
REMARK    4  A    between atoms: N_14  and  C_15
REMARK    5  A    between atoms: C_19  and  C_20
REMARK    6  A    between atoms: C_27  and  O_28
REMARK    7  A    between atoms: O_28  and  C_29
REMARK                            x       y       z     vdW  Elec       q    Type
REMARK                         _______ _______ _______ _____ _____    ______ ____
ROOT
ATOM      1  C   UNL     1       1.443   8.731  20.084  0.00  0.00    +0.000 A 
ATOM      2  C   UNL     1       2.468   7.976  19.512  0.00  0.00    +0.000 A 
ATOM      3  C   UNL     1       2.615   6.587  19.770  0.00  0.00    +0.000 A 
ATOM      4  C   UNL     1       3.614   5.775  19.209  0.00  0.00    +0.000 A 
ATOM      5  N   UNL     1       4.575   6.351  18.329  0.00  0.00    +0.000 N 
ATOM      6  N   UNL     1       3.696   4.459  19.477  0.00  0.00    +0.000 NA
ATOM      7  C   UNL     1       2.784   3.950  20.309  0.00  0.00    +0.000 A 
ATOM      8  N   UNL     1       1.791   4.629  20.892  0.00  0.00    +0.000 NA
ATOM      9  C   UNL     1       1.706   5.935  20.614  0.00  0.00    +0.000 A 
ATOM     10  C   UNL     1       0.669   6.680  21.149  0.00  0.00    +0.000 A 
ATOM     11  C   UNL     1       0.503   8.048  20.868  0.00  0.00    +0.000 A 
ATOM     12  H   UNL     1       5.105   7.060  18.824  0.00  0.00    +0.000 HD
ENDROOT
BRANCH   5  13
ATOM     13  C   UNL     1       5.375   5.592  17.447  0.00  0.00    +0.000 A 
ATOM     14  C   UNL     1       6.671   5.211  17.821  0.00  0.00    +0.000 A 
ATOM     15  C   UNL     1       7.509   4.546  16.931  0.00  0.00    +0.000 A 
ATOM     16  C   UNL     1       7.054   4.238  15.653  0.00  0.00    +0.000 A 
ATOM     17  C   UNL     1       5.748   4.566  15.268  0.00  0.00    +0.000 A 
ATOM     18  C   UNL     1       5.263   4.250  13.883  0.00  0.00    +0.000 C 
ATOM     19  C   UNL     1       4.908   5.228  16.178  0.00  0.00    +0.000 A 
ENDBRANCH   5  13
BRANCH  11  20
ATOM     20  O   UNL     1      -0.598   8.619  21.458  0.00  0.00    +0.000 OA
ATOM     21  C   UNL     1      -0.339   9.185  22.742  0.00  0.00    +0.000 C 
ENDBRANCH  11  20
BRANCH   1  22
ATOM     22  O   UNL     1       1.287  10.086  19.924  0.00  0.00    +0.000 OA
BRANCH  22  28
ATOM     23  C   UNL     1       0.978  14.949  18.667  0.00  0.00    +0.000 C 
ATOM     24  O   UNL     1       2.015  15.554  18.392  0.00  0.00    +0.000 OA
ATOM     25  N   UNL     1       0.950  13.564  18.820  0.00  0.00    +0.000 N 
ATOM     26  C   UNL     1       2.245  12.882  18.838  0.00  0.00    +0.000 C 
ATOM     27  C   UNL     1       2.198  11.515  18.167  0.00  0.00    +0.000 C 
ATOM     28  C   UNL     1       1.029  10.643  18.627  0.00  0.00    +0.000 C 
ATOM     29  C   UNL     1      -0.280  11.433  18.678  0.00  0.00    +0.000 C 
ATOM     30  C   UNL     1      -0.148  12.778  19.381  0.00  0.00    +0.000 C 
BRANCH  23  32
ATOM     31  C   UNL     1      -0.244  16.977  19.288  0.00  0.00    +0.000 C 
ATOM     32  C   UNL     1      -0.288  15.720  18.823  0.00  0.00    +0.000 C 
ENDBRANCH  23  32
ENDBRANCH  22  28
ENDBRANCH   1  22
TORSDOF 5
ENDMDL
MODEL 8
REMARK VINA RESULT:      -7.2      1.624      2.588
REMARK  Name = 
REMARK  7 active torsions:
REMARK  status: ('A' for Active; 'I' for Inactive)
REMARK    1  A    between atoms: C_2  and  C_3
REMARK    2  A    between atoms: C_8  and  O_9
REMARK    3  A    between atoms: O_9  and  C_10
REMARK    4  A    between atoms: N_14  and  C_15
REMARK    5  A    between atoms: C_19  and  C_20
REMARK    6  A    between atoms: C_27  and  O_28
REMARK    7  A    between atoms: O_28  and  C_29
REMARK                            x       y       z     vdW  Elec       q    Type
REMARK                         _______ _______ _______ _____ _____    ______ ____
ROOT
ATOM      1  C   UNL     1       4.303   6.283  17.669  0.00  0.00    +0.000 A 
ATOM      2  C   UNL     1       3.480   7.404  17.778  0.00  0.00    +0.000 A 
ATOM      3  C   UNL     1       2.582   7.579  18.866  0.00  0.00    +0.000 A 
ATOM      4  C   UNL     1       1.746   8.694  19.036  0.00  0.00    +0.000 A 
ATOM      5  N   UNL     1       1.757   9.735  18.064  0.00  0.00    +0.000 N 
ATOM      6  N   UNL     1       0.925   8.813  20.096  0.00  0.00    +0.000 NA
ATOM      7  C   UNL     1       0.935   7.819  20.986  0.00  0.00    +0.000 A 
ATOM      8  N   UNL     1       1.692   6.720  20.925  0.00  0.00    +0.000 NA
ATOM      9  C   UNL     1       2.515   6.610  19.875  0.00  0.00    +0.000 A 
ATOM     10  C   UNL     1       3.360   5.517  19.783  0.00  0.00    +0.000 A 
ATOM     11  C   UNL     1       4.272   5.360  18.724  0.00  0.00    +0.000 A 
ATOM     12  H   UNL     1       1.466   9.363  17.166  0.00  0.00    +0.000 HD
ENDROOT
BRANCH   5  13
ATOM     13  C   UNL     1       1.248  11.030  18.305  0.00  0.00    +0.000 A 
ATOM     14  C   UNL     1      -0.133  11.234  18.430  0.00  0.00    +0.000 A 
ATOM     15  C   UNL     1      -0.659  12.514  18.572  0.00  0.00    +0.000 A 
ATOM     16  C   UNL     1       0.193  13.613  18.607  0.00  0.00    +0.000 A 
ATOM     17  C   UNL     1       1.580  13.434  18.531  0.00  0.00    +0.000 A 
ATOM     18  C   UNL     1       2.500  14.620  18.551  0.00  0.00    +0.000 C 
ATOM     19  C   UNL     1       2.102  12.137  18.397  0.00  0.00    +0.000 A 
ENDBRANCH   5  13
BRANCH  11  20
ATOM     20  O   UNL     1       5.054   4.234  18.812  0.00  0.00    +0.000 OA
ATOM     21  C   UNL     1       4.445   3.161  19.529  0.00  0.00    +0.000 C 
ENDBRANCH  11  20
BRANCH   1  22
ATOM     22  O   UNL     1       5.142   6.028  16.614  0.00  0.00    +0.000 OA
BRANCH  22  28
ATOM     23  C   UNL     1       6.478   3.583  12.423  0.00  0.00    +0.000 C 
ATOM     24  O   UNL     1       7.550   3.871  11.889  0.00  0.00    +0.000 OA
ATOM     25  N   UNL     1       6.133   4.058  13.687  0.00  0.00    +0.000 N 
ATOM     26  C   UNL     1       7.012   5.074  14.266  0.00  0.00    +0.000 C 
ATOM     27  C   UNL     1       7.157   4.935  15.776  0.00  0.00    +0.000 C 
ATOM     28  C   UNL     1       5.825   4.771  16.510  0.00  0.00    +0.000 C 
ATOM     29  C   UNL     1       4.912   3.766  15.807  0.00  0.00    +0.000 C 
ATOM     30  C   UNL     1       4.809   3.990  14.304  0.00  0.00    +0.000 C 
BRANCH  23  32
ATOM     31  C   UNL     1       5.945   1.478  11.294  0.00  0.00    +0.000 C 
ATOM     32  C   UNL     1       5.530   2.686  11.702  0.00  0.00    +0.000 C 
ENDBRANCH  23  32
ENDBRANCH  22  28
ENDBRANCH   1  22
TORSDOF 5
ENDMDL
MODEL 9
REMARK VINA RESULT:      -7.2      3.211      8.147
REMARK  Name = 
REMARK  7 active torsions:
REMARK  status: ('A' for Active; 'I' for Inactive)
REMARK    1  A    between atoms: C_2  and  C_3
REMARK    2  A    between atoms: C_8  and  O_9
REMARK    3  A    between atoms: O_9  and  C_10
REMARK    4  A    between atoms: N_14  and  C_15
REMARK    5  A    between atoms: C_19  and  C_20
REMARK    6  A    between atoms: C_27  and  O_28
REMARK    7  A    between atoms: O_28  and  C_29
REMARK                            x       y       z     vdW  Elec       q    Type
REMARK                         _______ _______ _______ _____ _____    ______ ____
ROOT
ATOM      1  C   UNL     1       1.459   8.694  20.183  0.00  0.00    +0.000 A 
ATOM      2  C   UNL     1       2.484   7.947  19.602  0.00  0.00    +0.000 A 
ATOM      3  C   UNL     1       2.622   6.551  19.828  0.00  0.00    +0.000 A 
ATOM      4  C   UNL     1       3.622   5.747  19.256  0.00  0.00    +0.000 A 
ATOM      5  N   UNL     1       4.593   6.339  18.397  0.00  0.00    +0.000 N 
ATOM      6  N   UNL     1       3.695   4.425  19.494  0.00  0.00    +0.000 NA
ATOM      7  C   UNL     1       2.774   3.902  20.305  0.00  0.00    +0.000 A 
ATOM      8  N   UNL     1       1.780   4.572  20.897  0.00  0.00    +0.000 NA
ATOM      9  C   UNL     1       1.703   5.885  20.649  0.00  0.00    +0.000 A 
ATOM     10  C   UNL     1       0.665   6.622  21.193  0.00  0.00    +0.000 A 
ATOM     11  C   UNL     1       0.510   7.998  20.943  0.00  0.00    +0.000 A 
ATOM     12  H   UNL     1       5.122   7.034  18.913  0.00  0.00    +0.000 HD
ENDROOT
BRANCH   5  13
ATOM     13  C   UNL     1       5.396   5.596  17.504  0.00  0.00    +0.000 A 
ATOM     14  C   UNL     1       6.697   5.223  17.870  0.00  0.00    +0.000 A 
ATOM     15  C   UNL     1       7.537   4.576  16.969  0.00  0.00    +0.000 A 
ATOM     16  C   UNL     1       7.080   4.277  15.689  0.00  0.00    +0.000 A 
ATOM     17  C   UNL     1       5.770   4.598  15.313  0.00  0.00    +0.000 A 
ATOM     18  C   UNL     1       5.282   4.292  13.927  0.00  0.00    +0.000 C 
ATOM     19  C   UNL     1       4.927   5.242  16.233  0.00  0.00    +0.000 A 
ENDBRANCH   5  13
BRANCH  11  20
ATOM     20  O   UNL     1      -0.594   8.560  21.538  0.00  0.00    +0.000 OA
ATOM     21  C   UNL     1      -0.321   9.185  22.791  0.00  0.00    +0.000 C 
ENDBRANCH  11  20
BRANCH   1  22
ATOM     22  O   UNL     1       1.311  10.053  20.053  0.00  0.00    +0.000 OA
BRANCH  22  28
ATOM     23  C   UNL     1      -2.608  10.828  16.993  0.00  0.00    +0.000 C 
ATOM     24  O   UNL     1      -3.283  11.846  17.146  0.00  0.00    +0.000 OA
ATOM     25  N   UNL     1      -1.395  10.640  17.653  0.00  0.00    +0.000 N 
ATOM     26  C   UNL     1      -1.056  11.618  18.688  0.00  0.00    +0.000 C 
ATOM     27  C   UNL     1       0.436  11.919  18.746  0.00  0.00    +0.000 C 
ATOM     28  C   UNL     1       1.316  10.668  18.758  0.00  0.00    +0.000 C 
ATOM     29  C   UNL     1       0.858   9.644  17.719  0.00  0.00    +0.000 C 
ATOM     30  C   UNL     1      -0.644   9.389  17.743  0.00  0.00    +0.000 C 
BRANCH  23  32
ATOM     31  C   UNL     1      -3.442  10.104  14.809  0.00  0.00    +0.000 C 
ATOM     32  C   UNL     1      -3.096   9.771  16.061  0.00  0.00    +0.000 C 
ENDBRANCH  23  32
ENDBRANCH  22  28
ENDBRANCH   1  22
TORSDOF 5
ENDMDL
