MODEL 1
REMARK VINA RESULT:      -9.9      0.000      0.000
REMARK  Name = 
REMARK  1 active torsions:
REMARK  status: ('A' for Active; 'I' for Inactive)
REMARK    1  A    between atoms: C_2  and  C_9
REMARK                            x       y       z     vdW  Elec       q    Type
REMARK                         _______ _______ _______ _____ _____    ______ ____
ROOT
ATOM      1  C   UNL     1       3.614   5.706  17.849  0.00  0.00    +0.000 C 
ATOM      2  C   UNL     1       5.102   5.934  17.916  0.00  0.00    +0.000 A 
ATOM      3  C   UNL     1       5.671   7.083  17.345  0.00  0.00    +0.000 A 
ATOM      4  C   UNL     1       7.003   7.387  17.596  0.00  0.00    +0.000 A 
ATOM      5  F   UNL     1       7.508   8.543  17.148  0.00  0.00    +0.000 F 
ATOM      6  C   UNL     1       7.798   6.534  18.350  0.00  0.00    +0.000 A 
ATOM      7  C   UNL     1       7.258   5.343  18.841  0.00  0.00    +0.000 A 
ATOM      8  C   UNL     1       5.910   5.041  18.626  0.00  0.00    +0.000 A 
ATOM      9  O   UNL     1       5.441   3.868  19.172  0.00  0.00    +0.000 OA
ATOM     10  C   UNL     1       4.134   3.503  18.938  0.00  0.00    +0.000 A 
ATOM     11  C   UNL     1       3.739   2.245  19.405  0.00  0.00    +0.000 A 
ATOM     12  C   UNL     1       2.421   1.812  19.229  0.00  0.00    +0.000 A 
ATOM     13  C   UNL     1       1.512   2.632  18.575  0.00  0.00    +0.000 A 
ATOM     14  F   UNL     1       0.247   2.225  18.414  0.00  0.00    +0.000 F 
ATOM     15  C   UNL     1       1.894   3.880  18.100  0.00  0.00    +0.000 A 
ATOM     16  C   UNL     1       3.211   4.331  18.294  0.00  0.00    +0.000 A 
ENDROOT
BRANCH   1  18
ATOM     17  O   UNL     1       2.718   6.668  19.835  0.00  0.00    +0.000 OA
ATOM     18  C   UNL     1       2.833   6.790  18.612  0.00  0.00    +0.000 C 
ATOM     19  N   UNL     1       2.308   7.816  17.863  0.00  0.00    +0.000 N 
ATOM     20  C   UNL     1       1.608   8.813  18.484  0.00  0.00    +0.000 A 
ATOM     21  N   UNL     1       1.570   9.160  19.752  0.00  0.00    +0.000 NA
ATOM     22  C   UNL     1       0.612  10.131  19.812  0.00  0.00    +0.000 A 
ATOM     23  C   UNL     1       0.102  10.352  18.559  0.00  0.00    +0.000 A 
ATOM     24  O   UNL     1       0.771   9.544  17.684  0.00  0.00    +0.000 OA
ATOM     25  H   UNL     1       2.197   7.753  16.862  0.00  0.00    +0.000 HD
ENDBRANCH   1  18
TORSDOF 1
ENDMDL
MODEL 2
REMARK VINA RESULT:      -9.9      1.048      1.377
REMARK  Name = 
REMARK  1 active torsions:
REMARK  status: ('A' for Active; 'I' for Inactive)
REMARK    1  A    between atoms: C_2  and  C_9
REMARK                            x       y       z     vdW  Elec       q    Type
REMARK                         _______ _______ _______ _____ _____    ______ ____
ROOT
ATOM      1  C   UNL     1       3.820   5.802  17.735  0.00  0.00    +0.000 C 
ATOM      2  C   UNL     1       5.302   5.978  17.946  0.00  0.00    +0.000 A 
ATOM      3  C   UNL     1       5.993   7.011  17.294  0.00  0.00    +0.000 A 
ATOM      4  C   UNL     1       7.304   7.294  17.656  0.00  0.00    +0.000 A 
ATOM      5  F   UNL     1       7.920   8.355  17.117  0.00  0.00    +0.000 F 
ATOM      6  C   UNL     1       7.962   6.526  18.608  0.00  0.00    +0.000 A 
ATOM      7  C   UNL     1       7.306   5.439  19.190  0.00  0.00    +0.000 A 
ATOM      8  C   UNL     1       5.975   5.164  18.860  0.00  0.00    +0.000 A 
ATOM      9  O   UNL     1       5.384   4.100  19.502  0.00  0.00    +0.000 OA
ATOM     10  C   UNL     1       4.092   3.757  19.168  0.00  0.00    +0.000 A 
ATOM     11  C   UNL     1       3.578   2.594  19.752  0.00  0.00    +0.000 A 
ATOM     12  C   UNL     1       2.266   2.194  19.483  0.00  0.00    +0.000 A 
ATOM     13  C   UNL     1       1.482   2.949  18.621  0.00  0.00    +0.000 A 
ATOM     14  F   UNL     1       0.222   2.574  18.369  0.00  0.00    +0.000 F 
ATOM     15  C   UNL     1       1.984   4.101  18.029  0.00  0.00    +0.000 A 
ATOM     16  C   UNL     1       3.294   4.521  18.313  0.00  0.00    +0.000 A 
ENDROOT
BRANCH   1  18
ATOM     17  O   UNL     1       2.903   7.987  17.497  0.00  0.00    +0.000 OA
ATOM     18  C   UNL     1       3.021   7.014  18.246  0.00  0.00    +0.000 C 
ATOM     19  N   UNL     1       2.507   6.923  19.518  0.00  0.00    +0.000 N 
ATOM     20  C   UNL     1       1.782   7.965  20.027  0.00  0.00    +0.000 A 
ATOM     21  N   UNL     1       1.209   8.978  19.415  0.00  0.00    +0.000 NA
ATOM     22  C   UNL     1       0.742   9.768  20.428  0.00  0.00    +0.000 A 
ATOM     23  C   UNL     1       1.042   9.192  21.635  0.00  0.00    +0.000 A 
ATOM     24  O   UNL     1       1.668   8.004  21.391  0.00  0.00    +0.000 OA
ATOM     25  H   UNL     1       2.833   6.241  20.186  0.00  0.00    +0.000 HD
ENDBRANCH   1  18
TORSDOF 1
ENDMDL
MODEL 3
REMARK VINA RESULT:      -8.9      1.782      4.924
REMARK  Name = 
REMARK  1 active torsions:
REMARK  status: ('A' for Active; 'I' for Inactive)
REMARK    1  A    between atoms: C_2  and  C_9
REMARK                            x       y       z     vdW  Elec       q    Type
REMARK                         _______ _______ _______ _____ _____    ______ ____
ROOT
ATOM      1  C   UNL     1       4.076   5.337  19.218  0.00  0.00    +0.000 C 
ATOM      2  C   UNL     1       3.227   4.094  19.277  0.00  0.00    +0.000 A 
ATOM      3  C   UNL     1       2.373   3.870  20.368  0.00  0.00    +0.000 A 
ATOM      4  C   UNL     1       1.446   2.836  20.314  0.00  0.00    +0.000 A 
ATOM      5  F   UNL     1       0.555   2.700  21.303  0.00  0.00    +0.000 F 
ATOM      6  C   UNL     1       1.397   1.981  19.221  0.00  0.00    +0.000 A 
ATOM      7  C   UNL     1       2.309   2.145  18.175  0.00  0.00    +0.000 A 
ATOM      8  C   UNL     1       3.225   3.202  18.202  0.00  0.00    +0.000 A 
ATOM      9  O   UNL     1       4.066   3.322  17.119  0.00  0.00    +0.000 OA
ATOM     10  C   UNL     1       5.021   4.314  17.127  0.00  0.00    +0.000 A 
ATOM     11  C   UNL     1       5.934   4.319  16.067  0.00  0.00    +0.000 A 
ATOM     12  C   UNL     1       6.918   5.308  15.991  0.00  0.00    +0.000 A 
ATOM     13  C   UNL     1       6.993   6.279  16.982  0.00  0.00    +0.000 A 
ATOM     14  F   UNL     1       7.927   7.234  16.906  0.00  0.00    +0.000 F 
ATOM     15  C   UNL     1       6.097   6.280  18.043  0.00  0.00    +0.000 A 
ATOM     16  C   UNL     1       5.091   5.301  18.114  0.00  0.00    +0.000 A 
ENDROOT
BRANCH   1  18
ATOM     17  O   UNL     1       3.196   7.235  18.078  0.00  0.00    +0.000 OA
ATOM     18  C   UNL     1       3.218   6.613  19.144  0.00  0.00    +0.000 C 
ATOM     19  N   UNL     1       2.546   6.972  20.288  0.00  0.00    +0.000 N 
ATOM     20  C   UNL     1       1.762   8.093  20.285  0.00  0.00    +0.000 A 
ATOM     21  N   UNL     1       1.271   8.782  19.278  0.00  0.00    +0.000 NA
ATOM     22  C   UNL     1       0.679   9.865  19.862  0.00  0.00    +0.000 A 
ATOM     23  C   UNL     1       0.823   9.790  21.223  0.00  0.00    +0.000 A 
ATOM     24  O   UNL     1       1.476   8.626  21.513  0.00  0.00    +0.000 OA
ATOM     25  H   UNL     1       2.784   6.600  21.196  0.00  0.00    +0.000 HD
ENDBRANCH   1  18
TORSDOF 1
ENDMDL
MODEL 4
REMARK VINA RESULT:      -8.3      2.727      6.339
REMARK  Name = 
REMARK  1 active torsions:
REMARK  status: ('A' for Active; 'I' for Inactive)
REMARK    1  A    between atoms: C_2  and  C_9
REMARK                            x       y       z     vdW  Elec       q    Type
REMARK                         _______ _______ _______ _____ _____    ______ ____
ROOT
ATOM      1  C   UNL     1       2.412   5.665  18.090  0.00  0.00    +0.000 C 
ATOM      2  C   UNL     1       2.026   4.559  19.037  0.00  0.00    +0.000 A 
ATOM      3  C   UNL     1       2.059   3.221  18.616  0.00  0.00    +0.000 A 
ATOM      4  C   UNL     1       1.908   2.203  19.550  0.00  0.00    +0.000 A 
ATOM      5  F   UNL     1       2.058   0.930  19.164  0.00  0.00    +0.000 F 
ATOM      6  C   UNL     1       1.660   2.494  20.885  0.00  0.00    +0.000 A 
ATOM      7  C   UNL     1       1.534   3.825  21.289  0.00  0.00    +0.000 A 
ATOM      8  C   UNL     1       1.718   4.859  20.366  0.00  0.00    +0.000 A 
ATOM      9  O   UNL     1       1.615   6.145  20.847  0.00  0.00    +0.000 OA
ATOM     10  C   UNL     1       1.734   7.195  19.963  0.00  0.00    +0.000 A 
ATOM     11  C   UNL     1       1.497   8.476  20.472  0.00  0.00    +0.000 A 
ATOM     12  C   UNL     1       1.622   9.596  19.644  0.00  0.00    +0.000 A 
ATOM     13  C   UNL     1       1.968   9.427  18.310  0.00  0.00    +0.000 A 
ATOM     14  F   UNL     1       2.098  10.497  17.517  0.00  0.00    +0.000 F 
ATOM     15  C   UNL     1       2.198   8.159  17.791  0.00  0.00    +0.000 A 
ATOM     16  C   UNL     1       2.096   7.032  18.624  0.00  0.00    +0.000 A 
ENDROOT
BRANCH   1  18
ATOM     17  O   UNL     1       4.746   5.995  18.433  0.00  0.00    +0.000 OA
ATOM     18  C   UNL     1       3.886   5.563  17.660  0.00  0.00    +0.000 C 
ATOM     19  N   UNL     1       4.133   5.003  16.429  0.00  0.00    +0.000 N 
ATOM     20  C   UNL     1       5.424   4.878  15.993  0.00  0.00    +0.000 A 
ATOM     21  N   UNL     1       6.554   4.932  16.662  0.00  0.00    +0.000 NA
ATOM     22  C   UNL     1       7.523   4.873  15.701  0.00  0.00    +0.000 A 
ATOM     23  C   UNL     1       6.939   4.773  14.465  0.00  0.00    +0.000 A 
ATOM     24  O   UNL     1       5.586   4.724  14.642  0.00  0.00    +0.000 OA
ATOM     25  H   UNL     1       3.416   4.901  15.727  0.00  0.00    +0.000 HD
ENDBRANCH   1  18
TORSDOF 1
ENDMDL
MODEL 5
REMARK VINA RESULT:      -8.2      2.368      6.225
REMARK  Name = 
REMARK  1 active torsions:
REMARK  status: ('A' for Active; 'I' for Inactive)
REMARK    1  A    between atoms: C_2  and  C_9
REMARK                            x       y       z     vdW  Elec       q    Type
REMARK                         _______ _______ _______ _____ _____    ______ ____
ROOT
ATOM      1  C   UNL     1       2.458   6.022  18.228  0.00  0.00    +0.000 C 
ATOM      2  C   UNL     1       2.082   4.784  19.001  0.00  0.00    +0.000 A 
ATOM      3  C   UNL     1       2.295   3.511  18.450  0.00  0.00    +0.000 A 
ATOM      4  C   UNL     1       2.143   2.384  19.247  0.00  0.00    +0.000 A 
ATOM      5  F   UNL     1       2.462   1.182  18.752  0.00  0.00    +0.000 F 
ATOM      6  C   UNL     1       1.721   2.496  20.565  0.00  0.00    +0.000 A 
ATOM      7  C   UNL     1       1.419   3.756  21.088  0.00  0.00    +0.000 A 
ATOM      8  C   UNL     1       1.599   4.901  20.307  0.00  0.00    +0.000 A 
ATOM      9  O   UNL     1       1.316   6.110  20.902  0.00  0.00    +0.000 OA
ATOM     10  C   UNL     1       1.426   7.261  20.154  0.00  0.00    +0.000 A 
ATOM     11  C   UNL     1       1.007   8.449  20.761  0.00  0.00    +0.000 A 
ATOM     12  C   UNL     1       1.111   9.663  20.076  0.00  0.00    +0.000 A 
ATOM     13  C   UNL     1       1.618   9.679  18.783  0.00  0.00    +0.000 A 
ATOM     14  F   UNL     1       1.728  10.841  18.128  0.00  0.00    +0.000 F 
ATOM     15  C   UNL     1       2.029   8.505  18.167  0.00  0.00    +0.000 A 
ATOM     16  C   UNL     1       1.950   7.285  18.859  0.00  0.00    +0.000 A 
ENDROOT
BRANCH   1  18
ATOM     17  O   UNL     1       4.355   6.322  16.819  0.00  0.00    +0.000 OA
ATOM     18  C   UNL     1       3.974   6.098  17.972  0.00  0.00    +0.000 C 
ATOM     19  N   UNL     1       4.794   5.895  19.056  0.00  0.00    +0.000 N 
ATOM     20  C   UNL     1       6.151   5.956  18.893  0.00  0.00    +0.000 A 
ATOM     21  N   UNL     1       6.866   6.472  17.918  0.00  0.00    +0.000 NA
ATOM     22  C   UNL     1       8.154   6.132  18.222  0.00  0.00    +0.000 A 
ATOM     23  C   UNL     1       8.177   5.421  19.394  0.00  0.00    +0.000 A 
ATOM     24  O   UNL     1       6.897   5.343  19.864  0.00  0.00    +0.000 OA
ATOM     25  H   UNL     1       4.468   5.466  19.909  0.00  0.00    +0.000 HD
ENDBRANCH   1  18
TORSDOF 1
ENDMDL
MODEL 6
REMARK VINA RESULT:      -7.8      3.413      6.740
REMARK  Name = 
REMARK  1 active torsions:
REMARK  status: ('A' for Active; 'I' for Inactive)
REMARK    1  A    between atoms: C_2  and  C_9
REMARK                            x       y       z     vdW  Elec       q    Type
REMARK                         _______ _______ _______ _____ _____    ______ ____
ROOT
ATOM      1  C   UNL     1       4.461   5.180  17.275  0.00  0.00    +0.000 C 
ATOM      2  C   UNL     1       3.706   4.285  18.225  0.00  0.00    +0.000 A 
ATOM      3  C   UNL     1       2.409   3.850  17.909  0.00  0.00    +0.000 A 
ATOM      4  C   UNL     1       1.809   2.864  18.682  0.00  0.00    +0.000 A 
ATOM      5  F   UNL     1       0.623   2.368  18.308  0.00  0.00    +0.000 F 
ATOM      6  C   UNL     1       2.449   2.350  19.802  0.00  0.00    +0.000 A 
ATOM      7  C   UNL     1       3.701   2.848  20.171  0.00  0.00    +0.000 A 
ATOM      8  C   UNL     1       4.331   3.816  19.382  0.00  0.00    +0.000 A 
ATOM      9  O   UNL     1       5.579   4.232  19.789  0.00  0.00    +0.000 OA
ATOM     10  C   UNL     1       6.214   5.224  19.075  0.00  0.00    +0.000 A 
ATOM     11  C   UNL     1       7.420   5.702  19.596  0.00  0.00    +0.000 A 
ATOM     12  C   UNL     1       8.137   6.691  18.917  0.00  0.00    +0.000 A 
ATOM     13  C   UNL     1       7.637   7.206  17.728  0.00  0.00    +0.000 A 
ATOM     14  F   UNL     1       8.326   8.145  17.069  0.00  0.00    +0.000 F 
ATOM     15  C   UNL     1       6.436   6.744  17.204  0.00  0.00    +0.000 A 
ATOM     16  C   UNL     1       5.722   5.734  17.870  0.00  0.00    +0.000 A 
ENDROOT
BRANCH   1  18
ATOM     17  O   UNL     1       4.134   3.436  15.686  0.00  0.00    +0.000 OA
ATOM     18  C   UNL     1       4.739   4.484  15.931  0.00  0.00    +0.000 C 
ATOM     19  N   UNL     1       5.659   5.083  15.104  0.00  0.00    +0.000 N 
ATOM     20  C   UNL     1       5.944   4.516  13.892  0.00  0.00    +0.000 A 
ATOM     21  N   UNL     1       5.280   3.618  13.198  0.00  0.00    +0.000 NA
ATOM     22  C   UNL     1       6.094   3.334  12.139  0.00  0.00    +0.000 A 
ATOM     23  C   UNL     1       7.236   4.088  12.223  0.00  0.00    +0.000 A 
ATOM     24  O   UNL     1       7.131   4.892  13.321  0.00  0.00    +0.000 OA
ATOM     25  H   UNL     1       6.312   5.777  15.434  0.00  0.00    +0.000 HD
ENDBRANCH   1  18
TORSDOF 1
ENDMDL
MODEL 7
REMARK VINA RESULT:      -7.7      1.547      4.805
REMARK  Name = 
REMARK  1 active torsions:
REMARK  status: ('A' for Active; 'I' for Inactive)
REMARK    1  A    between atoms: C_2  and  C_9
REMARK                            x       y       z     vdW  Elec       q    Type
REMARK                         _______ _______ _______ _____ _____    ______ ____
ROOT
ATOM      1  C   UNL     1       3.646   5.432  19.485  0.00  0.00    +0.000 C 
ATOM      2  C   UNL     1       2.895   4.130  19.585  0.00  0.00    +0.000 A 
ATOM      3  C   UNL     1       2.245   3.775  20.777  0.00  0.00    +0.000 A 
ATOM      4  C   UNL     1       1.386   2.683  20.793  0.00  0.00    +0.000 A 
ATOM      5  F   UNL     1       0.678   2.420  21.898  0.00  0.00    +0.000 F 
ATOM      6  C   UNL     1       1.212   1.899  19.660  0.00  0.00    +0.000 A 
ATOM      7  C   UNL     1       1.930   2.195  18.499  0.00  0.00    +0.000 A 
ATOM      8  C   UNL     1       2.772   3.311  18.460  0.00  0.00    +0.000 A 
ATOM      9  O   UNL     1       3.417   3.560  17.270  0.00  0.00    +0.000 OA
ATOM     10  C   UNL     1       4.299   4.616  17.201  0.00  0.00    +0.000 A 
ATOM     11  C   UNL     1       5.025   4.754  16.014  0.00  0.00    +0.000 A 
ATOM     12  C   UNL     1       5.921   5.815  15.857  0.00  0.00    +0.000 A 
ATOM     13  C   UNL     1       6.097   6.723  16.893  0.00  0.00    +0.000 A 
ATOM     14  F   UNL     1       6.947   7.746  16.743  0.00  0.00    +0.000 F 
ATOM     15  C   UNL     1       5.388   6.592  18.080  0.00  0.00    +0.000 A 
ATOM     16  C   UNL     1       4.468   5.541  18.235  0.00  0.00    +0.000 A 
ENDROOT
BRANCH   1  18
ATOM     17  O   UNL     1       2.081   6.756  20.699  0.00  0.00    +0.000 OA
ATOM     18  C   UNL     1       2.712   6.645  19.644  0.00  0.00    +0.000 C 
ATOM     19  N   UNL     1       2.642   7.515  18.581  0.00  0.00    +0.000 N 
ATOM     20  C   UNL     1       1.833   8.615  18.664  0.00  0.00    +0.000 A 
ATOM     21  N   UNL     1       1.293   9.194  19.714  0.00  0.00    +0.000 NA
ATOM     22  C   UNL     1       0.486  10.164  19.191  0.00  0.00    +0.000 A 
ATOM     23  C   UNL     1       0.575  10.147  17.823  0.00  0.00    +0.000 A 
ATOM     24  O   UNL     1       1.479   9.187  17.471  0.00  0.00    +0.000 OA
ATOM     25  H   UNL     1       2.959   7.265  17.656  0.00  0.00    +0.000 HD
ENDBRANCH   1  18
TORSDOF 1
ENDMDL
MODEL 8
REMARK VINA RESULT:      -7.5      6.643      9.559
REMARK  Name = 
REMARK  1 active torsions:
REMARK  status: ('A' for Active; 'I' for Inactive)
REMARK    1  A    between atoms: C_2  and  C_9
REMARK                            x       y       z     vdW  Elec       q    Type
REMARK                         _______ _______ _______ _____ _____    ______ ____
ROOT
ATOM      1  C   UNL     1       9.946  11.720  19.500  0.00  0.00    +0.000 C 
ATOM      2  C   UNL     1      10.476  12.788  18.578  0.00  0.00    +0.000 A 
ATOM      3  C   UNL     1      11.319  12.448  17.509  0.00  0.00    +0.000 A 
ATOM      4  C   UNL     1      11.628  13.401  16.547  0.00  0.00    +0.000 A 
ATOM      5  F   UNL     1      12.333  13.042  15.468  0.00  0.00    +0.000 F 
ATOM      6  C   UNL     1      11.165  14.706  16.664  0.00  0.00    +0.000 A 
ATOM      7  C   UNL     1      10.403  15.070  17.777  0.00  0.00    +0.000 A 
ATOM      8  C   UNL     1      10.057  14.111  18.735  0.00  0.00    +0.000 A 
ATOM      9  O   UNL     1       9.273  14.537  19.783  0.00  0.00    +0.000 OA
ATOM     10  C   UNL     1       8.953  13.641  20.779  0.00  0.00    +0.000 A 
ATOM     11  C   UNL     1       8.263  14.148  21.885  0.00  0.00    +0.000 A 
ATOM     12  C   UNL     1       7.881  13.297  22.926  0.00  0.00    +0.000 A 
ATOM     13  C   UNL     1       8.203  11.948  22.862  0.00  0.00    +0.000 A 
ATOM     14  F   UNL     1       7.830  11.129  23.852  0.00  0.00    +0.000 F 
ATOM     15  C   UNL     1       8.895  11.434  21.773  0.00  0.00    +0.000 A 
ATOM     16  C   UNL     1       9.262  12.280  20.713  0.00  0.00    +0.000 A 
ENDROOT
BRANCH   1  18
ATOM     17  O   UNL     1       8.180  11.176  17.997  0.00  0.00    +0.000 OA
ATOM     18  C   UNL     1       9.039  10.722  18.759  0.00  0.00    +0.000 C 
ATOM     19  N   UNL     1       9.249   9.388  19.016  0.00  0.00    +0.000 N 
ATOM     20  C   UNL     1       8.478   8.452  18.384  0.00  0.00    +0.000 A 
ATOM     21  N   UNL     1       7.723   8.558  17.312  0.00  0.00    +0.000 NA
ATOM     22  C   UNL     1       7.092   7.350  17.218  0.00  0.00    +0.000 A 
ATOM     23  C   UNL     1       7.501   6.537  18.244  0.00  0.00    +0.000 A 
ATOM     24  O   UNL     1       8.433   7.217  18.974  0.00  0.00    +0.000 OA
ATOM     25  H   UNL     1       9.768   9.067  19.819  0.00  0.00    +0.000 HD
ENDBRANCH   1  18
TORSDOF 1
ENDMDL
MODEL 9
REMARK VINA RESULT:      -7.3      3.779      6.947
REMARK  Name = 
REMARK  1 active torsions:
REMARK  status: ('A' for Active; 'I' for Inactive)
REMARK    1  A    between atoms: C_2  and  C_9
REMARK                            x       y       z     vdW  Elec       q    Type
REMARK                         _______ _______ _______ _____ _____    ______ ____
ROOT
ATOM      1  C   UNL     1       5.249   5.248  16.853  0.00  0.00    +0.000 C 
ATOM      2  C   UNL     1       4.557   4.191  17.673  0.00  0.00    +0.000 A 
ATOM      3  C   UNL     1       3.409   3.550  17.182  0.00  0.00    +0.000 A 
ATOM      4  C   UNL     1       2.907   2.438  17.846  0.00  0.00    +0.000 A 
ATOM      5  F   UNL     1       1.884   1.760  17.310  0.00  0.00    +0.000 F 
ATOM      6  C   UNL     1       3.487   1.991  19.026  0.00  0.00    +0.000 A 
ATOM      7  C   UNL     1       4.573   2.683  19.566  0.00  0.00    +0.000 A 
ATOM      8  C   UNL     1       5.110   3.784  18.890  0.00  0.00    +0.000 A 
ATOM      9  O   UNL     1       6.203   4.392  19.464  0.00  0.00    +0.000 OA
ATOM     10  C   UNL     1       6.731   5.513  18.863  0.00  0.00    +0.000 A 
ATOM     11  C   UNL     1       7.758   6.171  19.548  0.00  0.00    +0.000 A 
ATOM     12  C   UNL     1       8.363   7.302  18.992  0.00  0.00    +0.000 A 
ATOM     13  C   UNL     1       7.927   7.777  17.762  0.00  0.00    +0.000 A 
ATOM     14  F   UNL     1       8.511   8.853  17.222  0.00  0.00    +0.000 F 
ATOM     15  C   UNL     1       6.903   7.137  17.076  0.00  0.00    +0.000 A 
ATOM     16  C   UNL     1       6.307   5.987  17.619  0.00  0.00    +0.000 A 
ENDROOT
BRANCH   1  18
ATOM     17  O   UNL     1       7.035   4.671  15.386  0.00  0.00    +0.000 OA
ATOM     18  C   UNL     1       5.810   4.677  15.538  0.00  0.00    +0.000 C 
ATOM     19  N   UNL     1       4.893   4.225  14.619  0.00  0.00    +0.000 N 
ATOM     20  C   UNL     1       5.329   3.701  13.434  0.00  0.00    +0.000 A 
ATOM     21  N   UNL     1       6.519   3.260  13.089  0.00  0.00    +0.000 NA
ATOM     22  C   UNL     1       6.405   2.978  11.757  0.00  0.00    +0.000 A 
ATOM     23  C   UNL     1       5.129   3.251  11.337  0.00  0.00    +0.000 A 
ATOM     24  O   UNL     1       4.410   3.670  12.420  0.00  0.00    +0.000 OA
ATOM     25  H   UNL     1       3.916   4.477  14.660  0.00  0.00    +0.000 HD
ENDBRANCH   1  18
TORSDOF 1
ENDMDL
