MODEL 1
REMARK VINA RESULT:      -7.5      0.000      0.000
REMARK  Name = 
REMARK  1 active torsions:
REMARK  status: ('A' for Active; 'I' for Inactive)
REMARK    1  A    between atoms: C_8  and  C_9
REMARK                            x       y       z     vdW  Elec       q    Type
REMARK                         _______ _______ _______ _____ _____    ______ ____
ROOT
ATOM      1  O   UNL     1       4.496   1.767  20.043  0.00  0.00    +0.000 OA
ATOM      2  C   UNL     1       4.548   2.936  19.693  0.00  0.00    +0.000 A 
ATOM      3  N   UNL     1       5.597   3.512  18.992  0.00  0.00    +0.000 N 
ATOM      4  C   UNL     1       5.762   4.816  18.591  0.00  0.00    +0.000 A 
ATOM      5  S   UNL     1       7.097   5.342  17.767  0.00  0.00    +0.000 S 
ATOM      6  N   UNL     1       4.690   5.688  18.935  0.00  0.00    +0.000 N 
ATOM      7  C   UNL     1       3.586   5.167  19.580  0.00  0.00    +0.000 A 
ATOM      8  C   UNL     1       2.408   5.767  19.961  0.00  0.00    +0.000 A 
ATOM      9  C   UNL     1       1.721   4.716  20.631  0.00  0.00    +0.000 A 
ATOM     10  N   UNL     1       2.394   3.560  20.633  0.00  0.00    +0.000 NA
ATOM     11  N   UNL     1       3.528   3.853  19.963  0.00  0.00    +0.000 N 
ATOM     12  H   UNL     1       6.351   2.874  18.770  0.00  0.00    +0.000 HD
ATOM     13  H   UNL     1       4.756   6.677  18.717  0.00  0.00    +0.000 HD
ENDROOT
BRANCH   8  14
ATOM     14  C   UNL     1       2.006   7.147  19.740  0.00  0.00    +0.000 A 
ATOM     15  C   UNL     1       2.174   7.771  18.494  0.00  0.00    +0.000 A 
ATOM     16  C   UNL     1       1.799   9.105  18.304  0.00  0.00    +0.000 A 
ATOM     17  C   UNL     1       1.212   9.816  19.348  0.00  0.00    +0.000 A 
ATOM     18  I   UNL     1       0.632  11.788  19.056  0.00  0.00    +0.000 I 
ATOM     19  C   UNL     1       1.000   9.202  20.579  0.00  0.00    +0.000 A 
ATOM     20  C   UNL     1       1.401   7.875  20.775  0.00  0.00    +0.000 A 
ENDBRANCH   8  14
TORSDOF 1
ENDMDL
MODEL 2
REMARK VINA RESULT:      -7.4      0.135      1.145
REMARK  Name = 
REMARK  1 active torsions:
REMARK  status: ('A' for Active; 'I' for Inactive)
REMARK    1  A    between atoms: C_8  and  C_9
REMARK                            x       y       z     vdW  Elec       q    Type
REMARK                         _______ _______ _______ _____ _____    ______ ____
ROOT
ATOM      1  O   UNL     1       4.699   1.864  19.993  0.00  0.00    +0.000 OA
ATOM      2  C   UNL     1       4.703   3.039  19.655  0.00  0.00    +0.000 A 
ATOM      3  N   UNL     1       5.721   3.662  18.950  0.00  0.00    +0.000 N 
ATOM      4  C   UNL     1       5.832   4.975  18.563  0.00  0.00    +0.000 A 
ATOM      5  S   UNL     1       7.137   5.561  17.731  0.00  0.00    +0.000 S 
ATOM      6  N   UNL     1       4.732   5.802  18.928  0.00  0.00    +0.000 N 
ATOM      7  C   UNL     1       3.656   5.232  19.579  0.00  0.00    +0.000 A 
ATOM      8  C   UNL     1       2.459   5.782  19.980  0.00  0.00    +0.000 A 
ATOM      9  C   UNL     1       1.821   4.699  20.645  0.00  0.00    +0.000 A 
ATOM     10  N   UNL     1       2.537   3.569  20.626  0.00  0.00    +0.000 NA
ATOM     11  N   UNL     1       3.652   3.913  19.948  0.00  0.00    +0.000 N 
ATOM     12  H   UNL     1       6.496   3.055  18.713  0.00  0.00    +0.000 HD
ATOM     13  H   UNL     1       4.757   6.795  18.721  0.00  0.00    +0.000 HD
ENDROOT
BRANCH   8  14
ATOM     14  C   UNL     1       2.003   7.148  19.779  0.00  0.00    +0.000 A 
ATOM     15  C   UNL     1       1.433   7.894  20.821  0.00  0.00    +0.000 A 
ATOM     16  C   UNL     1       0.983   9.201  20.605  0.00  0.00    +0.000 A 
ATOM     17  C   UNL     1       1.139   9.790  19.352  0.00  0.00    +0.000 A 
ATOM     18  I   UNL     1       0.494  11.738  19.041  0.00  0.00    +0.000 I 
ATOM     19  C   UNL     1       1.739   9.080  18.316  0.00  0.00    +0.000 A 
ATOM     20  C   UNL     1       2.165   7.763  18.527  0.00  0.00    +0.000 A 
ENDBRANCH   8  14
TORSDOF 1
ENDMDL
MODEL 3
REMARK VINA RESULT:      -7.1      5.097      6.469
REMARK  Name = 
REMARK  1 active torsions:
REMARK  status: ('A' for Active; 'I' for Inactive)
REMARK    1  A    between atoms: C_8  and  C_9
REMARK                            x       y       z     vdW  Elec       q    Type
REMARK                         _______ _______ _______ _____ _____    ______ ____
ROOT
ATOM      1  O   UNL     1       8.830   5.786  13.167  0.00  0.00    +0.000 OA
ATOM      2  C   UNL     1       7.796   5.191  13.436  0.00  0.00    +0.000 A 
ATOM      3  N   UNL     1       7.113   4.349  12.573  0.00  0.00    +0.000 N 
ATOM      4  C   UNL     1       5.933   3.673  12.771  0.00  0.00    +0.000 A 
ATOM      5  S   UNL     1       5.242   2.712  11.615  0.00  0.00    +0.000 S 
ATOM      6  N   UNL     1       5.346   3.856  14.055  0.00  0.00    +0.000 N 
ATOM      7  C   UNL     1       6.007   4.634  14.986  0.00  0.00    +0.000 A 
ATOM      8  C   UNL     1       5.697   4.916  16.297  0.00  0.00    +0.000 A 
ATOM      9  C   UNL     1       6.729   5.818  16.678  0.00  0.00    +0.000 A 
ATOM     10  N   UNL     1       7.619   6.046  15.707  0.00  0.00    +0.000 NA
ATOM     11  N   UNL     1       7.169   5.292  14.682  0.00  0.00    +0.000 N 
ATOM     12  H   UNL     1       7.544   4.245  11.663  0.00  0.00    +0.000 HD
ATOM     13  H   UNL     1       4.451   3.429  14.265  0.00  0.00    +0.000 HD
ENDROOT
BRANCH   8  14
ATOM     14  C   UNL     1       4.567   4.416  17.065  0.00  0.00    +0.000 A 
ATOM     15  C   UNL     1       4.427   3.053  17.363  0.00  0.00    +0.000 A 
ATOM     16  C   UNL     1       3.324   2.587  18.088  0.00  0.00    +0.000 A 
ATOM     17  C   UNL     1       2.373   3.489  18.559  0.00  0.00    +0.000 A 
ATOM     18  I   UNL     1       0.752   2.800  19.657  0.00  0.00    +0.000 I 
ATOM     19  C   UNL     1       2.516   4.851  18.308  0.00  0.00    +0.000 A 
ATOM     20  C   UNL     1       3.607   5.312  17.559  0.00  0.00    +0.000 A 
ENDBRANCH   8  14
TORSDOF 1
ENDMDL
MODEL 4
REMARK VINA RESULT:      -7.0      5.068      6.453
REMARK  Name = 
REMARK  1 active torsions:
REMARK  status: ('A' for Active; 'I' for Inactive)
REMARK    1  A    between atoms: C_8  and  C_9
REMARK                            x       y       z     vdW  Elec       q    Type
REMARK                         _______ _______ _______ _____ _____    ______ ____
ROOT
ATOM      1  O   UNL     1       8.828   5.798  13.231  0.00  0.00    +0.000 OA
ATOM      2  C   UNL     1       7.783   5.223  13.495  0.00  0.00    +0.000 A 
ATOM      3  N   UNL     1       7.080   4.408  12.621  0.00  0.00    +0.000 N 
ATOM      4  C   UNL     1       5.886   3.755  12.813  0.00  0.00    +0.000 A 
ATOM      5  S   UNL     1       5.171   2.824  11.646  0.00  0.00    +0.000 S 
ATOM      6  N   UNL     1       5.305   3.934  14.101  0.00  0.00    +0.000 N 
ATOM      7  C   UNL     1       5.984   4.684  15.041  0.00  0.00    +0.000 A 
ATOM      8  C   UNL     1       5.682   4.955  16.356  0.00  0.00    +0.000 A 
ATOM      9  C   UNL     1       6.735   5.829  16.747  0.00  0.00    +0.000 A 
ATOM     10  N   UNL     1       7.628   6.051  15.777  0.00  0.00    +0.000 NA
ATOM     11  N   UNL     1       7.160   5.321  14.743  0.00  0.00    +0.000 N 
ATOM     12  H   UNL     1       7.507   4.306  11.709  0.00  0.00    +0.000 HD
ATOM     13  H   UNL     1       4.401   3.523  14.307  0.00  0.00    +0.000 HD
ENDROOT
BRANCH   8  14
ATOM     14  C   UNL     1       4.544   4.470  17.119  0.00  0.00    +0.000 A 
ATOM     15  C   UNL     1       3.544   5.340  17.581  0.00  0.00    +0.000 A 
ATOM     16  C   UNL     1       2.465   4.859  18.330  0.00  0.00    +0.000 A 
ATOM     17  C   UNL     1       2.353   3.495  18.588  0.00  0.00    +0.000 A 
ATOM     18  I   UNL     1       0.738   2.779  19.678  0.00  0.00    +0.000 I 
ATOM     19  C   UNL     1       3.314   2.611  18.105  0.00  0.00    +0.000 A 
ATOM     20  C   UNL     1       4.408   3.098  17.378  0.00  0.00    +0.000 A 
ENDBRANCH   8  14
TORSDOF 1
ENDMDL
MODEL 5
REMARK VINA RESULT:      -7.0      2.637      3.227
REMARK  Name = 
REMARK  1 active torsions:
REMARK  status: ('A' for Active; 'I' for Inactive)
REMARK    1  A    between atoms: C_8  and  C_9
REMARK                            x       y       z     vdW  Elec       q    Type
REMARK                         _______ _______ _______ _____ _____    ______ ____
ROOT
ATOM      1  O   UNL     1       5.161   3.253  16.415  0.00  0.00    +0.000 OA
ATOM      2  C   UNL     1       4.210   3.721  17.023  0.00  0.00    +0.000 A 
ATOM      3  N   UNL     1       3.180   2.981  17.584  0.00  0.00    +0.000 N 
ATOM      4  C   UNL     1       2.058   3.417  18.247  0.00  0.00    +0.000 A 
ATOM      5  S   UNL     1       0.911   2.387  18.847  0.00  0.00    +0.000 S 
ATOM      6  N   UNL     1       1.956   4.831  18.387  0.00  0.00    +0.000 N 
ATOM      7  C   UNL     1       2.978   5.624  17.904  0.00  0.00    +0.000 A 
ATOM      8  C   UNL     1       3.156   6.988  17.965  0.00  0.00    +0.000 A 
ATOM      9  C   UNL     1       4.359   7.182  17.232  0.00  0.00    +0.000 A 
ATOM     10  N   UNL     1       4.900   6.042  16.788  0.00  0.00    +0.000 NA
ATOM     11  N   UNL     1       4.047   5.094  17.230  0.00  0.00    +0.000 N 
ATOM     12  H   UNL     1       3.271   1.981  17.461  0.00  0.00    +0.000 HD
ATOM     13  H   UNL     1       1.135   5.235  18.823  0.00  0.00    +0.000 HD
ENDROOT
BRANCH   8  14
ATOM     14  C   UNL     1       2.291   7.964  18.609  0.00  0.00    +0.000 A 
ATOM     15  C   UNL     1       1.723   9.028  17.893  0.00  0.00    +0.000 A 
ATOM     16  C   UNL     1       0.909   9.969  18.532  0.00  0.00    +0.000 A 
ATOM     17  C   UNL     1       0.619   9.828  19.887  0.00  0.00    +0.000 A 
ATOM     18  I   UNL     1      -0.612  11.210  20.828  0.00  0.00    +0.000 I 
ATOM     19  C   UNL     1       1.140   8.756  20.606  0.00  0.00    +0.000 A 
ATOM     20  C   UNL     1       1.977   7.831  19.970  0.00  0.00    +0.000 A 
ENDBRANCH   8  14
TORSDOF 1
ENDMDL
MODEL 6
REMARK VINA RESULT:      -7.0      2.620      3.367
REMARK  Name = 
REMARK  1 active torsions:
REMARK  status: ('A' for Active; 'I' for Inactive)
REMARK    1  A    between atoms: C_8  and  C_9
REMARK                            x       y       z     vdW  Elec       q    Type
REMARK                         _______ _______ _______ _____ _____    ______ ____
ROOT
ATOM      1  O   UNL     1       5.139   3.329  16.468  0.00  0.00    +0.000 OA
ATOM      2  C   UNL     1       4.185   3.789  17.078  0.00  0.00    +0.000 A 
ATOM      3  N   UNL     1       3.165   3.040  17.643  0.00  0.00    +0.000 N 
ATOM      4  C   UNL     1       2.041   3.466  18.309  0.00  0.00    +0.000 A 
ATOM      5  S   UNL     1       0.904   2.427  18.913  0.00  0.00    +0.000 S 
ATOM      6  N   UNL     1       1.926   4.879  18.448  0.00  0.00    +0.000 N 
ATOM      7  C   UNL     1       2.939   5.682  17.961  0.00  0.00    +0.000 A 
ATOM      8  C   UNL     1       3.104   7.047  18.020  0.00  0.00    +0.000 A 
ATOM      9  C   UNL     1       4.304   7.252  17.283  0.00  0.00    +0.000 A 
ATOM     10  N   UNL     1       4.853   6.116  16.839  0.00  0.00    +0.000 NA
ATOM     11  N   UNL     1       4.010   5.161  17.285  0.00  0.00    +0.000 N 
ATOM     12  H   UNL     1       3.264   2.040  17.521  0.00  0.00    +0.000 HD
ATOM     13  H   UNL     1       1.102   5.277  18.885  0.00  0.00    +0.000 HD
ENDROOT
BRANCH   8  14
ATOM     14  C   UNL     1       2.233   8.016  18.666  0.00  0.00    +0.000 A 
ATOM     15  C   UNL     1       1.902   7.916  20.025  0.00  0.00    +0.000 A 
ATOM     16  C   UNL     1       1.047   8.847  20.625  0.00  0.00    +0.000 A 
ATOM     17  C   UNL     1       0.549   9.913  19.879  0.00  0.00    +0.000 A 
ATOM     18  I   UNL     1      -0.698  11.308  20.778  0.00  0.00    +0.000 I 
ATOM     19  C   UNL     1       0.899  10.051  18.539  0.00  0.00    +0.000 A 
ATOM     20  C   UNL     1       1.733   9.103  17.934  0.00  0.00    +0.000 A 
ENDBRANCH   8  14
TORSDOF 1
ENDMDL
MODEL 7
REMARK VINA RESULT:      -7.0      2.654      3.553
REMARK  Name = 
REMARK  1 active torsions:
REMARK  status: ('A' for Active; 'I' for Inactive)
REMARK    1  A    between atoms: C_8  and  C_9
REMARK                            x       y       z     vdW  Elec       q    Type
REMARK                         _______ _______ _______ _____ _____    ______ ____
ROOT
ATOM      1  O   UNL     1       6.320   3.657  15.341  0.00  0.00    +0.000 OA
ATOM      2  C   UNL     1       5.448   3.886  16.165  0.00  0.00    +0.000 A 
ATOM      3  N   UNL     1       4.805   2.928  16.933  0.00  0.00    +0.000 N 
ATOM      4  C   UNL     1       3.794   3.083  17.850  0.00  0.00    +0.000 A 
ATOM      5  S   UNL     1       3.124   1.815  18.675  0.00  0.00    +0.000 S 
ATOM      6  N   UNL     1       3.364   4.427  18.045  0.00  0.00    +0.000 N 
ATOM      7  C   UNL     1       4.003   5.439  17.357  0.00  0.00    +0.000 A 
ATOM      8  C   UNL     1       3.830   6.803  17.408  0.00  0.00    +0.000 A 
ATOM      9  C   UNL     1       4.738   7.274  16.419  0.00  0.00    +0.000 A 
ATOM     10  N   UNL     1       5.438   6.296  15.833  0.00  0.00    +0.000 NA
ATOM     11  N   UNL     1       4.987   5.178  16.439  0.00  0.00    +0.000 N 
ATOM     12  H   UNL     1       5.121   1.980  16.767  0.00  0.00    +0.000 HD
ATOM     13  H   UNL     1       2.589   4.622  18.670  0.00  0.00    +0.000 HD
ENDROOT
BRANCH   8  14
ATOM     14  C   UNL     1       2.915   7.546  18.260  0.00  0.00    +0.000 A 
ATOM     15  C   UNL     1       2.621   7.126  19.566  0.00  0.00    +0.000 A 
ATOM     16  C   UNL     1       1.724   7.844  20.364  0.00  0.00    +0.000 A 
ATOM     17  C   UNL     1       1.146   9.014  19.879  0.00  0.00    +0.000 A 
ATOM     18  I   UNL     1      -0.164  10.091  21.076  0.00  0.00    +0.000 I 
ATOM     19  C   UNL     1       1.457   9.469  18.600  0.00  0.00    +0.000 A 
ATOM     20  C   UNL     1       2.334   8.735  17.792  0.00  0.00    +0.000 A 
ENDBRANCH   8  14
TORSDOF 1
ENDMDL
MODEL 8
REMARK VINA RESULT:      -6.6      2.355      2.850
REMARK  Name = 
REMARK  1 active torsions:
REMARK  status: ('A' for Active; 'I' for Inactive)
REMARK    1  A    between atoms: C_8  and  C_9
REMARK                            x       y       z     vdW  Elec       q    Type
REMARK                         _______ _______ _______ _____ _____    ______ ____
ROOT
ATOM      1  O   UNL     1       6.275   3.625  15.891  0.00  0.00    +0.000 OA
ATOM      2  C   UNL     1       6.033   4.667  16.483  0.00  0.00    +0.000 A 
ATOM      3  N   UNL     1       6.940   5.694  16.690  0.00  0.00    +0.000 N 
ATOM      4  C   UNL     1       6.774   6.876  17.371  0.00  0.00    +0.000 A 
ATOM      5  S   UNL     1       7.979   7.998  17.536  0.00  0.00    +0.000 S 
ATOM      6  N   UNL     1       5.476   7.070  17.925  0.00  0.00    +0.000 N 
ATOM      7  C   UNL     1       4.506   6.113  17.705  0.00  0.00    +0.000 A 
ATOM      8  C   UNL     1       3.179   6.085  18.067  0.00  0.00    +0.000 A 
ATOM      9  C   UNL     1       2.752   4.809  17.605  0.00  0.00    +0.000 A 
ATOM     10  N   UNL     1       3.715   4.122  16.980  0.00  0.00    +0.000 NA
ATOM     11  N   UNL     1       4.780   4.950  17.033  0.00  0.00    +0.000 N 
ATOM     12  H   UNL     1       7.858   5.527  16.296  0.00  0.00    +0.000 HD
ATOM     13  H   UNL     1       5.285   7.896  18.483  0.00  0.00    +0.000 HD
ENDROOT
BRANCH   8  14
ATOM     14  C   UNL     1       2.433   7.115  18.772  0.00  0.00    +0.000 A 
ATOM     15  C   UNL     1       2.109   6.989  20.131  0.00  0.00    +0.000 A 
ATOM     16  C   UNL     1       1.375   7.982  20.788  0.00  0.00    +0.000 A 
ATOM     17  C   UNL     1       0.995   9.133  20.102  0.00  0.00    +0.000 A 
ATOM     18  I   UNL     1      -0.071  10.617  21.087  0.00  0.00    +0.000 I 
ATOM     19  C   UNL     1       1.342   9.295  18.764  0.00  0.00    +0.000 A 
ATOM     20  C   UNL     1       2.054   8.288  18.100  0.00  0.00    +0.000 A 
ENDBRANCH   8  14
TORSDOF 1
ENDMDL
MODEL 9
REMARK VINA RESULT:      -6.6      2.412      3.413
REMARK  Name = 
REMARK  1 active torsions:
REMARK  status: ('A' for Active; 'I' for Inactive)
REMARK    1  A    between atoms: C_8  and  C_9
REMARK                            x       y       z     vdW  Elec       q    Type
REMARK                         _______ _______ _______ _____ _____    ______ ____
ROOT
ATOM      1  O   UNL     1       4.537   4.232  17.451  0.00  0.00    +0.000 OA
ATOM      2  C   UNL     1       3.786   4.612  18.338  0.00  0.00    +0.000 A 
ATOM      3  N   UNL     1       3.314   3.822  19.375  0.00  0.00    +0.000 N 
ATOM      4  C   UNL     1       2.443   4.147  20.387  0.00  0.00    +0.000 A 
ATOM      5  S   UNL     1       1.968   3.067  21.547  0.00  0.00    +0.000 S 
ATOM      6  N   UNL     1       1.980   5.494  20.369  0.00  0.00    +0.000 N 
ATOM      7  C   UNL     1       2.459   6.352  19.399  0.00  0.00    +0.000 A 
ATOM      8  C   UNL     1       2.227   7.693  19.198  0.00  0.00    +0.000 A 
ATOM      9  C   UNL     1       2.953   7.964  18.005  0.00  0.00    +0.000 A 
ATOM     10  N   UNL     1       3.606   6.898  17.528  0.00  0.00    +0.000 NA
ATOM     11  N   UNL     1       3.307   5.923  18.412  0.00  0.00    +0.000 N 
ATOM     12  H   UNL     1       3.649   2.867  19.358  0.00  0.00    +0.000 HD
ATOM     13  H   UNL     1       1.298   5.801  21.055  0.00  0.00    +0.000 HD
ENDROOT
BRANCH   8  14
ATOM     14  C   UNL     1       1.413   8.581  20.013  0.00  0.00    +0.000 A 
ATOM     15  C   UNL     1       1.339   8.439  21.407  0.00  0.00    +0.000 A 
ATOM     16  C   UNL     1       0.535   9.290  22.173  0.00  0.00    +0.000 A 
ATOM     17  C   UNL     1      -0.168  10.322  21.555  0.00  0.00    +0.000 A 
ATOM     18  I   UNL     1      -1.338  11.600  22.697  0.00  0.00    +0.000 I 
ATOM     19  C   UNL     1      -0.076  10.504  20.178  0.00  0.00    +0.000 A 
ATOM     20  C   UNL     1       0.708   9.634  19.410  0.00  0.00    +0.000 A 
ENDBRANCH   8  14
TORSDOF 1
ENDMDL
