MODEL 1
REMARK VINA RESULT:      -7.2      0.000      0.000
REMARK  Name = 
REMARK  6 active torsions:
REMARK  status: ('A' for Active; 'I' for Inactive)
REMARK    1  A    between atoms: C_1  and  C_2
REMARK    2  A    between atoms: C_2  and  O_3
REMARK    3  A    between atoms: O_3  and  C_4
REMARK    4  A    between atoms: C_7  and  C_8
REMARK    5  A    between atoms: N_10  and  C_11
REMARK    6  A    between atoms: C_14  and  C_15
REMARK                            x       y       z     vdW  Elec       q    Type
REMARK                         _______ _______ _______ _____ _____    ______ ____
ROOT
ATOM      1  C   UNL     1       2.861   6.188  18.131  0.00  0.00    +0.000 C 
ATOM      2  O   UNL     1       2.036   5.470  18.687  0.00  0.00    +0.000 OA
ATOM      3  N   UNL     1       2.907   7.573  18.167  0.00  0.00    +0.000 N 
ATOM      4  H   UNL     1       3.624   8.046  17.635  0.00  0.00    +0.000 HD
ENDROOT
BRANCH   1   8
ATOM      5  C   UNL     1       5.771   4.291  15.644  0.00  0.00    +0.000 A 
ATOM      6  C   UNL     1       5.669   5.678  15.706  0.00  0.00    +0.000 A 
ATOM      7  C   UNL     1       4.739   6.268  16.555  0.00  0.00    +0.000 A 
ATOM      8  C   UNL     1       3.893   5.475  17.343  0.00  0.00    +0.000 A 
ATOM      9  C   UNL     1       3.973   4.083  17.266  0.00  0.00    +0.000 A 
ATOM     10  C   UNL     1       4.910   3.493  16.408  0.00  0.00    +0.000 A 
BRANCH   5  11
ATOM     11  O   UNL     1       6.721   3.829  14.780  0.00  0.00    +0.000 OA
BRANCH  11  13
ATOM     12  C   UNL     1       5.981   3.433  12.558  0.00  0.00    +0.000 C 
ATOM     13  C   UNL     1       6.706   4.401  13.474  0.00  0.00    +0.000 C 
ENDBRANCH  11  13
ENDBRANCH   5  11
ENDBRANCH   1   8
BRANCH   3  14
ATOM     14  C   UNL     1       1.977   8.397  18.858  0.00  0.00    +0.000 A 
ATOM     15  C   UNL     1       1.693   8.235  20.214  0.00  0.00    +0.000 A 
ATOM     16  C   UNL     1       0.788   9.063  20.872  0.00  0.00    +0.000 A 
ATOM     17  C   UNL     1       0.121  10.083  20.190  0.00  0.00    +0.000 A 
ATOM     18  C   UNL     1       0.396  10.254  18.825  0.00  0.00    +0.000 A 
ATOM     19  C   UNL     1       1.312   9.415  18.163  0.00  0.00    +0.000 A 
BRANCH  17  20
ATOM     20  C   UNL     1      -0.838  10.985  20.940  0.00  0.00    +0.000 C 
ATOM     21  C   UNL     1      -0.454  12.477  20.753  0.00  0.00    +0.000 C 
ATOM     22  N   UNL     1      -1.295  13.394  21.554  0.00  0.00    +0.000 NA
ATOM     23  C   UNL     1      -1.233  12.958  22.962  0.00  0.00    +0.000 C 
ATOM     24  C   UNL     1      -1.630  11.484  23.128  0.00  0.00    +0.000 C 
ATOM     25  O   UNL     1      -0.808  10.625  22.337  0.00  0.00    +0.000 OA
ATOM     26  H   UNL     1      -2.260  13.310  21.233  0.00  0.00    +0.000 HD
ENDBRANCH  17  20
ENDBRANCH   3  14
TORSDOF 5
ENDMDL
MODEL 2
REMARK VINA RESULT:      -7.2      6.786      9.656
REMARK  Name = 
REMARK  6 active torsions:
REMARK  status: ('A' for Active; 'I' for Inactive)
REMARK    1  A    between atoms: C_1  and  C_2
REMARK    2  A    between atoms: C_2  and  O_3
REMARK    3  A    between atoms: O_3  and  C_4
REMARK    4  A    between atoms: C_7  and  C_8
REMARK    5  A    between atoms: N_10  and  C_11
REMARK    6  A    between atoms: C_14  and  C_15
REMARK                            x       y       z     vdW  Elec       q    Type
REMARK                         _______ _______ _______ _____ _____    ______ ____
ROOT
ATOM      1  C   UNL     1       8.887   9.942  18.477  0.00  0.00    +0.000 C 
ATOM      2  O   UNL     1       9.031   9.591  19.645  0.00  0.00    +0.000 OA
ATOM      3  N   UNL     1       8.219   9.245  17.483  0.00  0.00    +0.000 N 
ATOM      4  H   UNL     1       8.203   9.632  16.549  0.00  0.00    +0.000 HD
ENDROOT
BRANCH   1   8
ATOM      5  C   UNL     1      10.865  13.639  17.657  0.00  0.00    +0.000 A 
ATOM      6  C   UNL     1      11.581  12.453  17.798  0.00  0.00    +0.000 A 
ATOM      7  C   UNL     1      10.907  11.259  18.024  0.00  0.00    +0.000 A 
ATOM      8  C   UNL     1       9.509  11.240  18.124  0.00  0.00    +0.000 A 
ATOM      9  C   UNL     1       8.786  12.429  18.009  0.00  0.00    +0.000 A 
ATOM     10  C   UNL     1       9.471  13.631  17.783  0.00  0.00    +0.000 A 
BRANCH   5  11
ATOM     11  O   UNL     1      11.634  14.744  17.433  0.00  0.00    +0.000 OA
BRANCH  11  13
ATOM     12  C   UNL     1      11.491  17.115  17.423  0.00  0.00    +0.000 C 
ATOM     13  C   UNL     1      10.982  15.835  16.788  0.00  0.00    +0.000 C 
ENDBRANCH  11  13
ENDBRANCH   5  11
ENDBRANCH   1   8
BRANCH   3  14
ATOM     14  C   UNL     1       7.594   7.981  17.660  0.00  0.00    +0.000 A 
ATOM     15  C   UNL     1       8.146   6.973  18.450  0.00  0.00    +0.000 A 
ATOM     16  C   UNL     1       7.509   5.748  18.619  0.00  0.00    +0.000 A 
ATOM     17  C   UNL     1       6.291   5.480  17.990  0.00  0.00    +0.000 A 
ATOM     18  C   UNL     1       5.725   6.485  17.191  0.00  0.00    +0.000 A 
ATOM     19  C   UNL     1       6.374   7.723  17.022  0.00  0.00    +0.000 A 
BRANCH  17  20
ATOM     20  C   UNL     1       5.607   4.147  18.215  0.00  0.00    +0.000 C 
ATOM     21  C   UNL     1       4.345   4.014  17.321  0.00  0.00    +0.000 C 
ATOM     22  N   UNL     1       3.580   2.774  17.584  0.00  0.00    +0.000 NA
ATOM     23  C   UNL     1       3.269   2.725  19.024  0.00  0.00    +0.000 C 
ATOM     24  C   UNL     1       4.530   2.845  19.891  0.00  0.00    +0.000 C 
ATOM     25  O   UNL     1       5.252   4.044  19.610  0.00  0.00    +0.000 OA
ATOM     26  H   UNL     1       4.172   1.976  17.355  0.00  0.00    +0.000 HD
ENDBRANCH  17  20
ENDBRANCH   3  14
TORSDOF 5
ENDMDL
MODEL 3
REMARK VINA RESULT:      -7.2      6.658      9.571
REMARK  Name = 
REMARK  6 active torsions:
REMARK  status: ('A' for Active; 'I' for Inactive)
REMARK    1  A    between atoms: C_1  and  C_2
REMARK    2  A    between atoms: C_2  and  O_3
REMARK    3  A    between atoms: O_3  and  C_4
REMARK    4  A    between atoms: C_7  and  C_8
REMARK    5  A    between atoms: N_10  and  C_11
REMARK    6  A    between atoms: C_14  and  C_15
REMARK                            x       y       z     vdW  Elec       q    Type
REMARK                         _______ _______ _______ _____ _____    ______ ____
ROOT
ATOM      1  C   UNL     1       8.921   9.795  18.549  0.00  0.00    +0.000 C 
ATOM      2  O   UNL     1       9.076   9.406  19.702  0.00  0.00    +0.000 OA
ATOM      3  N   UNL     1       8.218   9.146  17.547  0.00  0.00    +0.000 N 
ATOM      4  H   UNL     1       8.196   9.561  16.625  0.00  0.00    +0.000 HD
ENDROOT
BRANCH   1   8
ATOM      5  C   UNL     1      10.617  13.544  17.398  0.00  0.00    +0.000 A 
ATOM      6  C   UNL     1       9.238  13.374  17.490  0.00  0.00    +0.000 A 
ATOM      7  C   UNL     1       8.717  12.154  17.907  0.00  0.00    +0.000 A 
ATOM      8  C   UNL     1       9.569  11.087  18.224  0.00  0.00    +0.000 A 
ATOM      9  C   UNL     1      10.952  11.243  18.108  0.00  0.00    +0.000 A 
ATOM     10  C   UNL     1      11.473  12.474  17.686  0.00  0.00    +0.000 A 
BRANCH   5  11
ATOM     11  O   UNL     1      11.010  14.783  16.984  0.00  0.00    +0.000 OA
BRANCH  11  13
ATOM     12  C   UNL     1      11.163  17.130  17.318  0.00  0.00    +0.000 C 
ATOM     13  C   UNL     1      10.341  15.884  17.593  0.00  0.00    +0.000 C 
ENDBRANCH  11  13
ENDBRANCH   5  11
ENDBRANCH   1   8
BRANCH   3  14
ATOM     14  C   UNL     1       7.564   7.893  17.697  0.00  0.00    +0.000 A 
ATOM     15  C   UNL     1       8.071   6.871  18.499  0.00  0.00    +0.000 A 
ATOM     16  C   UNL     1       7.406   5.658  18.641  0.00  0.00    +0.000 A 
ATOM     17  C   UNL     1       6.204   5.415  17.972  0.00  0.00    +0.000 A 
ATOM     18  C   UNL     1       5.684   6.434  17.160  0.00  0.00    +0.000 A 
ATOM     19  C   UNL     1       6.360   7.660  17.018  0.00  0.00    +0.000 A 
BRANCH  17  20
ATOM     20  C   UNL     1       5.489   4.094  18.169  0.00  0.00    +0.000 C 
ATOM     21  C   UNL     1       4.149   4.068  17.385  0.00  0.00    +0.000 C 
ATOM     22  N   UNL     1       3.360   2.841  17.632  0.00  0.00    +0.000 NA
ATOM     23  C   UNL     1       3.175   2.702  19.089  0.00  0.00    +0.000 C 
ATOM     24  C   UNL     1       4.511   2.715  19.844  0.00  0.00    +0.000 C 
ATOM     25  O   UNL     1       5.254   3.906  19.580  0.00  0.00    +0.000 OA
ATOM     26  H   UNL     1       3.896   2.041  17.298  0.00  0.00    +0.000 HD
ENDBRANCH  17  20
ENDBRANCH   3  14
TORSDOF 5
ENDMDL
MODEL 4
REMARK VINA RESULT:      -7.1      6.483      9.467
REMARK  Name = 
REMARK  6 active torsions:
REMARK  status: ('A' for Active; 'I' for Inactive)
REMARK    1  A    between atoms: C_1  and  C_2
REMARK    2  A    between atoms: C_2  and  O_3
REMARK    3  A    between atoms: O_3  and  C_4
REMARK    4  A    between atoms: C_7  and  C_8
REMARK    5  A    between atoms: N_10  and  C_11
REMARK    6  A    between atoms: C_14  and  C_15
REMARK                            x       y       z     vdW  Elec       q    Type
REMARK                         _______ _______ _______ _____ _____    ______ ____
ROOT
ATOM      1  C   UNL     1       8.461   9.393  18.281  0.00  0.00    +0.000 C 
ATOM      2  O   UNL     1       7.492   9.843  17.677  0.00  0.00    +0.000 OA
ATOM      3  N   UNL     1       8.655   8.076  18.665  0.00  0.00    +0.000 N 
ATOM      4  H   UNL     1       9.487   7.843  19.190  0.00  0.00    +0.000 HD
ENDROOT
BRANCH   1   8
ATOM      5  C   UNL     1      11.296  12.369  19.448  0.00  0.00    +0.000 A 
ATOM      6  C   UNL     1      10.537  11.684  20.394  0.00  0.00    +0.000 A 
ATOM      7  C   UNL     1       9.652  10.692  19.987  0.00  0.00    +0.000 A 
ATOM      8  C   UNL     1       9.507  10.384  18.627  0.00  0.00    +0.000 A 
ATOM      9  C   UNL     1      10.245  11.084  17.671  0.00  0.00    +0.000 A 
ATOM     10  C   UNL     1      11.135  12.084  18.087  0.00  0.00    +0.000 A 
BRANCH   5  11
ATOM     11  O   UNL     1      12.132  13.315  19.966  0.00  0.00    +0.000 OA
BRANCH  11  13
ATOM     12  C   UNL     1      11.026  15.416  19.902  0.00  0.00    +0.000 C 
ATOM     13  C   UNL     1      12.135  14.574  19.299  0.00  0.00    +0.000 C 
ENDBRANCH  11  13
ENDBRANCH   5  11
ENDBRANCH   1   8
BRANCH   3  14
ATOM     14  C   UNL     1       7.735   7.019  18.427  0.00  0.00    +0.000 A 
ATOM     15  C   UNL     1       7.666   5.886  19.237  0.00  0.00    +0.000 A 
ATOM     16  C   UNL     1       6.748   4.869  18.991  0.00  0.00    +0.000 A 
ATOM     17  C   UNL     1       5.866   4.945  17.910  0.00  0.00    +0.000 A 
ATOM     18  C   UNL     1       5.927   6.078  17.086  0.00  0.00    +0.000 A 
ATOM     19  C   UNL     1       6.857   7.104  17.338  0.00  0.00    +0.000 A 
BRANCH  17  20
ATOM     20  C   UNL     1       4.858   3.836  17.684  0.00  0.00    +0.000 C 
ATOM     21  C   UNL     1       3.509   4.408  17.175  0.00  0.00    +0.000 C 
ATOM     22  N   UNL     1       2.457   3.376  17.043  0.00  0.00    +0.000 NA
ATOM     23  C   UNL     1       2.332   2.682  18.338  0.00  0.00    +0.000 C 
ATOM     24  C   UNL     1       3.674   2.111  18.818  0.00  0.00    +0.000 C 
ATOM     25  O   UNL     1       4.671   3.127  18.927  0.00  0.00    +0.000 OA
ATOM     26  H   UNL     1       2.757   2.698  16.342  0.00  0.00    +0.000 HD
ENDBRANCH  17  20
ENDBRANCH   3  14
TORSDOF 5
ENDMDL
MODEL 5
REMARK VINA RESULT:      -7.1      6.805      9.691
REMARK  Name = 
REMARK  6 active torsions:
REMARK  status: ('A' for Active; 'I' for Inactive)
REMARK    1  A    between atoms: C_1  and  C_2
REMARK    2  A    between atoms: C_2  and  O_3
REMARK    3  A    between atoms: O_3  and  C_4
REMARK    4  A    between atoms: C_7  and  C_8
REMARK    5  A    between atoms: N_10  and  C_11
REMARK    6  A    between atoms: C_14  and  C_15
REMARK                            x       y       z     vdW  Elec       q    Type
REMARK                         _______ _______ _______ _____ _____    ______ ____
ROOT
ATOM      1  C   UNL     1       8.969  10.043  18.632  0.00  0.00    +0.000 C 
ATOM      2  O   UNL     1       8.939   9.745  19.823  0.00  0.00    +0.000 OA
ATOM      3  N   UNL     1       8.406   9.327  17.588  0.00  0.00    +0.000 N 
ATOM      4  H   UNL     1       8.533   9.668  16.645  0.00  0.00    +0.000 HD
ENDROOT
BRANCH   1   8
ATOM      5  C   UNL     1      10.862  13.710  17.526  0.00  0.00    +0.000 A 
ATOM      6  C   UNL     1       9.504  13.661  17.825  0.00  0.00    +0.000 A 
ATOM      7  C   UNL     1       8.924  12.461  18.222  0.00  0.00    +0.000 A 
ATOM      8  C   UNL     1       9.695  11.294  18.311  0.00  0.00    +0.000 A 
ATOM      9  C   UNL     1      11.052  11.330  17.986  0.00  0.00    +0.000 A 
ATOM     10  C   UNL     1      11.632  12.542  17.585  0.00  0.00    +0.000 A 
BRANCH   5  11
ATOM     11  O   UNL     1      11.319  14.941  17.153  0.00  0.00    +0.000 OA
BRANCH  11  13
ATOM     12  C   UNL     1      11.046  17.281  17.454  0.00  0.00    +0.000 C 
ATOM     13  C   UNL     1      10.344  15.980  17.114  0.00  0.00    +0.000 C 
ENDBRANCH  11  13
ENDBRANCH   5  11
ENDBRANCH   1   8
BRANCH   3  14
ATOM     14  C   UNL     1       7.701   8.101  17.734  0.00  0.00    +0.000 A 
ATOM     15  C   UNL     1       6.489   7.850  17.091  0.00  0.00    +0.000 A 
ATOM     16  C   UNL     1       5.824   6.637  17.239  0.00  0.00    +0.000 A 
ATOM     17  C   UNL     1       6.346   5.626  18.050  0.00  0.00    +0.000 A 
ATOM     18  C   UNL     1       7.564   5.867  18.703  0.00  0.00    +0.000 A 
ATOM     19  C   UNL     1       8.233   7.096  18.552  0.00  0.00    +0.000 A 
BRANCH  17  20
ATOM     20  C   UNL     1       5.613   4.306  18.169  0.00  0.00    +0.000 C 
ATOM     21  C   UNL     1       4.323   4.308  17.305  0.00  0.00    +0.000 C 
ATOM     22  N   UNL     1       3.514   3.081  17.473  0.00  0.00    +0.000 NA
ATOM     23  C   UNL     1       3.240   2.906  18.911  0.00  0.00    +0.000 C 
ATOM     24  C   UNL     1       4.529   2.891  19.746  0.00  0.00    +0.000 C 
ATOM     25  O   UNL     1       5.292   4.083  19.558  0.00  0.00    +0.000 OA
ATOM     26  H   UNL     1       4.065   2.286  17.151  0.00  0.00    +0.000 HD
ENDBRANCH  17  20
ENDBRANCH   3  14
TORSDOF 5
ENDMDL
MODEL 6
REMARK VINA RESULT:      -7.1      0.261      1.013
REMARK  Name = 
REMARK  6 active torsions:
REMARK  status: ('A' for Active; 'I' for Inactive)
REMARK    1  A    between atoms: C_1  and  C_2
REMARK    2  A    between atoms: C_2  and  O_3
REMARK    3  A    between atoms: O_3  and  C_4
REMARK    4  A    between atoms: C_7  and  C_8
REMARK    5  A    between atoms: N_10  and  C_11
REMARK    6  A    between atoms: C_14  and  C_15
REMARK                            x       y       z     vdW  Elec       q    Type
REMARK                         _______ _______ _______ _____ _____    ______ ____
ROOT
ATOM      1  C   UNL     1       2.825   6.283  18.366  0.00  0.00    +0.000 C 
ATOM      2  O   UNL     1       2.168   5.633  19.173  0.00  0.00    +0.000 OA
ATOM      3  N   UNL     1       2.739   7.648  18.141  0.00  0.00    +0.000 N 
ATOM      4  H   UNL     1       3.317   8.056  17.419  0.00  0.00    +0.000 HD
ENDROOT
BRANCH   1   8
ATOM      5  C   UNL     1       5.549   4.189  15.827  0.00  0.00    +0.000 A 
ATOM      6  C   UNL     1       5.529   5.581  15.871  0.00  0.00    +0.000 A 
ATOM      7  C   UNL     1       4.659   6.234  16.738  0.00  0.00    +0.000 A 
ATOM      8  C   UNL     1       3.791   5.501  17.559  0.00  0.00    +0.000 A 
ATOM      9  C   UNL     1       3.788   4.106  17.501  0.00  0.00    +0.000 A 
ATOM     10  C   UNL     1       4.666   3.452  16.625  0.00  0.00    +0.000 A 
BRANCH   5  11
ATOM     11  O   UNL     1       6.446   3.662  14.943  0.00  0.00    +0.000 OA
BRANCH  11  13
ATOM     12  C   UNL     1       6.280   3.630  12.574  0.00  0.00    +0.000 C 
ATOM     13  C   UNL     1       6.708   4.444  13.781  0.00  0.00    +0.000 C 
ENDBRANCH  11  13
ENDBRANCH   5  11
ENDBRANCH   1   8
BRANCH   3  14
ATOM     14  C   UNL     1       1.848   8.526  18.816  0.00  0.00    +0.000 A 
ATOM     15  C   UNL     1       1.161   9.548  18.162  0.00  0.00    +0.000 A 
ATOM     16  C   UNL     1       0.283  10.387  18.841  0.00  0.00    +0.000 A 
ATOM     17  C   UNL     1       0.066  10.239  20.213  0.00  0.00    +0.000 A 
ATOM     18  C   UNL     1       0.753   9.216  20.884  0.00  0.00    +0.000 A 
ATOM     19  C   UNL     1       1.641   8.370  20.193  0.00  0.00    +0.000 A 
BRANCH  17  20
ATOM     20  C   UNL     1      -0.917  11.150  20.921  0.00  0.00    +0.000 C 
ATOM     21  C   UNL     1      -0.527  12.640  20.730  0.00  0.00    +0.000 C 
ATOM     22  N   UNL     1      -1.394  13.565  21.493  0.00  0.00    +0.000 NA
ATOM     23  C   UNL     1      -1.379  13.145  22.907  0.00  0.00    +0.000 C 
ATOM     24  C   UNL     1      -1.781  11.673  23.075  0.00  0.00    +0.000 C 
ATOM     25  O   UNL     1      -0.933  10.805  22.322  0.00  0.00    +0.000 OA
ATOM     26  H   UNL     1      -2.347  13.477  21.141  0.00  0.00    +0.000 HD
ENDBRANCH  17  20
ENDBRANCH   3  14
TORSDOF 5
ENDMDL
MODEL 7
REMARK VINA RESULT:      -7.1      2.361     10.160
REMARK  Name = 
REMARK  6 active torsions:
REMARK  status: ('A' for Active; 'I' for Inactive)
REMARK    1  A    between atoms: C_1  and  C_2
REMARK    2  A    between atoms: C_2  and  O_3
REMARK    3  A    between atoms: O_3  and  C_4
REMARK    4  A    between atoms: C_7  and  C_8
REMARK    5  A    between atoms: N_10  and  C_11
REMARK    6  A    between atoms: C_14  and  C_15
REMARK                            x       y       z     vdW  Elec       q    Type
REMARK                         _______ _______ _______ _____ _____    ______ ____
ROOT
ATOM      1  C   UNL     1       0.630   9.931  21.176  0.00  0.00    +0.000 C 
ATOM      2  O   UNL     1       1.490   9.752  22.033  0.00  0.00    +0.000 OA
ATOM      3  N   UNL     1       0.586   9.350  19.918  0.00  0.00    +0.000 N 
ATOM      4  H   UNL     1      -0.164   9.611  19.292  0.00  0.00    +0.000 HD
ENDROOT
BRANCH   1   8
ATOM      5  C   UNL     1      -2.607  12.447  22.377  0.00  0.00    +0.000 A 
ATOM      6  C   UNL     1      -1.979  11.598  23.283  0.00  0.00    +0.000 A 
ATOM      7  C   UNL     1      -0.901  10.821  22.873  0.00  0.00    +0.000 A 
ATOM      8  C   UNL     1      -0.449  10.876  21.548  0.00  0.00    +0.000 A 
ATOM      9  C   UNL     1      -1.091  11.706  20.627  0.00  0.00    +0.000 A 
ATOM     10  C   UNL     1      -2.178  12.487  21.045  0.00  0.00    +0.000 A 
BRANCH   5  11
ATOM     11  O   UNL     1      -3.647  13.163  22.895  0.00  0.00    +0.000 OA
BRANCH  11  13
ATOM     12  C   UNL     1      -5.959  13.054  23.429  0.00  0.00    +0.000 C 
ATOM     13  C   UNL     1      -4.928  12.898  22.327  0.00  0.00    +0.000 C 
ENDBRANCH  11  13
ENDBRANCH   5  11
ENDBRANCH   1   8
BRANCH   3  14
ATOM     14  C   UNL     1       1.556   8.445  19.409  0.00  0.00    +0.000 A 
ATOM     15  C   UNL     1       1.928   7.283  20.085  0.00  0.00    +0.000 A 
ATOM     16  C   UNL     1       2.872   6.406  19.560  0.00  0.00    +0.000 A 
ATOM     17  C   UNL     1       3.492   6.666  18.336  0.00  0.00    +0.000 A 
ATOM     18  C   UNL     1       3.128   7.833  17.647  0.00  0.00    +0.000 A 
ATOM     19  C   UNL     1       2.173   8.719  18.181  0.00  0.00    +0.000 A 
BRANCH  17  20
ATOM     20  C   UNL     1       4.495   5.678  17.777  0.00  0.00    +0.000 C 
ATOM     21  C   UNL     1       5.201   4.900  18.919  0.00  0.00    +0.000 C 
ATOM     22  N   UNL     1       6.269   4.000  18.430  0.00  0.00    +0.000 NA
ATOM     23  C   UNL     1       7.205   4.799  17.617  0.00  0.00    +0.000 C 
ATOM     24  C   UNL     1       6.489   5.549  16.484  0.00  0.00    +0.000 C 
ATOM     25  O   UNL     1       5.460   6.403  16.985  0.00  0.00    +0.000 OA
ATOM     26  H   UNL     1       5.844   3.293  17.830  0.00  0.00    +0.000 HD
ENDBRANCH  17  20
ENDBRANCH   3  14
TORSDOF 5
ENDMDL
MODEL 8
REMARK VINA RESULT:      -7.1      2.183     10.152
REMARK  Name = 
REMARK  6 active torsions:
REMARK  status: ('A' for Active; 'I' for Inactive)
REMARK    1  A    between atoms: C_1  and  C_2
REMARK    2  A    between atoms: C_2  and  O_3
REMARK    3  A    between atoms: O_3  and  C_4
REMARK    4  A    between atoms: C_7  and  C_8
REMARK    5  A    between atoms: N_10  and  C_11
REMARK    6  A    between atoms: C_14  and  C_15
REMARK                            x       y       z     vdW  Elec       q    Type
REMARK                         _______ _______ _______ _____ _____    ______ ____
ROOT
ATOM      1  C   UNL     1       0.504   9.675  19.798  0.00  0.00    +0.000 C 
ATOM      2  O   UNL     1       0.328   9.970  18.620  0.00  0.00    +0.000 OA
ATOM      3  N   UNL     1       1.338   8.680  20.284  0.00  0.00    +0.000 N 
ATOM      4  H   UNL     1       1.366   8.517  21.282  0.00  0.00    +0.000 HD
ENDROOT
BRANCH   1   8
ATOM      5  C   UNL     1      -1.823  11.742  22.724  0.00  0.00    +0.000 A 
ATOM      6  C   UNL     1      -0.979  10.695  23.082  0.00  0.00    +0.000 A 
ATOM      7  C   UNL     1      -0.203  10.067  22.114  0.00  0.00    +0.000 A 
ATOM      8  C   UNL     1      -0.273  10.474  20.774  0.00  0.00    +0.000 A 
ATOM      9  C   UNL     1      -1.136  11.507  20.404  0.00  0.00    +0.000 A 
ATOM     10  C   UNL     1      -1.918  12.135  21.384  0.00  0.00    +0.000 A 
BRANCH   5  11
ATOM     11  O   UNL     1      -2.530  12.282  23.759  0.00  0.00    +0.000 OA
BRANCH  11  13
ATOM     12  C   UNL     1      -4.668  12.407  24.785  0.00  0.00    +0.000 C 
ATOM     13  C   UNL     1      -3.897  12.580  23.490  0.00  0.00    +0.000 C 
ENDBRANCH  11  13
ENDBRANCH   5  11
ENDBRANCH   1   8
BRANCH   3  14
ATOM     14  C   UNL     1       2.127   7.818  19.475  0.00  0.00    +0.000 A 
ATOM     15  C   UNL     1       2.672   8.221  18.257  0.00  0.00    +0.000 A 
ATOM     16  C   UNL     1       3.452   7.362  17.488  0.00  0.00    +0.000 A 
ATOM     17  C   UNL     1       3.709   6.056  17.909  0.00  0.00    +0.000 A 
ATOM     18  C   UNL     1       3.165   5.637  19.132  0.00  0.00    +0.000 A 
ATOM     19  C   UNL     1       2.376   6.508  19.907  0.00  0.00    +0.000 A 
BRANCH  17  20
ATOM     20  C   UNL     1       4.586   5.153  17.064  0.00  0.00    +0.000 C 
ATOM     21  C   UNL     1       5.897   4.796  17.813  0.00  0.00    +0.000 C 
ATOM     22  N   UNL     1       6.836   4.006  16.986  0.00  0.00    +0.000 NA
ATOM     23  C   UNL     1       7.076   4.744  15.732  0.00  0.00    +0.000 C 
ATOM     24  C   UNL     1       5.768   5.075  15.000  0.00  0.00    +0.000 C 
ATOM     25  O   UNL     1       4.878   5.830  15.823  0.00  0.00    +0.000 OA
ATOM     26  H   UNL     1       6.393   3.116  16.757  0.00  0.00    +0.000 HD
ENDBRANCH  17  20
ENDBRANCH   3  14
TORSDOF 5
ENDMDL
MODEL 9
REMARK VINA RESULT:      -7.1      2.381     10.048
REMARK  Name = 
REMARK  6 active torsions:
REMARK  status: ('A' for Active; 'I' for Inactive)
REMARK    1  A    between atoms: C_1  and  C_2
REMARK    2  A    between atoms: C_2  and  O_3
REMARK    3  A    between atoms: O_3  and  C_4
REMARK    4  A    between atoms: C_7  and  C_8
REMARK    5  A    between atoms: N_10  and  C_11
REMARK    6  A    between atoms: C_14  and  C_15
REMARK                            x       y       z     vdW  Elec       q    Type
REMARK                         _______ _______ _______ _____ _____    ______ ____
ROOT
ATOM      1  C   UNL     1       0.600   9.858  21.242  0.00  0.00    +0.000 C 
ATOM      2  O   UNL     1       1.503   9.749  22.066  0.00  0.00    +0.000 OA
ATOM      3  N   UNL     1       0.535   9.241  20.002  0.00  0.00    +0.000 N 
ATOM      4  H   UNL     1      -0.253   9.444  19.403  0.00  0.00    +0.000 HD
ENDROOT
BRANCH   1   8
ATOM      5  C   UNL     1      -2.474  12.644  22.264  0.00  0.00    +0.000 A 
ATOM      6  C   UNL     1      -1.932  12.605  20.983  0.00  0.00    +0.000 A 
ATOM      7  C   UNL     1      -0.962  11.660  20.668  0.00  0.00    +0.000 A 
ATOM      8  C   UNL     1      -0.514  10.752  21.637  0.00  0.00    +0.000 A 
ATOM      9  C   UNL     1      -1.034  10.802  22.932  0.00  0.00    +0.000 A 
ATOM     10  C   UNL     1      -2.011  11.757  23.245  0.00  0.00    +0.000 A 
BRANCH   5  11
ATOM     11  O   UNL     1      -3.420  13.609  22.453  0.00  0.00    +0.000 OA
BRANCH  11  13
ATOM     12  C   UNL     1      -5.569  12.802  21.842  0.00  0.00    +0.000 C 
ATOM     13  C   UNL     1      -4.659  13.167  23.001  0.00  0.00    +0.000 C 
ENDBRANCH  11  13
ENDBRANCH   5  11
ENDBRANCH   1   8
BRANCH   3  14
ATOM     14  C   UNL     1       1.533   8.378  19.475  0.00  0.00    +0.000 A 
ATOM     15  C   UNL     1       1.934   7.209  20.121  0.00  0.00    +0.000 A 
ATOM     16  C   UNL     1       2.904   6.373  19.578  0.00  0.00    +0.000 A 
ATOM     17  C   UNL     1       3.521   6.682  18.364  0.00  0.00    +0.000 A 
ATOM     18  C   UNL     1       3.128   7.856  17.704  0.00  0.00    +0.000 A 
ATOM     19  C   UNL     1       2.147   8.700  18.257  0.00  0.00    +0.000 A 
BRANCH  17  20
ATOM     20  C   UNL     1       4.554   5.737  17.784  0.00  0.00    +0.000 C 
ATOM     21  C   UNL     1       5.223   4.894  18.902  0.00  0.00    +0.000 C 
ATOM     22  N   UNL     1       6.317   4.033  18.400  0.00  0.00    +0.000 NA
ATOM     23  C   UNL     1       7.276   4.888  17.675  0.00  0.00    +0.000 C 
ATOM     24  C   UNL     1       6.598   5.703  16.565  0.00  0.00    +0.000 C 
ATOM     25  O   UNL     1       5.542   6.516  17.077  0.00  0.00    +0.000 OA
ATOM     26  H   UNL     1       5.922   3.362  17.741  0.00  0.00    +0.000 HD
ENDBRANCH  17  20
ENDBRANCH   3  14
TORSDOF 5
ENDMDL
