MODEL 1
REMARK VINA RESULT:      -7.8      0.000      0.000
REMARK  Name = 
REMARK  6 active torsions:
REMARK  status: ('A' for Active; 'I' for Inactive)
REMARK    1  A    between atoms: C_2  and  C_3
REMARK    2  A    between atoms: C_3  and  C_25
REMARK    3  A    between atoms: C_4  and  C_5
REMARK    4  A    between atoms: C_6  and  N_7
REMARK    5  A    between atoms: C_14  and  C_15
REMARK    6  A    between atoms: N_27  and  C_28
REMARK                            x       y       z     vdW  Elec       q    Type
REMARK                         _______ _______ _______ _____ _____    ______ ____
ROOT
ATOM      1  C   UNL     1      -0.587  11.301  22.291  0.00  0.00    +0.000 C 
ATOM      2  C   UNL     1       0.110  11.168  21.147  0.00  0.00    +0.000 C 
ATOM      3  C   UNL     1       0.524   9.775  20.991  0.00  0.00    +0.000 C 
ATOM      4  C   UNL     1       1.158   9.260  19.924  0.00  0.00    +0.000 C 
ATOM      5  C   UNL     1       0.137   9.045  22.252  0.00  0.00    +0.000 C 
ATOM      6  C   UNL     1      -0.864   9.975  22.936  0.00  0.00    +0.000 C 
ENDROOT
BRANCH   4   7
ATOM      7  C   UNL     1       1.667   7.887  19.860  0.00  0.00    +0.000 A 
ATOM      8  C   UNL     1       1.340   6.998  20.893  0.00  0.00    +0.000 A 
ATOM      9  C   UNL     1       1.814   5.685  20.869  0.00  0.00    +0.000 A 
ATOM     10  C   UNL     1       2.622   5.256  19.816  0.00  0.00    +0.000 A 
ATOM     11 CL   UNL     1       3.208   3.640  19.795  0.00  0.00    +0.000 Cl
ATOM     12  C   UNL     1       2.947   6.121  18.777  0.00  0.00    +0.000 A 
ATOM     13  C   UNL     1       2.469   7.433  18.796  0.00  0.00    +0.000 A 
ATOM     14 CL   UNL     1       2.886   8.459  17.467  0.00  0.00    +0.000 Cl
ENDBRANCH   4   7
BRANCH   2  15
ATOM     15  N   UNL     1       0.478  12.136  20.236  0.00  0.00    +0.000 N 
ATOM     16  C   UNL     1       1.774  12.839  20.286  0.00  0.00    +0.000 C 
ATOM     17  C   UNL     1       1.559  14.317  19.922  0.00  0.00    +0.000 C 
ATOM     18  O   UNL     1       0.951  14.454  18.625  0.00  0.00    +0.000 OA
ATOM     19  C   UNL     1      -0.322  13.783  18.592  0.00  0.00    +0.000 C 
ATOM     20  C   UNL     1      -0.185  12.288  18.926  0.00  0.00    +0.000 C 
ENDBRANCH   2  15
BRANCH   1  22
ATOM     21  C   UNL     1      -2.185  13.174  22.802  0.00  0.00    +0.000 C 
ATOM     22  C   UNL     1      -0.990  12.554  22.869  0.00  0.00    +0.000 C 
BRANCH  21  23
ATOM     23  C   UNL     1      -3.409  12.750  22.041  0.00  0.00    +0.000 C 
ATOM     24  O   UNL     1      -4.316  12.208  22.668  0.00  0.00    +0.000 OA
ATOM     25  N   UNL     1      -3.404  12.932  20.673  0.00  0.00    +0.000 N 
ATOM     26  H   UNL     1      -2.548  13.237  20.219  0.00  0.00    +0.000 HD
BRANCH  25  27
ATOM     27  C   UNL     1      -4.479  12.637  19.792  0.00  0.00    +0.000 A 
ATOM     28  C   UNL     1      -5.737  13.244  19.865  0.00  0.00    +0.000 A 
ATOM     29  C   UNL     1      -6.762  12.878  18.984  0.00  0.00    +0.000 A 
ATOM     30  C   UNL     1      -6.541  11.908  18.009  0.00  0.00    +0.000 A 
ATOM     31  C   UNL     1      -5.284  11.315  17.902  0.00  0.00    +0.000 A 
ATOM     32  C   UNL     1      -4.268  11.687  18.785  0.00  0.00    +0.000 A 
ATOM     33  F   UNL     1      -3.067  11.100  18.673  0.00  0.00    +0.000 F 
ENDBRANCH  25  27
ENDBRANCH  21  23
BRANCH  21  35
ATOM     34  N   UNL     1      -2.402  15.410  24.094  0.00  0.00    +0.000 NA
ATOM     35  C   UNL     1      -2.314  14.427  23.485  0.00  0.00    +0.000 C 
ENDBRANCH  21  35
ENDBRANCH   1  22
TORSDOF 6
ENDMDL
MODEL 2
REMARK VINA RESULT:      -7.8      0.934      1.284
REMARK  Name = 
REMARK  6 active torsions:
REMARK  status: ('A' for Active; 'I' for Inactive)
REMARK    1  A    between atoms: C_2  and  C_3
REMARK    2  A    between atoms: C_3  and  C_25
REMARK    3  A    between atoms: C_4  and  C_5
REMARK    4  A    between atoms: C_6  and  N_7
REMARK    5  A    between atoms: C_14  and  C_15
REMARK    6  A    between atoms: N_27  and  C_28
REMARK                            x       y       z     vdW  Elec       q    Type
REMARK                         _______ _______ _______ _____ _____    ______ ____
ROOT
ATOM      1  C   UNL     1      -0.778  11.575  22.673  0.00  0.00    +0.000 C 
ATOM      2  C   UNL     1      -0.113  11.511  21.504  0.00  0.00    +0.000 C 
ATOM      3  C   UNL     1       0.323  10.137  21.269  0.00  0.00    +0.000 C 
ATOM      4  C   UNL     1       0.934   9.687  20.160  0.00  0.00    +0.000 C 
ATOM      5  C   UNL     1      -0.011   9.340  22.504  0.00  0.00    +0.000 C 
ATOM      6  C   UNL     1      -1.009  10.215  23.261  0.00  0.00    +0.000 C 
ENDROOT
BRANCH   4   7
ATOM      7  C   UNL     1       1.468   8.330  20.015  0.00  0.00    +0.000 A 
ATOM      8  C   UNL     1       1.291   7.420  21.065  0.00  0.00    +0.000 A 
ATOM      9  C   UNL     1       1.794   6.121  20.965  0.00  0.00    +0.000 A 
ATOM     10  C   UNL     1       2.480   5.727  19.816  0.00  0.00    +0.000 A 
ATOM     11 CL   UNL     1       3.101   4.128  19.700  0.00  0.00    +0.000 Cl
ATOM     12  C   UNL     1       2.655   6.613  18.759  0.00  0.00    +0.000 A 
ATOM     13  C   UNL     1       2.148   7.911  18.855  0.00  0.00    +0.000 A 
ATOM     14 CL   UNL     1       2.375   8.964  17.502  0.00  0.00    +0.000 Cl
ENDBRANCH   4   7
BRANCH   2  15
ATOM     15  N   UNL     1       0.208  12.530  20.631  0.00  0.00    +0.000 N 
ATOM     16  C   UNL     1      -0.793  13.219  19.793  0.00  0.00    +0.000 C 
ATOM     17  C   UNL     1      -0.185  13.492  18.408  0.00  0.00    +0.000 C 
ATOM     18  O   UNL     1       1.022  14.269  18.509  0.00  0.00    +0.000 OA
ATOM     19  C   UNL     1       1.999  13.580  19.310  0.00  0.00    +0.000 C 
ATOM     20  C   UNL     1       1.470  13.289  20.724  0.00  0.00    +0.000 C 
ENDBRANCH   2  15
BRANCH   1  22
ATOM     21  C   UNL     1      -2.429  13.291  23.482  0.00  0.00    +0.000 C 
ATOM     22  C   UNL     1      -1.188  12.791  23.322  0.00  0.00    +0.000 C 
BRANCH  21  23
ATOM     23  C   UNL     1      -3.725  12.740  22.959  0.00  0.00    +0.000 C 
ATOM     24  O   UNL     1      -4.364  11.984  23.688  0.00  0.00    +0.000 OA
ATOM     25  N   UNL     1      -4.079  13.062  21.665  0.00  0.00    +0.000 N 
ATOM     26  H   UNL     1      -3.412  13.558  21.080  0.00  0.00    +0.000 HD
BRANCH  25  27
ATOM     27  C   UNL     1      -5.281  12.677  21.011  0.00  0.00    +0.000 A 
ATOM     28  C   UNL     1      -6.555  12.836  21.563  0.00  0.00    +0.000 A 
ATOM     29  C   UNL     1      -7.694  12.401  20.876  0.00  0.00    +0.000 A 
ATOM     30  C   UNL     1      -7.577  11.809  19.620  0.00  0.00    +0.000 A 
ATOM     31  C   UNL     1      -6.316  11.669  19.042  0.00  0.00    +0.000 A 
ATOM     32  C   UNL     1      -5.186  12.108  19.735  0.00  0.00    +0.000 A 
ATOM     33  F   UNL     1      -3.980  11.958  19.166  0.00  0.00    +0.000 F 
ENDBRANCH  25  27
ENDBRANCH  21  23
BRANCH  21  35
ATOM     34  N   UNL     1      -2.638  15.507  24.808  0.00  0.00    +0.000 NA
ATOM     35  C   UNL     1      -2.551  14.533  24.184  0.00  0.00    +0.000 C 
ENDBRANCH  21  35
ENDBRANCH   1  22
TORSDOF 6
ENDMDL
MODEL 3
REMARK VINA RESULT:      -7.6      5.969      9.812
REMARK  Name = 
REMARK  6 active torsions:
REMARK  status: ('A' for Active; 'I' for Inactive)
REMARK    1  A    between atoms: C_2  and  C_3
REMARK    2  A    between atoms: C_3  and  C_25
REMARK    3  A    between atoms: C_4  and  C_5
REMARK    4  A    between atoms: C_6  and  N_7
REMARK    5  A    between atoms: C_14  and  C_15
REMARK    6  A    between atoms: N_27  and  C_28
REMARK                            x       y       z     vdW  Elec       q    Type
REMARK                         _______ _______ _______ _____ _____    ______ ____
ROOT
ATOM      1  C   UNL     1       4.528  15.319  19.133  0.00  0.00    +0.000 C 
ATOM      2  C   UNL     1       3.780  14.746  20.094  0.00  0.00    +0.000 C 
ATOM      3  C   UNL     1       2.807  13.846  19.478  0.00  0.00    +0.000 C 
ATOM      4  C   UNL     1       1.959  13.039  20.138  0.00  0.00    +0.000 C 
ATOM      5  C   UNL     1       2.917  14.016  17.984  0.00  0.00    +0.000 C 
ATOM      6  C   UNL     1       4.252  14.730  17.781  0.00  0.00    +0.000 C 
ENDROOT
BRANCH   4   7
ATOM      7  C   UNL     1       0.915  12.244  19.486  0.00  0.00    +0.000 A 
ATOM      8  C   UNL     1       1.165  10.893  19.215  0.00  0.00    +0.000 A 
ATOM      9  C   UNL     1       0.196  10.107  18.587  0.00  0.00    +0.000 A 
ATOM     10  C   UNL     1      -1.026  10.671  18.222  0.00  0.00    +0.000 A 
ATOM     11 CL   UNL     1      -2.214   9.702  17.444  0.00  0.00    +0.000 Cl
ATOM     12  C   UNL     1      -1.297  12.008  18.492  0.00  0.00    +0.000 A 
ATOM     13  C   UNL     1      -0.331  12.793  19.125  0.00  0.00    +0.000 A 
ATOM     14 CL   UNL     1      -0.729  14.444  19.457  0.00  0.00    +0.000 Cl
ENDBRANCH   4   7
BRANCH   2  15
ATOM     15  N   UNL     1       3.808  14.955  21.457  0.00  0.00    +0.000 N 
ATOM     16  C   UNL     1       2.794  15.754  22.171  0.00  0.00    +0.000 C 
ATOM     17  C   UNL     1       3.486  16.583  23.265  0.00  0.00    +0.000 C 
ATOM     18  O   UNL     1       4.213  15.742  24.179  0.00  0.00    +0.000 OA
ATOM     19  C   UNL     1       5.213  14.982  23.476  0.00  0.00    +0.000 C 
ATOM     20  C   UNL     1       4.593  14.107  22.375  0.00  0.00    +0.000 C 
ENDBRANCH   2  15
BRANCH   1  22
ATOM     21  C   UNL     1       6.777  16.345  19.595  0.00  0.00    +0.000 C 
ATOM     22  C   UNL     1       5.454  16.399  19.344  0.00  0.00    +0.000 C 
BRANCH  21  23
ATOM     23  C   UNL     1       7.635  15.128  19.791  0.00  0.00    +0.000 C 
ATOM     24  O   UNL     1       7.471  14.467  20.815  0.00  0.00    +0.000 OA
ATOM     25  N   UNL     1       8.602  14.869  18.842  0.00  0.00    +0.000 N 
ATOM     26  H   UNL     1       8.776  15.558  18.114  0.00  0.00    +0.000 HD
BRANCH  25  27
ATOM     27  C   UNL     1       9.476  13.748  18.828  0.00  0.00    +0.000 A 
ATOM     28  C   UNL     1      10.589  13.617  19.664  0.00  0.00    +0.000 A 
ATOM     29  C   UNL     1      11.427  12.500  19.571  0.00  0.00    +0.000 A 
ATOM     30  C   UNL     1      11.158  11.491  18.649  0.00  0.00    +0.000 A 
ATOM     31  C   UNL     1      10.036  11.591  17.829  0.00  0.00    +0.000 A 
ATOM     32  C   UNL     1       9.205  12.709  17.930  0.00  0.00    +0.000 A 
ATOM     33  F   UNL     1       8.133  12.792  17.127  0.00  0.00    +0.000 F 
ENDBRANCH  25  27
ENDBRANCH  21  23
BRANCH  21  35
ATOM     34  N   UNL     1       7.964  18.630  19.887  0.00  0.00    +0.000 NA
ATOM     35  C   UNL     1       7.465  17.591  19.759  0.00  0.00    +0.000 C 
ENDBRANCH  21  35
ENDBRANCH   1  22
TORSDOF 6
ENDMDL
MODEL 4
REMARK VINA RESULT:      -7.4      4.068      7.400
REMARK  Name = 
REMARK  6 active torsions:
REMARK  status: ('A' for Active; 'I' for Inactive)
REMARK    1  A    between atoms: C_2  and  C_3
REMARK    2  A    between atoms: C_3  and  C_25
REMARK    3  A    between atoms: C_4  and  C_5
REMARK    4  A    between atoms: C_6  and  N_7
REMARK    5  A    between atoms: C_14  and  C_15
REMARK    6  A    between atoms: N_27  and  C_28
REMARK                            x       y       z     vdW  Elec       q    Type
REMARK                         _______ _______ _______ _____ _____    ______ ____
ROOT
ATOM      1  C   UNL     1       2.475   7.030  19.500  0.00  0.00    +0.000 C 
ATOM      2  C   UNL     1       2.803   5.758  19.207  0.00  0.00    +0.000 C 
ATOM      3  C   UNL     1       3.724   5.745  18.073  0.00  0.00    +0.000 C 
ATOM      4  C   UNL     1       4.329   4.657  17.567  0.00  0.00    +0.000 C 
ATOM      5  C   UNL     1       3.839   7.161  17.568  0.00  0.00    +0.000 C 
ATOM      6  C   UNL     1       3.279   8.014  18.705  0.00  0.00    +0.000 C 
ENDROOT
BRANCH   4   7
ATOM      7  C   UNL     1       5.148   4.669  16.351  0.00  0.00    +0.000 A 
ATOM      8  C   UNL     1       4.564   4.270  15.141  0.00  0.00    +0.000 A 
ATOM      9  C   UNL     1       5.316   4.261  13.964  0.00  0.00    +0.000 A 
ATOM     10  C   UNL     1       6.656   4.645  13.993  0.00  0.00    +0.000 A 
ATOM     11 CL   UNL     1       7.579   4.627  12.542  0.00  0.00    +0.000 Cl
ATOM     12  C   UNL     1       7.250   5.054  15.182  0.00  0.00    +0.000 A 
ATOM     13  C   UNL     1       6.497   5.069  16.359  0.00  0.00    +0.000 A 
ATOM     14 CL   UNL     1       7.279   5.608  17.805  0.00  0.00    +0.000 Cl
ENDBRANCH   4   7
BRANCH   2  15
ATOM     15  N   UNL     1       2.351   4.589  19.783  0.00  0.00    +0.000 N 
ATOM     16  C   UNL     1       2.608   4.232  21.192  0.00  0.00    +0.000 C 
ATOM     17  C   UNL     1       2.898   2.726  21.284  0.00  0.00    +0.000 C 
ATOM     18  O   UNL     1       1.812   1.949  20.748  0.00  0.00    +0.000 OA
ATOM     19  C   UNL     1       1.583   2.288  19.369  0.00  0.00    +0.000 C 
ATOM     20  C   UNL     1       1.263   3.782  19.197  0.00  0.00    +0.000 C 
ENDBRANCH   2  15
BRANCH   1  22
ATOM     21  C   UNL     1       0.736   8.565  20.473  0.00  0.00    +0.000 C 
ATOM     22  C   UNL     1       1.449   7.422  20.429  0.00  0.00    +0.000 C 
BRANCH  21  23
ATOM     23  C   UNL     1       0.871   9.776  19.595  0.00  0.00    +0.000 C 
ATOM     24  O   UNL     1       0.639   9.646  18.395  0.00  0.00    +0.000 OA
ATOM     25  N   UNL     1       1.317  10.943  20.182  0.00  0.00    +0.000 N 
ATOM     26  H   UNL     1       1.642  10.918  21.145  0.00  0.00    +0.000 HD
BRANCH  25  27
ATOM     27  C   UNL     1       1.466  12.198  19.531  0.00  0.00    +0.000 A 
ATOM     28  C   UNL     1       2.469  12.479  18.600  0.00  0.00    +0.000 A 
ATOM     29  C   UNL     1       2.576  13.751  18.023  0.00  0.00    +0.000 A 
ATOM     30  C   UNL     1       1.675  14.757  18.362  0.00  0.00    +0.000 A 
ATOM     31  C   UNL     1       0.650  14.485  19.267  0.00  0.00    +0.000 A 
ATOM     32  C   UNL     1       0.550  13.213  19.835  0.00  0.00    +0.000 A 
ATOM     33  F   UNL     1      -0.437  12.971  20.710  0.00  0.00    +0.000 F 
ENDBRANCH  25  27
ENDBRANCH  21  23
BRANCH  21  35
ATOM     34  N   UNL     1      -0.982   8.774  22.401  0.00  0.00    +0.000 NA
ATOM     35  C   UNL     1      -0.239   8.691  21.514  0.00  0.00    +0.000 C 
ENDBRANCH  21  35
ENDBRANCH   1  22
TORSDOF 6
ENDMDL
MODEL 5
REMARK VINA RESULT:      -7.4      1.136      1.501
REMARK  Name = 
REMARK  6 active torsions:
REMARK  status: ('A' for Active; 'I' for Inactive)
REMARK    1  A    between atoms: C_2  and  C_3
REMARK    2  A    between atoms: C_3  and  C_25
REMARK    3  A    between atoms: C_4  and  C_5
REMARK    4  A    between atoms: C_6  and  N_7
REMARK    5  A    between atoms: C_14  and  C_15
REMARK    6  A    between atoms: N_27  and  C_28
REMARK                            x       y       z     vdW  Elec       q    Type
REMARK                         _______ _______ _______ _____ _____    ______ ____
ROOT
ATOM      1  C   UNL     1      -1.149  12.087  22.718  0.00  0.00    +0.000 C 
ATOM      2  C   UNL     1      -0.375  12.084  21.617  0.00  0.00    +0.000 C 
ATOM      3  C   UNL     1       0.055  10.717  21.330  0.00  0.00    +0.000 C 
ATOM      4  C   UNL     1       0.761  10.325  20.257  0.00  0.00    +0.000 C 
ATOM      5  C   UNL     1      -0.415   9.848  22.470  0.00  0.00    +0.000 C 
ATOM      6  C   UNL     1      -1.464  10.698  23.186  0.00  0.00    +0.000 C 
ENDROOT
BRANCH   4   7
ATOM      7  C   UNL     1       1.279   8.967  20.070  0.00  0.00    +0.000 A 
ATOM      8  C   UNL     1       1.127   8.039  21.109  0.00  0.00    +0.000 A 
ATOM      9  C   UNL     1       1.615   6.738  20.970  0.00  0.00    +0.000 A 
ATOM     10  C   UNL     1       2.262   6.360  19.793  0.00  0.00    +0.000 A 
ATOM     11 CL   UNL     1       2.866   4.759  19.629  0.00  0.00    +0.000 Cl
ATOM     12  C   UNL     1       2.412   7.264  18.747  0.00  0.00    +0.000 A 
ATOM     13  C   UNL     1       1.919   8.564  18.883  0.00  0.00    +0.000 A 
ATOM     14 CL   UNL     1       2.114   9.640  17.543  0.00  0.00    +0.000 Cl
ENDBRANCH   4   7
BRANCH   2  15
ATOM     15  N   UNL     1       0.051  13.149  20.850  0.00  0.00    +0.000 N 
ATOM     16  C   UNL     1      -0.779  13.768  19.799  0.00  0.00    +0.000 C 
ATOM     17  C   UNL     1       0.114  14.130  18.602  0.00  0.00    +0.000 C 
ATOM     18  O   UNL     1       1.185  15.008  18.993  0.00  0.00    +0.000 OA
ATOM     19  C   UNL     1       2.001  14.387  20.003  0.00  0.00    +0.000 C 
ATOM     20  C   UNL     1       1.179  14.014  21.247  0.00  0.00    +0.000 C 
ENDBRANCH   2  15
BRANCH   1  22
ATOM     21  C   UNL     1      -2.649  14.062  23.135  0.00  0.00    +0.000 C 
ATOM     22  C   UNL     1      -1.595  13.268  23.407  0.00  0.00    +0.000 C 
BRANCH  21  23
ATOM     23  C   UNL     1      -3.611  13.964  21.985  0.00  0.00    +0.000 C 
ATOM     24  O   UNL     1      -3.794  14.969  21.301  0.00  0.00    +0.000 OA
ATOM     25  N   UNL     1      -4.282  12.770  21.814  0.00  0.00    +0.000 N 
ATOM     26  H   UNL     1      -4.192  12.048  22.524  0.00  0.00    +0.000 HD
BRANCH  25  27
ATOM     27  C   UNL     1      -5.192  12.471  20.765  0.00  0.00    +0.000 A 
ATOM     28  C   UNL     1      -6.581  12.571  20.885  0.00  0.00    +0.000 A 
ATOM     29  C   UNL     1      -7.420  12.225  19.818  0.00  0.00    +0.000 A 
ATOM     30  C   UNL     1      -6.881  11.784  18.612  0.00  0.00    +0.000 A 
ATOM     31  C   UNL     1      -5.498  11.706  18.465  0.00  0.00    +0.000 A 
ATOM     32  C   UNL     1      -4.669  12.055  19.534  0.00  0.00    +0.000 A 
ATOM     33  F   UNL     1      -3.340  11.966  19.378  0.00  0.00    +0.000 F 
ENDBRANCH  25  27
ENDBRANCH  21  23
BRANCH  21  35
ATOM     34  N   UNL     1      -3.027  16.128  24.652  0.00  0.00    +0.000 NA
ATOM     35  C   UNL     1      -2.868  15.182  24.000  0.00  0.00    +0.000 C 
ENDBRANCH  21  35
ENDBRANCH   1  22
TORSDOF 6
ENDMDL
MODEL 6
REMARK VINA RESULT:      -7.4      1.485      1.991
REMARK  Name = 
REMARK  6 active torsions:
REMARK  status: ('A' for Active; 'I' for Inactive)
REMARK    1  A    between atoms: C_2  and  C_3
REMARK    2  A    between atoms: C_3  and  C_25
REMARK    3  A    between atoms: C_4  and  C_5
REMARK    4  A    between atoms: C_6  and  N_7
REMARK    5  A    between atoms: C_14  and  C_15
REMARK    6  A    between atoms: N_27  and  C_28
REMARK                            x       y       z     vdW  Elec       q    Type
REMARK                         _______ _______ _______ _____ _____    ______ ____
ROOT
ATOM      1  C   UNL     1      -1.137  11.944  22.784  0.00  0.00    +0.000 C 
ATOM      2  C   UNL     1      -0.405  11.978  21.655  0.00  0.00    +0.000 C 
ATOM      3  C   UNL     1       0.062  10.630  21.340  0.00  0.00    +0.000 C 
ATOM      4  C   UNL     1       0.743  10.274  20.237  0.00  0.00    +0.000 C 
ATOM      5  C   UNL     1      -0.335   9.735  22.486  0.00  0.00    +0.000 C 
ATOM      6  C   UNL     1      -1.386  10.540  23.248  0.00  0.00    +0.000 C 
ENDROOT
BRANCH   4   7
ATOM      7  C   UNL     1       1.300   8.936  20.018  0.00  0.00    +0.000 A 
ATOM      8  C   UNL     1       1.170   7.977  21.031  0.00  0.00    +0.000 A 
ATOM      9  C   UNL     1       1.696   6.695  20.860  0.00  0.00    +0.000 A 
ATOM     10  C   UNL     1       2.361   6.368  19.678  0.00  0.00    +0.000 A 
ATOM     11 CL   UNL     1       3.012   4.789  19.475  0.00  0.00    +0.000 Cl
ATOM     12  C   UNL     1       2.490   7.303  18.658  0.00  0.00    +0.000 A 
ATOM     13  C   UNL     1       1.959   8.584  18.825  0.00  0.00    +0.000 A 
ATOM     14 CL   UNL     1       2.130   9.701  17.514  0.00  0.00    +0.000 Cl
ENDBRANCH   4   7
BRANCH   2  15
ATOM     15  N   UNL     1      -0.045  13.065  20.885  0.00  0.00    +0.000 N 
ATOM     16  C   UNL     1      -0.967  13.724  19.940  0.00  0.00    +0.000 C 
ATOM     17  C   UNL     1      -0.191  14.118  18.673  0.00  0.00    +0.000 C 
ATOM     18  O   UNL     1       0.921  14.975  18.986  0.00  0.00    +0.000 OA
ATOM     19  C   UNL     1       1.826  14.316  19.891  0.00  0.00    +0.000 C 
ATOM     20  C   UNL     1       1.125  13.908  21.198  0.00  0.00    +0.000 C 
ENDBRANCH   2  15
BRANCH   1  22
ATOM     21  C   UNL     1      -2.841  13.623  23.559  0.00  0.00    +0.000 C 
ATOM     22  C   UNL     1      -1.600  13.101  23.501  0.00  0.00    +0.000 C 
BRANCH  21  23
ATOM     23  C   UNL     1      -4.073  13.171  22.829  0.00  0.00    +0.000 C 
ATOM     24  O   UNL     1      -4.818  12.375  23.397  0.00  0.00    +0.000 OA
ATOM     25  N   UNL     1      -4.252  13.624  21.538  0.00  0.00    +0.000 N 
ATOM     26  H   UNL     1      -3.504  14.147  21.091  0.00  0.00    +0.000 HD
BRANCH  25  27
ATOM     27  C   UNL     1      -5.369  13.345  20.706  0.00  0.00    +0.000 A 
ATOM     28  C   UNL     1      -5.416  12.289  19.791  0.00  0.00    +0.000 A 
ATOM     29  C   UNL     1      -6.539  12.094  18.977  0.00  0.00    +0.000 A 
ATOM     30  C   UNL     1      -7.636  12.947  19.075  0.00  0.00    +0.000 A 
ATOM     31  C   UNL     1      -7.619  13.986  20.003  0.00  0.00    +0.000 A 
ATOM     32  C   UNL     1      -6.495  14.171  20.811  0.00  0.00    +0.000 A 
ATOM     33  F   UNL     1      -6.492  15.182  21.693  0.00  0.00    +0.000 F 
ENDBRANCH  25  27
ENDBRANCH  21  23
BRANCH  21  35
ATOM     34  N   UNL     1      -3.221  15.710  25.049  0.00  0.00    +0.000 NA
ATOM     35  C   UNL     1      -3.023  14.793  24.366  0.00  0.00    +0.000 C 
ENDBRANCH  21  35
ENDBRANCH   1  22
TORSDOF 6
ENDMDL
MODEL 7
REMARK VINA RESULT:      -7.4      0.999      1.311
REMARK  Name = 
REMARK  6 active torsions:
REMARK  status: ('A' for Active; 'I' for Inactive)
REMARK    1  A    between atoms: C_2  and  C_3
REMARK    2  A    between atoms: C_3  and  C_25
REMARK    3  A    between atoms: C_4  and  C_5
REMARK    4  A    between atoms: C_6  and  N_7
REMARK    5  A    between atoms: C_14  and  C_15
REMARK    6  A    between atoms: N_27  and  C_28
REMARK                            x       y       z     vdW  Elec       q    Type
REMARK                         _______ _______ _______ _____ _____    ______ ____
ROOT
ATOM      1  C   UNL     1      -0.561  11.468  22.363  0.00  0.00    +0.000 C 
ATOM      2  C   UNL     1       0.107  11.325  21.203  0.00  0.00    +0.000 C 
ATOM      3  C   UNL     1       0.497   9.926  21.038  0.00  0.00    +0.000 C 
ATOM      4  C   UNL     1       1.098   9.403  19.956  0.00  0.00    +0.000 C 
ATOM      5  C   UNL     1       0.129   9.202  22.308  0.00  0.00    +0.000 C 
ATOM      6  C   UNL     1      -0.843  10.147  23.014  0.00  0.00    +0.000 C 
ENDROOT
BRANCH   4   7
ATOM      7  C   UNL     1       1.586   8.022  19.881  0.00  0.00    +0.000 A 
ATOM      8  C   UNL     1       1.257   7.134  20.913  0.00  0.00    +0.000 A 
ATOM      9  C   UNL     1       1.711   5.814  20.880  0.00  0.00    +0.000 A 
ATOM     10  C   UNL     1       2.501   5.377  19.816  0.00  0.00    +0.000 A 
ATOM     11 CL   UNL     1       3.062   3.753  19.781  0.00  0.00    +0.000 Cl
ATOM     12  C   UNL     1       2.828   6.242  18.777  0.00  0.00    +0.000 A 
ATOM     13  C   UNL     1       2.370   7.561  18.807  0.00  0.00    +0.000 A 
ATOM     14 CL   UNL     1       2.788   8.586  17.478  0.00  0.00    +0.000 Cl
ENDBRANCH   4   7
BRANCH   2  15
ATOM     15  N   UNL     1       0.467  12.288  20.283  0.00  0.00    +0.000 N 
ATOM     16  C   UNL     1       1.768  12.984  20.313  0.00  0.00    +0.000 C 
ATOM     17  C   UNL     1       1.556  14.462  19.947  0.00  0.00    +0.000 C 
ATOM     18  O   UNL     1       0.931  14.597  18.657  0.00  0.00    +0.000 OA
ATOM     19  C   UNL     1      -0.346  13.933  18.644  0.00  0.00    +0.000 C 
ATOM     20  C   UNL     1      -0.212  12.439  18.982  0.00  0.00    +0.000 C 
ENDBRANCH   2  15
BRANCH   1  22
ATOM     21  C   UNL     1      -2.133  13.340  22.953  0.00  0.00    +0.000 C 
ATOM     22  C   UNL     1      -0.933  12.727  22.949  0.00  0.00    +0.000 C 
BRANCH  21  23
ATOM     23  C   UNL     1      -3.401  12.900  22.279  0.00  0.00    +0.000 C 
ATOM     24  O   UNL     1      -4.141  12.131  22.891  0.00  0.00    +0.000 OA
ATOM     25  N   UNL     1      -3.621  13.331  20.987  0.00  0.00    +0.000 N 
ATOM     26  H   UNL     1      -2.880  13.830  20.501  0.00  0.00    +0.000 HD
BRANCH  25  27
ATOM     27  C   UNL     1      -4.775  13.060  20.204  0.00  0.00    +0.000 A 
ATOM     28  C   UNL     1      -4.812  12.124  19.166  0.00  0.00    +0.000 A 
ATOM     29  C   UNL     1      -5.976  11.934  18.413  0.00  0.00    +0.000 A 
ATOM     30  C   UNL     1      -7.126  12.669  18.694  0.00  0.00    +0.000 A 
ATOM     31  C   UNL     1      -7.116  13.585  19.744  0.00  0.00    +0.000 A 
ATOM     32  C   UNL     1      -5.950  13.766  20.491  0.00  0.00    +0.000 A 
ATOM     33  F   UNL     1      -5.957  14.658  21.493  0.00  0.00    +0.000 F 
ENDBRANCH  25  27
ENDBRANCH  21  23
BRANCH  21  35
ATOM     34  N   UNL     1      -2.362  15.622  24.160  0.00  0.00    +0.000 NA
ATOM     35  C   UNL     1      -2.224  14.601  23.626  0.00  0.00    +0.000 C 
ENDBRANCH  21  35
ENDBRANCH   1  22
TORSDOF 6
ENDMDL
MODEL 8
REMARK VINA RESULT:      -7.3      1.078      1.341
REMARK  Name = 
REMARK  6 active torsions:
REMARK  status: ('A' for Active; 'I' for Inactive)
REMARK    1  A    between atoms: C_2  and  C_3
REMARK    2  A    between atoms: C_3  and  C_25
REMARK    3  A    between atoms: C_4  and  C_5
REMARK    4  A    between atoms: C_6  and  N_7
REMARK    5  A    between atoms: C_14  and  C_15
REMARK    6  A    between atoms: N_27  and  C_28
REMARK                            x       y       z     vdW  Elec       q    Type
REMARK                         _______ _______ _______ _____ _____    ______ ____
ROOT
ATOM      1  C   UNL     1      -0.592  11.588  22.368  0.00  0.00    +0.000 C 
ATOM      2  C   UNL     1       0.133  11.450  21.243  0.00  0.00    +0.000 C 
ATOM      3  C   UNL     1       0.490  10.044  21.065  0.00  0.00    +0.000 C 
ATOM      4  C   UNL     1       1.132   9.526  20.005  0.00  0.00    +0.000 C 
ATOM      5  C   UNL     1       0.031   9.304  22.296  0.00  0.00    +0.000 C 
ATOM      6  C   UNL     1      -0.948  10.262  22.972  0.00  0.00    +0.000 C 
ENDROOT
BRANCH   4   7
ATOM      7  C   UNL     1       1.581   8.133  19.923  0.00  0.00    +0.000 A 
ATOM      8  C   UNL     1       1.287   7.266  20.983  0.00  0.00    +0.000 A 
ATOM      9  C   UNL     1       1.706   5.935  20.943  0.00  0.00    +0.000 A 
ATOM     10  C   UNL     1       2.426   5.466  19.844  0.00  0.00    +0.000 A 
ATOM     11 CL   UNL     1       2.945   3.827  19.802  0.00  0.00    +0.000 Cl
ATOM     12  C   UNL     1       2.718   6.309  18.777  0.00  0.00    +0.000 A 
ATOM     13  C   UNL     1       2.294   7.639  18.814  0.00  0.00    +0.000 A 
ATOM     14 CL   UNL     1       2.665   8.637  17.451  0.00  0.00    +0.000 Cl
ENDBRANCH   4   7
BRANCH   2  15
ATOM     15  N   UNL     1       0.572  12.422  20.367  0.00  0.00    +0.000 N 
ATOM     16  C   UNL     1       1.879  13.094  20.498  0.00  0.00    +0.000 C 
ATOM     17  C   UNL     1       1.717  14.581  20.144  0.00  0.00    +0.000 C 
ATOM     18  O   UNL     1       1.185  14.749  18.818  0.00  0.00    +0.000 OA
ATOM     19  C   UNL     1      -0.099  14.108  18.706  0.00  0.00    +0.000 C 
ATOM     20  C   UNL     1      -0.014  12.607  19.026  0.00  0.00    +0.000 C 
ENDBRANCH   2  15
BRANCH   1  22
ATOM     21  C   UNL     1      -1.866  13.749  22.549  0.00  0.00    +0.000 C 
ATOM     22  C   UNL     1      -0.957  12.845  22.964  0.00  0.00    +0.000 C 
BRANCH  21  23
ATOM     23  C   UNL     1      -2.703  13.717  21.303  0.00  0.00    +0.000 C 
ATOM     24  O   UNL     1      -2.840  14.765  20.675  0.00  0.00    +0.000 OA
ATOM     25  N   UNL     1      -3.323  12.527  20.981  0.00  0.00    +0.000 N 
ATOM     26  H   UNL     1      -3.287  11.757  21.644  0.00  0.00    +0.000 HD
BRANCH  25  27
ATOM     27  C   UNL     1      -4.114  12.287  19.825  0.00  0.00    +0.000 A 
ATOM     28  C   UNL     1      -3.610  11.768  18.629  0.00  0.00    +0.000 A 
ATOM     29  C   UNL     1      -4.442  11.591  17.517  0.00  0.00    +0.000 A 
ATOM     30  C   UNL     1      -5.793  11.920  17.588  0.00  0.00    +0.000 A 
ATOM     31  C   UNL     1      -6.319  12.411  18.782  0.00  0.00    +0.000 A 
ATOM     32  C   UNL     1      -5.482  12.583  19.886  0.00  0.00    +0.000 A 
ATOM     33  F   UNL     1      -6.003  13.063  21.024  0.00  0.00    +0.000 F 
ENDBRANCH  25  27
ENDBRANCH  21  23
BRANCH  21  35
ATOM     34  N   UNL     1      -2.126  15.853  24.039  0.00  0.00    +0.000 NA
ATOM     35  C   UNL     1      -2.033  14.926  23.348  0.00  0.00    +0.000 C 
ENDBRANCH  21  35
ENDBRANCH   1  22
TORSDOF 6
ENDMDL
MODEL 9
REMARK VINA RESULT:      -7.2      0.717      1.071
REMARK  Name = 
REMARK  6 active torsions:
REMARK  status: ('A' for Active; 'I' for Inactive)
REMARK    1  A    between atoms: C_2  and  C_3
REMARK    2  A    between atoms: C_3  and  C_25
REMARK    3  A    between atoms: C_4  and  C_5
REMARK    4  A    between atoms: C_6  and  N_7
REMARK    5  A    between atoms: C_14  and  C_15
REMARK    6  A    between atoms: N_27  and  C_28
REMARK                            x       y       z     vdW  Elec       q    Type
REMARK                         _______ _______ _______ _____ _____    ______ ____
ROOT
ATOM      1  C   UNL     1      -0.399  10.986  22.265  0.00  0.00    +0.000 C 
ATOM      2  C   UNL     1       0.407  10.884  21.192  0.00  0.00    +0.000 C 
ATOM      3  C   UNL     1       0.740   9.479  20.967  0.00  0.00    +0.000 C 
ATOM      4  C   UNL     1       1.450   8.998  19.932  0.00  0.00    +0.000 C 
ATOM      5  C   UNL     1       0.169   8.691  22.118  0.00  0.00    +0.000 C 
ATOM      6  C   UNL     1      -0.834   9.642  22.768  0.00  0.00    +0.000 C 
ENDROOT
BRANCH   4   7
ATOM      7  C   UNL     1       1.868   7.598  19.810  0.00  0.00    +0.000 A 
ATOM      8  C   UNL     1       1.495   6.693  20.813  0.00  0.00    +0.000 A 
ATOM      9  C   UNL     1       1.883   5.354  20.734  0.00  0.00    +0.000 A 
ATOM     10  C   UNL     1       2.650   4.915  19.655  0.00  0.00    +0.000 A 
ATOM     11 CL   UNL     1       3.130   3.266  19.565  0.00  0.00    +0.000 Cl
ATOM     12  C   UNL     1       3.020   5.796  18.645  0.00  0.00    +0.000 A 
ATOM     13  C   UNL     1       2.628   7.135  18.720  0.00  0.00    +0.000 A 
ATOM     14 CL   UNL     1       3.096   8.182  17.425  0.00  0.00    +0.000 Cl
ENDBRANCH   4   7
BRANCH   2  15
ATOM     15  N   UNL     1       0.937  11.886  20.405  0.00  0.00    +0.000 N 
ATOM     16  C   UNL     1       0.713  11.971  18.949  0.00  0.00    +0.000 C 
ATOM     17  C   UNL     1       2.013  12.428  18.267  0.00  0.00    +0.000 C 
ATOM     18  O   UNL     1       2.463  13.691  18.791  0.00  0.00    +0.000 OA
ATOM     19  C   UNL     1       2.699  13.592  20.207  0.00  0.00    +0.000 C 
ATOM     20  C   UNL     1       1.433  13.158  20.965  0.00  0.00    +0.000 C 
ENDBRANCH   2  15
BRANCH   1  22
ATOM     21  C   UNL     1      -1.934  12.905  22.800  0.00  0.00    +0.000 C 
ATOM     22  C   UNL     1      -0.777  12.221  22.897  0.00  0.00    +0.000 C 
BRANCH  21  23
ATOM     23  C   UNL     1      -3.126  12.593  21.943  0.00  0.00    +0.000 C 
ATOM     24  O   UNL     1      -4.172  12.277  22.505  0.00  0.00    +0.000 OA
ATOM     25  N   UNL     1      -2.950  12.613  20.574  0.00  0.00    +0.000 N 
ATOM     26  H   UNL     1      -2.012  12.724  20.199  0.00  0.00    +0.000 HD
BRANCH  25  27
ATOM     27  C   UNL     1      -3.963  12.391  19.602  0.00  0.00    +0.000 A 
ATOM     28  C   UNL     1      -5.230  12.980  19.646  0.00  0.00    +0.000 A 
ATOM     29  C   UNL     1      -6.192  12.688  18.672  0.00  0.00    +0.000 A 
ATOM     30  C   UNL     1      -5.897  11.809  17.633  0.00  0.00    +0.000 A 
ATOM     31  C   UNL     1      -4.630  11.235  17.556  0.00  0.00    +0.000 A 
ATOM     32  C   UNL     1      -3.676  11.534  18.532  0.00  0.00    +0.000 A 
ATOM     33  F   UNL     1      -2.464  10.967  18.447  0.00  0.00    +0.000 F 
ENDBRANCH  25  27
ENDBRANCH  21  23
BRANCH  21  35
ATOM     34  N   UNL     1      -2.126  15.065  24.220  0.00  0.00    +0.000 NA
ATOM     35  C   UNL     1      -2.044  14.118  23.554  0.00  0.00    +0.000 C 
ENDBRANCH  21  35
ENDBRANCH   1  22
TORSDOF 6
ENDMDL
