MODEL 1
REMARK VINA RESULT:      -8.1      0.000      0.000
REMARK  Name = 
REMARK  5 active torsions:
REMARK  status: ('A' for Active; 'I' for Inactive)
REMARK    1  A    between atoms: C_1  and  C_2
REMARK    2  A    between atoms: C_2  and  C_3
REMARK    3  A    between atoms: C_2  and  N_10
REMARK    4  A    between atoms: C_3  and  C_4
REMARK    5  A    between atoms: C_12  and  C_13
REMARK                            x       y       z     vdW  Elec       q    Type
REMARK                         _______ _______ _______ _____ _____    ______ ____
ROOT
ATOM      1  N   UNL     1       1.220   9.281  18.849  0.00  0.00    +0.000 N 
ATOM      2  C   UNL     1       1.917   8.625  17.881  0.00  0.00    +0.000 A 
ATOM      3  C   UNL     1       2.444   7.531  18.524  0.00  0.00    +0.000 A 
ATOM      4  N   UNL     1       2.123   7.601  19.852  0.00  0.00    +0.000 NA
ATOM      5  N   UNL     1       1.381   8.681  20.043  0.00  0.00    +0.000 NA
ENDROOT
BRANCH   3   6
ATOM      6  C   UNL     1       3.259   6.505  17.902  0.00  0.00    +0.000 A 
ATOM      7  C   UNL     1       4.472   6.899  17.321  0.00  0.00    +0.000 A 
ATOM      8  C   UNL     1       5.288   5.932  16.782  0.00  0.00    +0.000 A 
ATOM      9  N   UNL     1       4.985   4.621  16.781  0.00  0.00    +0.000 NA
ATOM     10  C   UNL     1       3.816   4.238  17.322  0.00  0.00    +0.000 A 
ATOM     11  C   UNL     1       3.524   2.879  17.324  0.00  0.00    +0.000 A 
ATOM     12  C   UNL     1       2.333   2.375  17.848  0.00  0.00    +0.000 A 
ATOM     13  C   UNL     1       1.394   3.247  18.380  0.00  0.00    +0.000 A 
ATOM     14  C   UNL     1       1.667   4.610  18.391  0.00  0.00    +0.000 A 
ATOM     15  C   UNL     1       2.886   5.138  17.891  0.00  0.00    +0.000 A 
ENDBRANCH   3   6
BRANCH   1  17
ATOM     16  C   UNL     1       1.214  11.707  19.380  0.00  0.00    +0.000 C 
ATOM     17  C   UNL     1       0.476  10.527  18.730  0.00  0.00    +0.000 C 
BRANCH  17  18
ATOM     18  C   UNL     1      -0.991  10.425  19.213  0.00  0.00    +0.000 C 
BRANCH  18  19
ATOM     19  C   UNL     1      -2.018  10.526  18.116  0.00  0.00    +0.000 A 
ATOM     20  C   UNL     1      -1.876   9.834  16.920  0.00  0.00    +0.000 A 
ATOM     21  N   UNL     1      -2.731   9.978  15.882  0.00  0.00    +0.000 NA
ATOM     22  C   UNL     1      -3.745  10.849  16.083  0.00  0.00    +0.000 A 
ATOM     23  C   UNL     1      -3.914  11.522  17.277  0.00  0.00    +0.000 A 
ATOM     24  N   UNL     1      -3.065  11.364  18.317  0.00  0.00    +0.000 NA
ENDBRANCH  18  19
ENDBRANCH  17  18
ENDBRANCH   1  17
TORSDOF 4
ENDMDL
MODEL 2
REMARK VINA RESULT:      -7.8      1.993      7.784
REMARK  Name = 
REMARK  5 active torsions:
REMARK  status: ('A' for Active; 'I' for Inactive)
REMARK    1  A    between atoms: C_1  and  C_2
REMARK    2  A    between atoms: C_2  and  C_3
REMARK    3  A    between atoms: C_2  and  N_10
REMARK    4  A    between atoms: C_3  and  C_4
REMARK    5  A    between atoms: C_12  and  C_13
REMARK                            x       y       z     vdW  Elec       q    Type
REMARK                         _______ _______ _______ _____ _____    ______ ____
ROOT
ATOM      1  N   UNL     1       2.557   7.624  18.246  0.00  0.00    +0.000 N 
ATOM      2  C   UNL     1       1.689   8.096  19.183  0.00  0.00    +0.000 A 
ATOM      3  C   UNL     1       1.343   9.344  18.727  0.00  0.00    +0.000 A 
ATOM      4  N   UNL     1       2.059   9.617  17.595  0.00  0.00    +0.000 NA
ATOM      5  N   UNL     1       2.806   8.561  17.313  0.00  0.00    +0.000 NA
ENDROOT
BRANCH   3   6
ATOM      6  C   UNL     1       0.413  10.246  19.381  0.00  0.00    +0.000 A 
ATOM      7  C   UNL     1       0.811  10.828  20.593  0.00  0.00    +0.000 A 
ATOM      8  C   UNL     1      -0.029  11.734  21.194  0.00  0.00    +0.000 A 
ATOM      9  N   UNL     1      -1.220  12.096  20.682  0.00  0.00    +0.000 NA
ATOM     10  C   UNL     1      -1.615  11.531  19.530  0.00  0.00    +0.000 A 
ATOM     11  C   UNL     1      -2.842  11.925  19.008  0.00  0.00    +0.000 A 
ATOM     12  C   UNL     1      -3.353  11.391  17.824  0.00  0.00    +0.000 A 
ATOM     13  C   UNL     1      -2.629  10.427  17.138  0.00  0.00    +0.000 A 
ATOM     14  C   UNL     1      -1.398  10.020  17.640  0.00  0.00    +0.000 A 
ATOM     15  C   UNL     1      -0.849  10.575  18.825  0.00  0.00    +0.000 A 
ENDBRANCH   3   6
BRANCH   1  17
ATOM     16  C   UNL     1       4.426   6.338  17.237  0.00  0.00    +0.000 C 
ATOM     17  C   UNL     1       3.258   6.348  18.235  0.00  0.00    +0.000 C 
BRANCH  17  18
ATOM     18  C   UNL     1       2.327   5.127  18.047  0.00  0.00    +0.000 C 
BRANCH  18  19
ATOM     19  C   UNL     1       2.299   4.177  19.215  0.00  0.00    +0.000 A 
ATOM     20  C   UNL     1       1.174   4.046  20.019  0.00  0.00    +0.000 A 
ATOM     21  N   UNL     1       1.150   3.273  21.129  0.00  0.00    +0.000 NA
ATOM     22  C   UNL     1       2.305   2.629  21.412  0.00  0.00    +0.000 A 
ATOM     23  C   UNL     1       3.422   2.729  20.605  0.00  0.00    +0.000 A 
ATOM     24  N   UNL     1       3.436   3.491  19.488  0.00  0.00    +0.000 NA
ENDBRANCH  18  19
ENDBRANCH  17  18
ENDBRANCH   1  17
TORSDOF 4
ENDMDL
MODEL 3
REMARK VINA RESULT:      -7.8      2.761      7.931
REMARK  Name = 
REMARK  5 active torsions:
REMARK  status: ('A' for Active; 'I' for Inactive)
REMARK    1  A    between atoms: C_1  and  C_2
REMARK    2  A    between atoms: C_2  and  C_3
REMARK    3  A    between atoms: C_2  and  N_10
REMARK    4  A    between atoms: C_3  and  C_4
REMARK    5  A    between atoms: C_12  and  C_13
REMARK                            x       y       z     vdW  Elec       q    Type
REMARK                         _______ _______ _______ _____ _____    ______ ____
ROOT
ATOM      1  N   UNL     1       3.373   5.098  19.433  0.00  0.00    +0.000 N 
ATOM      2  C   UNL     1       3.207   6.330  18.879  0.00  0.00    +0.000 A 
ATOM      3  C   UNL     1       2.250   6.929  19.661  0.00  0.00    +0.000 A 
ATOM      4  N   UNL     1       1.815   6.030  20.595  0.00  0.00    +0.000 NA
ATOM      5  N   UNL     1       2.503   4.908  20.442  0.00  0.00    +0.000 NA
ENDROOT
BRANCH   3   6
ATOM      6  C   UNL     1       1.742   8.276  19.480  0.00  0.00    +0.000 A 
ATOM      7  C   UNL     1       1.895   8.867  18.218  0.00  0.00    +0.000 A 
ATOM      8  C   UNL     1       1.365  10.118  18.010  0.00  0.00    +0.000 A 
ATOM      9  N   UNL     1       0.702  10.811  18.955  0.00  0.00    +0.000 NA
ATOM     10  C   UNL     1       0.567  10.257  20.171  0.00  0.00    +0.000 A 
ATOM     11  C   UNL     1      -0.131  10.981  21.132  0.00  0.00    +0.000 A 
ATOM     12  C   UNL     1      -0.319  10.505  22.430  0.00  0.00    +0.000 A 
ATOM     13  C   UNL     1       0.209   9.274  22.793  0.00  0.00    +0.000 A 
ATOM     14  C   UNL     1       0.907   8.532  21.847  0.00  0.00    +0.000 A 
ATOM     15  C   UNL     1       1.081   8.986  20.514  0.00  0.00    +0.000 A 
ENDBRANCH   3   6
BRANCH   1  17
ATOM     16  C   UNL     1       4.152   2.785  19.888  0.00  0.00    +0.000 C 
ATOM     17  C   UNL     1       4.255   4.027  18.991  0.00  0.00    +0.000 C 
BRANCH  17  18
ATOM     18  C   UNL     1       5.722   4.473  18.787  0.00  0.00    +0.000 C 
BRANCH  18  19
ATOM     19  C   UNL     1       6.152   4.567  17.347  0.00  0.00    +0.000 A 
ATOM     20  C   UNL     1       7.167   5.426  16.945  0.00  0.00    +0.000 A 
ATOM     21  N   UNL     1       7.510   5.602  15.648  0.00  0.00    +0.000 NA
ATOM     22  C   UNL     1       6.794   4.881  14.756  0.00  0.00    +0.000 A 
ATOM     23  C   UNL     1       5.802   4.002  15.145  0.00  0.00    +0.000 A 
ATOM     24  N   UNL     1       5.473   3.818  16.443  0.00  0.00    +0.000 NA
ENDBRANCH  18  19
ENDBRANCH  17  18
ENDBRANCH   1  17
TORSDOF 4
ENDMDL
MODEL 4
REMARK VINA RESULT:      -7.6      1.171      1.242
REMARK  Name = 
REMARK  5 active torsions:
REMARK  status: ('A' for Active; 'I' for Inactive)
REMARK    1  A    between atoms: C_1  and  C_2
REMARK    2  A    between atoms: C_2  and  C_3
REMARK    3  A    between atoms: C_2  and  N_10
REMARK    4  A    between atoms: C_3  and  C_4
REMARK    5  A    between atoms: C_12  and  C_13
REMARK                            x       y       z     vdW  Elec       q    Type
REMARK                         _______ _______ _______ _____ _____    ______ ____
ROOT
ATOM      1  N   UNL     1       1.126   9.426  19.063  0.00  0.00    +0.000 N 
ATOM      2  C   UNL     1       1.802   8.514  18.311  0.00  0.00    +0.000 A 
ATOM      3  C   UNL     1       2.160   7.536  19.205  0.00  0.00    +0.000 A 
ATOM      4  N   UNL     1       1.771   7.917  20.460  0.00  0.00    +0.000 NA
ATOM      5  N   UNL     1       1.146   9.081  20.363  0.00  0.00    +0.000 NA
ENDROOT
BRANCH   3   6
ATOM      6  C   UNL     1       2.890   6.325  18.876  0.00  0.00    +0.000 A 
ATOM      7  C   UNL     1       3.975   6.437  17.995  0.00  0.00    +0.000 A 
ATOM      8  C   UNL     1       4.717   5.313  17.720  0.00  0.00    +0.000 A 
ATOM      9  N   UNL     1       4.458   4.103  18.252  0.00  0.00    +0.000 NA
ATOM     10  C   UNL     1       3.410   3.987  19.084  0.00  0.00    +0.000 A 
ATOM     11  C   UNL     1       3.164   2.733  19.634  0.00  0.00    +0.000 A 
ATOM     12  C   UNL     1       2.095   2.498  20.500  0.00  0.00    +0.000 A 
ATOM     13  C   UNL     1       1.233   3.536  20.824  0.00  0.00    +0.000 A 
ATOM     14  C   UNL     1       1.462   4.798  20.287  0.00  0.00    +0.000 A 
ATOM     15  C   UNL     1       2.562   5.063  19.431  0.00  0.00    +0.000 A 
ENDBRANCH   3   6
BRANCH   1  17
ATOM     16  C   UNL     1       1.452  11.884  18.924  0.00  0.00    +0.000 C 
ATOM     17  C   UNL     1       0.537  10.685  18.630  0.00  0.00    +0.000 C 
BRANCH  17  18
ATOM     18  C   UNL     1      -0.901  10.913  19.153  0.00  0.00    +0.000 C 
BRANCH  18  19
ATOM     19  C   UNL     1      -1.974  10.784  18.105  0.00  0.00    +0.000 A 
ATOM     20  C   UNL     1      -1.832   9.931  17.018  0.00  0.00    +0.000 A 
ATOM     21  N   UNL     1      -2.735   9.864  16.013  0.00  0.00    +0.000 NA
ATOM     22  C   UNL     1      -3.798  10.691  16.133  0.00  0.00    +0.000 A 
ATOM     23  C   UNL     1      -3.966  11.523  17.223  0.00  0.00    +0.000 A 
ATOM     24  N   UNL     1      -3.068  11.575  18.232  0.00  0.00    +0.000 NA
ENDBRANCH  18  19
ENDBRANCH  17  18
ENDBRANCH   1  17
TORSDOF 4
ENDMDL
MODEL 5
REMARK VINA RESULT:      -7.5      1.828      2.785
REMARK  Name = 
REMARK  5 active torsions:
REMARK  status: ('A' for Active; 'I' for Inactive)
REMARK    1  A    between atoms: C_1  and  C_2
REMARK    2  A    between atoms: C_2  and  C_3
REMARK    3  A    between atoms: C_2  and  N_10
REMARK    4  A    between atoms: C_3  and  C_4
REMARK    5  A    between atoms: C_12  and  C_13
REMARK                            x       y       z     vdW  Elec       q    Type
REMARK                         _______ _______ _______ _____ _____    ______ ____
ROOT
ATOM      1  N   UNL     1       1.306   9.185  18.790  0.00  0.00    +0.000 N 
ATOM      2  C   UNL     1       1.990   8.522  17.817  0.00  0.00    +0.000 A 
ATOM      3  C   UNL     1       2.541   7.444  18.464  0.00  0.00    +0.000 A 
ATOM      4  N   UNL     1       2.248   7.529  19.797  0.00  0.00    +0.000 NA
ATOM      5  N   UNL     1       1.498   8.604  19.988  0.00  0.00    +0.000 NA
ENDROOT
BRANCH   3   6
ATOM      6  C   UNL     1       3.354   6.417  17.840  0.00  0.00    +0.000 A 
ATOM      7  C   UNL     1       4.565   6.810  17.252  0.00  0.00    +0.000 A 
ATOM      8  C   UNL     1       5.378   5.844  16.712  0.00  0.00    +0.000 A 
ATOM      9  N   UNL     1       5.076   4.532  16.714  0.00  0.00    +0.000 NA
ATOM     10  C   UNL     1       3.910   4.150  17.260  0.00  0.00    +0.000 A 
ATOM     11  C   UNL     1       3.618   2.790  17.265  0.00  0.00    +0.000 A 
ATOM     12  C   UNL     1       2.430   2.286  17.796  0.00  0.00    +0.000 A 
ATOM     13  C   UNL     1       1.493   3.159  18.331  0.00  0.00    +0.000 A 
ATOM     14  C   UNL     1       1.765   4.522  18.339  0.00  0.00    +0.000 A 
ATOM     15  C   UNL     1       2.982   5.049  17.833  0.00  0.00    +0.000 A 
ENDBRANCH   3   6
BRANCH   1  17
ATOM     16  C   UNL     1       1.374  11.651  19.070  0.00  0.00    +0.000 C 
ATOM     17  C   UNL     1       0.546  10.421  18.668  0.00  0.00    +0.000 C 
BRANCH  17  18
ATOM     18  C   UNL     1      -0.822  10.385  19.390  0.00  0.00    +0.000 C 
BRANCH  18  19
ATOM     19  C   UNL     1      -0.890  11.220  20.641  0.00  0.00    +0.000 A 
ATOM     20  C   UNL     1      -0.443  10.736  21.864  0.00  0.00    +0.000 A 
ATOM     21  N   UNL     1      -0.578  11.426  23.021  0.00  0.00    +0.000 NA
ATOM     22  C   UNL     1      -1.183  12.629  22.911  0.00  0.00    +0.000 A 
ATOM     23  C   UNL     1      -1.607  13.134  21.697  0.00  0.00    +0.000 A 
ATOM     24  N   UNL     1      -1.456  12.448  20.541  0.00  0.00    +0.000 NA
ENDBRANCH  18  19
ENDBRANCH  17  18
ENDBRANCH   1  17
TORSDOF 4
ENDMDL
MODEL 6
REMARK VINA RESULT:      -7.5      2.008      8.075
REMARK  Name = 
REMARK  5 active torsions:
REMARK  status: ('A' for Active; 'I' for Inactive)
REMARK    1  A    between atoms: C_1  and  C_2
REMARK    2  A    between atoms: C_2  and  C_3
REMARK    3  A    between atoms: C_2  and  N_10
REMARK    4  A    between atoms: C_3  and  C_4
REMARK    5  A    between atoms: C_12  and  C_13
REMARK                            x       y       z     vdW  Elec       q    Type
REMARK                         _______ _______ _______ _____ _____    ______ ____
ROOT
ATOM      1  N   UNL     1       2.630   7.437  18.204  0.00  0.00    +0.000 N 
ATOM      2  C   UNL     1       1.766   7.921  19.139  0.00  0.00    +0.000 A 
ATOM      3  C   UNL     1       1.437   9.173  18.681  0.00  0.00    +0.000 A 
ATOM      4  N   UNL     1       2.160   9.436  17.550  0.00  0.00    +0.000 NA
ATOM      5  N   UNL     1       2.894   8.369  17.270  0.00  0.00    +0.000 NA
ENDROOT
BRANCH   3   6
ATOM      6  C   UNL     1       0.518  10.088  19.331  0.00  0.00    +0.000 A 
ATOM      7  C   UNL     1       0.906  10.639  20.561  0.00  0.00    +0.000 A 
ATOM      8  C   UNL     1       0.078  11.556  21.161  0.00  0.00    +0.000 A 
ATOM      9  N   UNL     1      -1.093  11.958  20.632  0.00  0.00    +0.000 NA
ATOM     10  C   UNL     1      -1.479  11.422  19.462  0.00  0.00    +0.000 A 
ATOM     11  C   UNL     1      -2.684  11.857  18.923  0.00  0.00    +0.000 A 
ATOM     12  C   UNL     1      -3.185  11.358  17.720  0.00  0.00    +0.000 A 
ATOM     13  C   UNL     1      -2.472  10.386  17.031  0.00  0.00    +0.000 A 
ATOM     14  C   UNL     1      -1.263   9.939  17.551  0.00  0.00    +0.000 A 
ATOM     15  C   UNL     1      -0.723  10.459  18.756  0.00  0.00    +0.000 A 
ENDBRANCH   3   6
BRANCH   1  17
ATOM     16  C   UNL     1       2.780   5.204  19.279  0.00  0.00    +0.000 C 
ATOM     17  C   UNL     1       3.314   6.152  18.195  0.00  0.00    +0.000 C 
BRANCH  17  18
ATOM     18  C   UNL     1       4.856   6.268  18.238  0.00  0.00    +0.000 C 
BRANCH  18  19
ATOM     19  C   UNL     1       5.562   5.650  17.060  0.00  0.00    +0.000 A 
ATOM     20  C   UNL     1       6.864   6.001  16.725  0.00  0.00    +0.000 A 
ATOM     21  N   UNL     1       7.490   5.534  15.620  0.00  0.00    +0.000 NA
ATOM     22  C   UNL     1       6.759   4.697  14.850  0.00  0.00    +0.000 A 
ATOM     23  C   UNL     1       5.474   4.319  15.186  0.00  0.00    +0.000 A 
ATOM     24  N   UNL     1       4.858   4.775  16.300  0.00  0.00    +0.000 NA
ENDBRANCH  18  19
ENDBRANCH  17  18
ENDBRANCH   1  17
TORSDOF 4
ENDMDL
MODEL 7
REMARK VINA RESULT:      -7.5      0.815      2.356
REMARK  Name = 
REMARK  5 active torsions:
REMARK  status: ('A' for Active; 'I' for Inactive)
REMARK    1  A    between atoms: C_1  and  C_2
REMARK    2  A    between atoms: C_2  and  C_3
REMARK    3  A    between atoms: C_2  and  N_10
REMARK    4  A    between atoms: C_3  and  C_4
REMARK    5  A    between atoms: C_12  and  C_13
REMARK                            x       y       z     vdW  Elec       q    Type
REMARK                         _______ _______ _______ _____ _____    ______ ____
ROOT
ATOM      1  N   UNL     1       1.296   9.039  18.736  0.00  0.00    +0.000 N 
ATOM      2  C   UNL     1       1.763   8.154  17.813  0.00  0.00    +0.000 A 
ATOM      3  C   UNL     1       2.314   7.143  18.560  0.00  0.00    +0.000 A 
ATOM      4  N   UNL     1       2.240   7.478  19.884  0.00  0.00    +0.000 NA
ATOM      5  N   UNL     1       1.622   8.646  19.981  0.00  0.00    +0.000 NA
ENDROOT
BRANCH   3   6
ATOM      6  C   UNL     1       2.931   5.944  18.023  0.00  0.00    +0.000 A 
ATOM      7  C   UNL     1       2.143   4.788  17.936  0.00  0.00    +0.000 A 
ATOM      8  C   UNL     1       2.689   3.660  17.372  0.00  0.00    +0.000 A 
ATOM      9  N   UNL     1       3.947   3.603  16.895  0.00  0.00    +0.000 NA
ATOM     10  C   UNL     1       4.713   4.702  16.990  0.00  0.00    +0.000 A 
ATOM     11  C   UNL     1       6.005   4.630  16.482  0.00  0.00    +0.000 A 
ATOM     12  C   UNL     1       6.888   5.710  16.540  0.00  0.00    +0.000 A 
ATOM     13  C   UNL     1       6.482   6.897  17.131  0.00  0.00    +0.000 A 
ATOM     14  C   UNL     1       5.193   6.992  17.643  0.00  0.00    +0.000 A 
ATOM     15  C   UNL     1       4.271   5.917  17.564  0.00  0.00    +0.000 A 
ENDBRANCH   3   6
BRANCH   1  17
ATOM     16  C   UNL     1       1.522  11.507  18.885  0.00  0.00    +0.000 C 
ATOM     17  C   UNL     1       0.634  10.314  18.502  0.00  0.00    +0.000 C 
BRANCH  17  18
ATOM     18  C   UNL     1      -0.773  10.412  19.139  0.00  0.00    +0.000 C 
BRANCH  18  19
ATOM     19  C   UNL     1      -1.900  10.541  18.149  0.00  0.00    +0.000 A 
ATOM     20  C   UNL     1      -1.883   9.865  16.935  0.00  0.00    +0.000 A 
ATOM     21  N   UNL     1      -2.833  10.033  15.987  0.00  0.00    +0.000 NA
ATOM     22  C   UNL     1      -3.812  10.913  16.297  0.00  0.00    +0.000 A 
ATOM     23  C   UNL     1      -3.856  11.569  17.511  0.00  0.00    +0.000 A 
ATOM     24  N   UNL     1      -2.912  11.386  18.462  0.00  0.00    +0.000 NA
ENDBRANCH  18  19
ENDBRANCH  17  18
ENDBRANCH   1  17
TORSDOF 4
ENDMDL
MODEL 8
REMARK VINA RESULT:      -7.5      1.734      2.177
REMARK  Name = 
REMARK  5 active torsions:
REMARK  status: ('A' for Active; 'I' for Inactive)
REMARK    1  A    between atoms: C_1  and  C_2
REMARK    2  A    between atoms: C_2  and  C_3
REMARK    3  A    between atoms: C_2  and  N_10
REMARK    4  A    between atoms: C_3  and  C_4
REMARK    5  A    between atoms: C_12  and  C_13
REMARK                            x       y       z     vdW  Elec       q    Type
REMARK                         _______ _______ _______ _____ _____    ______ ____
ROOT
ATOM      1  N   UNL     1       1.605   8.974  19.192  0.00  0.00    +0.000 N 
ATOM      2  C   UNL     1       2.066   7.847  19.800  0.00  0.00    +0.000 A 
ATOM      3  C   UNL     1       2.737   7.176  18.807  0.00  0.00    +0.000 A 
ATOM      4  N   UNL     1       2.595   7.862  17.633  0.00  0.00    +0.000 NA
ATOM      5  N   UNL     1       1.892   8.958  17.877  0.00  0.00    +0.000 NA
ENDROOT
BRANCH   3   6
ATOM      6  C   UNL     1       3.430   5.911  18.971  0.00  0.00    +0.000 A 
ATOM      7  C   UNL     1       4.755   5.829  18.519  0.00  0.00    +0.000 A 
ATOM      8  C   UNL     1       5.448   4.661  18.722  0.00  0.00    +0.000 A 
ATOM      9  N   UNL     1       4.924   3.583  19.335  0.00  0.00    +0.000 NA
ATOM     10  C   UNL     1       3.650   3.649  19.757  0.00  0.00    +0.000 A 
ATOM     11  C   UNL     1       3.128   2.531  20.399  0.00  0.00    +0.000 A 
ATOM     12  C   UNL     1       1.813   2.488  20.865  0.00  0.00    +0.000 A 
ATOM     13  C   UNL     1       0.983   3.585  20.680  0.00  0.00    +0.000 A 
ATOM     14  C   UNL     1       1.486   4.714  20.043  0.00  0.00    +0.000 A 
ATOM     15  C   UNL     1       2.829   4.787  19.592  0.00  0.00    +0.000 A 
ENDBRANCH   3   6
BRANCH   1  17
ATOM     16  C   UNL     1      -0.361   9.499  20.615  0.00  0.00    +0.000 C 
ATOM     17  C   UNL     1       0.803  10.042  19.771  0.00  0.00    +0.000 C 
BRANCH  17  18
ATOM     18  C   UNL     1       0.328  11.094  18.741  0.00  0.00    +0.000 C 
BRANCH  18  19
ATOM     19  C   UNL     1      -1.117  10.965  18.338  0.00  0.00    +0.000 A 
ATOM     20  C   UNL     1      -2.094  11.810  18.851  0.00  0.00    +0.000 A 
ATOM     21  N   UNL     1      -3.411  11.659  18.582  0.00  0.00    +0.000 NA
ATOM     22  C   UNL     1      -3.722  10.622  17.773  0.00  0.00    +0.000 A 
ATOM     23  C   UNL     1      -2.758   9.792  17.234  0.00  0.00    +0.000 A 
ATOM     24  N   UNL     1      -1.442   9.956  17.493  0.00  0.00    +0.000 NA
ENDBRANCH  18  19
ENDBRANCH  17  18
ENDBRANCH   1  17
TORSDOF 4
ENDMDL
MODEL 9
REMARK VINA RESULT:      -7.5      1.780      8.015
REMARK  Name = 
REMARK  5 active torsions:
REMARK  status: ('A' for Active; 'I' for Inactive)
REMARK    1  A    between atoms: C_1  and  C_2
REMARK    2  A    between atoms: C_2  and  C_3
REMARK    3  A    between atoms: C_2  and  N_10
REMARK    4  A    between atoms: C_3  and  C_4
REMARK    5  A    between atoms: C_12  and  C_13
REMARK                            x       y       z     vdW  Elec       q    Type
REMARK                         _______ _______ _______ _____ _____    ______ ____
ROOT
ATOM      1  N   UNL     1       2.406   7.888  18.350  0.00  0.00    +0.000 N 
ATOM      2  C   UNL     1       1.537   8.391  19.269  0.00  0.00    +0.000 A 
ATOM      3  C   UNL     1       1.202   9.629  18.778  0.00  0.00    +0.000 A 
ATOM      4  N   UNL     1       1.927   9.866  17.643  0.00  0.00    +0.000 NA
ATOM      5  N   UNL     1       2.668   8.798  17.394  0.00  0.00    +0.000 NA
ENDROOT
BRANCH   3   6
ATOM      6  C   UNL     1       0.275  10.555  19.401  0.00  0.00    +0.000 A 
ATOM      7  C   UNL     1       0.720  11.269  20.522  0.00  0.00    +0.000 A 
ATOM      8  C   UNL     1      -0.121  12.197  21.088  0.00  0.00    +0.000 A 
ATOM      9  N   UNL     1      -1.357  12.460  20.623  0.00  0.00    +0.000 NA
ATOM     10  C   UNL     1      -1.796  11.768  19.559  0.00  0.00    +0.000 A 
ATOM     11  C   UNL     1      -3.069  12.062  19.083  0.00  0.00    +0.000 A 
ATOM     12  C   UNL     1      -3.628  11.394  17.992  0.00  0.00    +0.000 A 
ATOM     13  C   UNL     1      -2.905  10.395  17.356  0.00  0.00    +0.000 A 
ATOM     14  C   UNL     1      -1.629  10.088  17.812  0.00  0.00    +0.000 A 
ATOM     15  C   UNL     1      -1.032  10.778  18.900  0.00  0.00    +0.000 A 
ENDBRANCH   3   6
BRANCH   1  17
ATOM     16  C   UNL     1       4.289   6.571  17.407  0.00  0.00    +0.000 C 
ATOM     17  C   UNL     1       3.099   6.607  18.377  0.00  0.00    +0.000 C 
BRANCH  17  18
ATOM     18  C   UNL     1       2.163   5.390  18.190  0.00  0.00    +0.000 C 
BRANCH  18  19
ATOM     19  C   UNL     1       2.814   4.057  18.451  0.00  0.00    +0.000 A 
ATOM     20  C   UNL     1       2.702   3.004  17.551  0.00  0.00    +0.000 A 
ATOM     21  N   UNL     1       3.195   1.769  17.800  0.00  0.00    +0.000 NA
ATOM     22  C   UNL     1       3.808   1.620  18.996  0.00  0.00    +0.000 A 
ATOM     23  C   UNL     1       3.950   2.666  19.887  0.00  0.00    +0.000 A 
ATOM     24  N   UNL     1       3.471   3.902  19.627  0.00  0.00    +0.000 NA
ENDBRANCH  18  19
ENDBRANCH  17  18
ENDBRANCH   1  17
TORSDOF 4
ENDMDL
