MODEL 1
REMARK VINA RESULT:      -8.3      0.000      0.000
REMARK  Name = 
REMARK  4 active torsions:
REMARK  status: ('A' for Active; 'I' for Inactive)
REMARK    1  A    between atoms: C_2  and  C_15
REMARK    2  A    between atoms: N_3  and  C_4
REMARK    3  A    between atoms: C_7  and  C_8
REMARK    4  A    between atoms: C_21  and  O_22
REMARK                            x       y       z     vdW  Elec       q    Type
REMARK                         _______ _______ _______ _____ _____    ______ ____
ROOT
ATOM      1  O   UNL     1       4.925   5.588  16.227  0.00  0.00    +0.000 OA
ATOM      2  C   UNL     1       5.204   4.455  15.846  0.00  0.00    +0.000 C 
ATOM      3  N   UNL     1       4.883   3.283  16.503  0.00  0.00    +0.000 N 
ATOM      4  H   UNL     1       5.296   2.422  16.147  0.00  0.00    +0.000 HD
ENDROOT
BRANCH   3   5
ATOM      5  C   UNL     1       4.124   3.180  17.691  0.00  0.00    +0.000 A 
ATOM      6  C   UNL     1       2.829   2.654  17.722  0.00  0.00    +0.000 A 
ATOM      7  C   UNL     1       2.111   2.583  18.917  0.00  0.00    +0.000 A 
ATOM      8  C   UNL     1       2.674   3.026  20.118  0.00  0.00    +0.000 A 
ATOM      9  C   UNL     1       3.979   3.543  20.098  0.00  0.00    +0.000 A 
ATOM     10  C   UNL     1       4.689   3.609  18.896  0.00  0.00    +0.000 A 
ATOM     11  F   UNL     1       5.936   4.107  18.907  0.00  0.00    +0.000 F 
BRANCH   8  12
ATOM     12  C   UNL     1       1.892   2.936  21.404  0.00  0.00    +0.000 C 
ATOM     13  F   UNL     1       0.542   2.997  21.223  0.00  0.00    +0.000 F 
ATOM     14  F   UNL     1       2.124   1.773  22.070  0.00  0.00    +0.000 F 
ATOM     15  F   UNL     1       2.197   3.938  22.272  0.00  0.00    +0.000 F 
ENDBRANCH   8  12
ENDBRANCH   3   5
BRANCH   2  16
ATOM     16  C   UNL     1       5.958   4.341  14.567  0.00  0.00    +0.000 A 
ATOM     17  C   UNL     1       5.384   3.520  13.580  0.00  0.00    +0.000 A 
ATOM     18  C   UNL     1       5.977   3.402  12.329  0.00  0.00    +0.000 A 
ATOM     19 CL   UNL     1       5.260   2.400  11.131  0.00  0.00    +0.000 Cl
ATOM     20  C   UNL     1       7.149   4.101  12.044  0.00  0.00    +0.000 A 
ATOM     21  C   UNL     1       7.737   4.910  13.020  0.00  0.00    +0.000 A 
ATOM     22  C   UNL     1       7.143   5.029  14.281  0.00  0.00    +0.000 A 
BRANCH  22  23
ATOM     23  O   UNL     1       7.730   5.828  15.224  0.00  0.00    +0.000 OA
ATOM     24  H   UNL     1       8.680   5.622  15.269  0.00  0.00    +0.000 HD
ENDBRANCH  22  23
ENDBRANCH   2  16
TORSDOF 4
ENDMDL
MODEL 2
REMARK VINA RESULT:      -8.2      0.982      1.394
REMARK  Name = 
REMARK  4 active torsions:
REMARK  status: ('A' for Active; 'I' for Inactive)
REMARK    1  A    between atoms: C_2  and  C_15
REMARK    2  A    between atoms: N_3  and  C_4
REMARK    3  A    between atoms: C_7  and  C_8
REMARK    4  A    between atoms: C_21  and  O_22
REMARK                            x       y       z     vdW  Elec       q    Type
REMARK                         _______ _______ _______ _____ _____    ______ ____
ROOT
ATOM      1  O   UNL     1       4.859   5.623  16.209  0.00  0.00    +0.000 OA
ATOM      2  C   UNL     1       5.199   4.491  15.879  0.00  0.00    +0.000 C 
ATOM      3  N   UNL     1       4.961   3.336  16.599  0.00  0.00    +0.000 N 
ATOM      4  H   UNL     1       5.419   2.484  16.276  0.00  0.00    +0.000 HD
ENDROOT
BRANCH   3   5
ATOM      5  C   UNL     1       4.232   3.248  17.807  0.00  0.00    +0.000 A 
ATOM      6  C   UNL     1       4.841   3.253  19.064  0.00  0.00    +0.000 A 
ATOM      7  C   UNL     1       4.081   3.152  20.231  0.00  0.00    +0.000 A 
ATOM      8  C   UNL     1       2.687   3.052  20.172  0.00  0.00    +0.000 A 
ATOM      9  C   UNL     1       2.067   3.059  18.913  0.00  0.00    +0.000 A 
ATOM     10  C   UNL     1       2.837   3.162  17.751  0.00  0.00    +0.000 A 
ATOM     11  F   UNL     1       2.216   3.167  16.561  0.00  0.00    +0.000 F 
BRANCH   8  12
ATOM     12  C   UNL     1       1.878   2.951  21.439  0.00  0.00    +0.000 C 
ATOM     13  F   UNL     1       0.538   3.110  21.242  0.00  0.00    +0.000 F 
ATOM     14  F   UNL     1       2.021   1.744  22.051  0.00  0.00    +0.000 F 
ATOM     15  F   UNL     1       2.231   3.887  22.361  0.00  0.00    +0.000 F 
ENDBRANCH   8  12
ENDBRANCH   3   5
BRANCH   2  16
ATOM     16  C   UNL     1       5.933   4.357  14.590  0.00  0.00    +0.000 A 
ATOM     17  C   UNL     1       5.334   3.538  13.616  0.00  0.00    +0.000 A 
ATOM     18  C   UNL     1       5.909   3.403  12.359  0.00  0.00    +0.000 A 
ATOM     19 CL   UNL     1       5.162   2.404  11.177  0.00  0.00    +0.000 Cl
ATOM     20  C   UNL     1       7.087   4.083  12.053  0.00  0.00    +0.000 A 
ATOM     21  C   UNL     1       7.699   4.890  13.016  0.00  0.00    +0.000 A 
ATOM     22  C   UNL     1       7.125   5.026  14.284  0.00  0.00    +0.000 A 
BRANCH  22  23
ATOM     23  O   UNL     1       7.735   5.823  15.213  0.00  0.00    +0.000 OA
ATOM     24  H   UNL     1       8.664   5.960  14.955  0.00  0.00    +0.000 HD
ENDBRANCH  22  23
ENDBRANCH   2  16
TORSDOF 4
ENDMDL
MODEL 3
REMARK VINA RESULT:      -8.0      1.272      1.422
REMARK  Name = 
REMARK  4 active torsions:
REMARK  status: ('A' for Active; 'I' for Inactive)
REMARK    1  A    between atoms: C_2  and  C_15
REMARK    2  A    between atoms: N_3  and  C_4
REMARK    3  A    between atoms: C_7  and  C_8
REMARK    4  A    between atoms: C_21  and  O_22
REMARK                            x       y       z     vdW  Elec       q    Type
REMARK                         _______ _______ _______ _____ _____    ______ ____
ROOT
ATOM      1  O   UNL     1       6.601   4.248  16.804  0.00  0.00    +0.000 OA
ATOM      2  C   UNL     1       5.819   4.074  15.874  0.00  0.00    +0.000 C 
ATOM      3  N   UNL     1       4.466   3.821  15.997  0.00  0.00    +0.000 N 
ATOM      4  H   UNL     1       3.963   3.560  15.150  0.00  0.00    +0.000 HD
ENDROOT
BRANCH   3   5
ATOM      5  C   UNL     1       3.737   3.782  17.207  0.00  0.00    +0.000 A 
ATOM      6  C   UNL     1       3.392   2.589  17.849  0.00  0.00    +0.000 A 
ATOM      7  C   UNL     1       2.659   2.598  19.037  0.00  0.00    +0.000 A 
ATOM      8  C   UNL     1       2.260   3.803  19.623  0.00  0.00    +0.000 A 
ATOM      9  C   UNL     1       2.613   5.006  18.993  0.00  0.00    +0.000 A 
ATOM     10  C   UNL     1       3.348   4.986  17.804  0.00  0.00    +0.000 A 
ATOM     11  F   UNL     1       3.673   6.152  17.224  0.00  0.00    +0.000 F 
BRANCH   8  12
ATOM     12  C   UNL     1       1.476   3.800  20.911  0.00  0.00    +0.000 C 
ATOM     13  F   UNL     1       0.910   2.594  21.199  0.00  0.00    +0.000 F 
ATOM     14  F   UNL     1       2.247   4.114  21.987  0.00  0.00    +0.000 F 
ATOM     15  F   UNL     1       0.454   4.698  20.903  0.00  0.00    +0.000 F 
ENDBRANCH   8  12
ENDBRANCH   3   5
BRANCH   2  16
ATOM     16  C   UNL     1       6.383   4.139  14.498  0.00  0.00    +0.000 A 
ATOM     17  C   UNL     1       5.852   3.229  13.566  0.00  0.00    +0.000 A 
ATOM     18  C   UNL     1       6.266   3.256  12.241  0.00  0.00    +0.000 A 
ATOM     19 CL   UNL     1       5.603   2.142  11.112  0.00  0.00    +0.000 Cl
ATOM     20  C   UNL     1       7.213   4.190  11.824  0.00  0.00    +0.000 A 
ATOM     21  C   UNL     1       7.758   5.092  12.742  0.00  0.00    +0.000 A 
ATOM     22  C   UNL     1       7.345   5.065  14.078  0.00  0.00    +0.000 A 
BRANCH  22  23
ATOM     23  O   UNL     1       7.886   5.957  14.963  0.00  0.00    +0.000 OA
ATOM     24  H   UNL     1       7.346   6.768  14.968  0.00  0.00    +0.000 HD
ENDBRANCH  22  23
ENDBRANCH   2  16
TORSDOF 4
ENDMDL
MODEL 4
REMARK VINA RESULT:      -8.0      1.314      1.524
REMARK  Name = 
REMARK  4 active torsions:
REMARK  status: ('A' for Active; 'I' for Inactive)
REMARK    1  A    between atoms: C_2  and  C_15
REMARK    2  A    between atoms: N_3  and  C_4
REMARK    3  A    between atoms: C_7  and  C_8
REMARK    4  A    between atoms: C_21  and  O_22
REMARK                            x       y       z     vdW  Elec       q    Type
REMARK                         _______ _______ _______ _____ _____    ______ ____
ROOT
ATOM      1  O   UNL     1       6.538   4.374  16.789  0.00  0.00    +0.000 OA
ATOM      2  C   UNL     1       5.754   4.178  15.865  0.00  0.00    +0.000 C 
ATOM      3  N   UNL     1       4.396   3.955  15.996  0.00  0.00    +0.000 N 
ATOM      4  H   UNL     1       3.890   3.670  15.158  0.00  0.00    +0.000 HD
ENDROOT
BRANCH   3   5
ATOM      5  C   UNL     1       3.665   3.978  17.205  0.00  0.00    +0.000 A 
ATOM      6  C   UNL     1       3.085   5.139  17.721  0.00  0.00    +0.000 A 
ATOM      7  C   UNL     1       2.381   5.117  18.926  0.00  0.00    +0.000 A 
ATOM      8  C   UNL     1       2.228   3.927  19.644  0.00  0.00    +0.000 A 
ATOM      9  C   UNL     1       2.796   2.752  19.126  0.00  0.00    +0.000 A 
ATOM     10  C   UNL     1       3.498   2.786  17.918  0.00  0.00    +0.000 A 
ATOM     11  F   UNL     1       4.029   1.647  17.446  0.00  0.00    +0.000 F 
BRANCH   8  12
ATOM     12  C   UNL     1       1.459   3.914  20.940  0.00  0.00    +0.000 C 
ATOM     13  F   UNL     1       0.720   2.782  21.122  0.00  0.00    +0.000 F 
ATOM     14  F   UNL     1       2.272   4.004  22.027  0.00  0.00    +0.000 F 
ATOM     15  F   UNL     1       0.582   4.950  21.037  0.00  0.00    +0.000 F 
ENDBRANCH   8  12
ENDBRANCH   3   5
BRANCH   2  16
ATOM     16  C   UNL     1       6.321   4.178  14.488  0.00  0.00    +0.000 A 
ATOM     17  C   UNL     1       5.738   3.278  13.577  0.00  0.00    +0.000 A 
ATOM     18  C   UNL     1       6.153   3.250  12.252  0.00  0.00    +0.000 A 
ATOM     19 CL   UNL     1       5.426   2.151  11.149  0.00  0.00    +0.000 Cl
ATOM     20  C   UNL     1       7.152   4.118  11.815  0.00  0.00    +0.000 A 
ATOM     21  C   UNL     1       7.749   5.007  12.713  0.00  0.00    +0.000 A 
ATOM     22  C   UNL     1       7.335   5.036  14.049  0.00  0.00    +0.000 A 
BRANCH  22  23
ATOM     23  O   UNL     1       7.927   5.916  14.913  0.00  0.00    +0.000 OA
ATOM     24  H   UNL     1       8.861   6.031  14.661  0.00  0.00    +0.000 HD
ENDBRANCH  22  23
ENDBRANCH   2  16
TORSDOF 4
ENDMDL
MODEL 5
REMARK VINA RESULT:      -8.0      1.165      1.548
REMARK  Name = 
REMARK  4 active torsions:
REMARK  status: ('A' for Active; 'I' for Inactive)
REMARK    1  A    between atoms: C_2  and  C_15
REMARK    2  A    between atoms: N_3  and  C_4
REMARK    3  A    between atoms: C_7  and  C_8
REMARK    4  A    between atoms: C_21  and  O_22
REMARK                            x       y       z     vdW  Elec       q    Type
REMARK                         _______ _______ _______ _____ _____    ______ ____
ROOT
ATOM      1  O   UNL     1       6.715   4.352  16.869  0.00  0.00    +0.000 OA
ATOM      2  C   UNL     1       5.888   4.076  16.006  0.00  0.00    +0.000 C 
ATOM      3  N   UNL     1       4.577   3.705  16.236  0.00  0.00    +0.000 N 
ATOM      4  H   UNL     1       4.041   3.370  15.436  0.00  0.00    +0.000 HD
ENDROOT
BRANCH   3   5
ATOM      5  C   UNL     1       3.943   3.641  17.498  0.00  0.00    +0.000 A 
ATOM      6  C   UNL     1       3.552   4.777  18.210  0.00  0.00    +0.000 A 
ATOM      7  C   UNL     1       2.940   4.667  19.460  0.00  0.00    +0.000 A 
ATOM      8  C   UNL     1       2.691   3.413  20.027  0.00  0.00    +0.000 A 
ATOM      9  C   UNL     1       3.068   2.266  19.312  0.00  0.00    +0.000 A 
ATOM     10  C   UNL     1       3.680   2.388  18.061  0.00  0.00    +0.000 A 
ATOM     11  F   UNL     1       4.029   1.273  17.400  0.00  0.00    +0.000 F 
BRANCH   8  12
ATOM     12  C   UNL     1       2.021   3.306  21.373  0.00  0.00    +0.000 C 
ATOM     13  F   UNL     1       2.348   4.320  22.224  0.00  0.00    +0.000 F 
ATOM     14  F   UNL     1       0.664   3.325  21.279  0.00  0.00    +0.000 F 
ATOM     15  F   UNL     1       2.339   2.156  22.026  0.00  0.00    +0.000 F 
ENDBRANCH   8  12
ENDBRANCH   3   5
BRANCH   2  16
ATOM     16  C   UNL     1       6.343   4.145  14.590  0.00  0.00    +0.000 A 
ATOM     17  C   UNL     1       5.686   3.292  13.684  0.00  0.00    +0.000 A 
ATOM     18  C   UNL     1       5.994   3.330  12.331  0.00  0.00    +0.000 A 
ATOM     19 CL   UNL     1       5.177   2.288  11.235  0.00  0.00    +0.000 Cl
ATOM     20  C   UNL     1       6.959   4.219  11.859  0.00  0.00    +0.000 A 
ATOM     21  C   UNL     1       7.630   5.062  12.750  0.00  0.00    +0.000 A 
ATOM     22  C   UNL     1       7.323   5.024  14.114  0.00  0.00    +0.000 A 
BRANCH  22  23
ATOM     23  O   UNL     1       7.986   5.859  14.971  0.00  0.00    +0.000 OA
ATOM     24  H   UNL     1       8.169   6.701  14.518  0.00  0.00    +0.000 HD
ENDBRANCH  22  23
ENDBRANCH   2  16
TORSDOF 4
ENDMDL
MODEL 6
REMARK VINA RESULT:      -7.6      1.583      2.054
REMARK  Name = 
REMARK  4 active torsions:
REMARK  status: ('A' for Active; 'I' for Inactive)
REMARK    1  A    between atoms: C_2  and  C_15
REMARK    2  A    between atoms: N_3  and  C_4
REMARK    3  A    between atoms: C_7  and  C_8
REMARK    4  A    between atoms: C_21  and  O_22
REMARK                            x       y       z     vdW  Elec       q    Type
REMARK                         _______ _______ _______ _____ _____    ______ ____
ROOT
ATOM      1  O   UNL     1       5.298   6.278  15.443  0.00  0.00    +0.000 OA
ATOM      2  C   UNL     1       5.383   5.063  15.295  0.00  0.00    +0.000 C 
ATOM      3  N   UNL     1       4.894   4.110  16.168  0.00  0.00    +0.000 N 
ATOM      4  H   UNL     1       5.155   3.141  15.992  0.00  0.00    +0.000 HD
ENDROOT
BRANCH   3   5
ATOM      5  C   UNL     1       4.156   4.366  17.346  0.00  0.00    +0.000 A 
ATOM      6  C   UNL     1       4.649   5.143  18.398  0.00  0.00    +0.000 A 
ATOM      7  C   UNL     1       3.890   5.358  19.549  0.00  0.00    +0.000 A 
ATOM      8  C   UNL     1       2.609   4.810  19.676  0.00  0.00    +0.000 A 
ATOM      9  C   UNL     1       2.101   4.039  18.619  0.00  0.00    +0.000 A 
ATOM     10  C   UNL     1       2.870   3.830  17.470  0.00  0.00    +0.000 A 
ATOM     11  F   UNL     1       2.357   3.089  16.474  0.00  0.00    +0.000 F 
BRANCH   8  12
ATOM     12  C   UNL     1       1.796   5.058  20.920  0.00  0.00    +0.000 C 
ATOM     13  F   UNL     1       1.699   6.376  21.253  0.00  0.00    +0.000 F 
ATOM     14  F   UNL     1       0.516   4.611  20.800  0.00  0.00    +0.000 F 
ATOM     15  F   UNL     1       2.312   4.436  22.015  0.00  0.00    +0.000 F 
ENDBRANCH   8  12
ENDBRANCH   3   5
BRANCH   2  16
ATOM     16  C   UNL     1       6.078   4.580  14.070  0.00  0.00    +0.000 A 
ATOM     17  C   UNL     1       5.368   3.661  13.276  0.00  0.00    +0.000 A 
ATOM     18  C   UNL     1       5.905   3.203  12.079  0.00  0.00    +0.000 A 
ATOM     19 CL   UNL     1       5.022   2.086  11.116  0.00  0.00    +0.000 Cl
ATOM     20  C   UNL     1       7.153   3.655  11.656  0.00  0.00    +0.000 A 
ATOM     21  C   UNL     1       7.875   4.557  12.442  0.00  0.00    +0.000 A 
ATOM     22  C   UNL     1       7.339   5.018  13.649  0.00  0.00    +0.000 A 
BRANCH  22  23
ATOM     23  O   UNL     1       8.056   5.905  14.404  0.00  0.00    +0.000 OA
ATOM     24  H   UNL     1       8.861   5.466  14.732  0.00  0.00    +0.000 HD
ENDBRANCH  22  23
ENDBRANCH   2  16
TORSDOF 4
ENDMDL
MODEL 7
REMARK VINA RESULT:      -7.4      5.714      8.321
REMARK  Name = 
REMARK  4 active torsions:
REMARK  status: ('A' for Active; 'I' for Inactive)
REMARK    1  A    between atoms: C_2  and  C_15
REMARK    2  A    between atoms: N_3  and  C_4
REMARK    3  A    between atoms: C_7  and  C_8
REMARK    4  A    between atoms: C_21  and  O_22
REMARK                            x       y       z     vdW  Elec       q    Type
REMARK                         _______ _______ _______ _____ _____    ______ ____
ROOT
ATOM      1  O   UNL     1       2.008   8.952  17.386  0.00  0.00    +0.000 OA
ATOM      2  C   UNL     1       2.042   8.381  18.472  0.00  0.00    +0.000 C 
ATOM      3  N   UNL     1       2.726   7.213  18.747  0.00  0.00    +0.000 N 
ATOM      4  H   UNL     1       2.555   6.776  19.652  0.00  0.00    +0.000 HD
ENDROOT
BRANCH   3   5
ATOM      5  C   UNL     1       3.556   6.507  17.847  0.00  0.00    +0.000 A 
ATOM      6  C   UNL     1       4.592   7.113  17.132  0.00  0.00    +0.000 A 
ATOM      7  C   UNL     1       5.379   6.379  16.244  0.00  0.00    +0.000 A 
ATOM      8  C   UNL     1       5.157   5.011  16.053  0.00  0.00    +0.000 A 
ATOM      9  C   UNL     1       4.126   4.390  16.776  0.00  0.00    +0.000 A 
ATOM     10  C   UNL     1       3.345   5.136  17.664  0.00  0.00    +0.000 A 
ATOM     11  F   UNL     1       2.367   4.515  18.343  0.00  0.00    +0.000 F 
BRANCH   8  12
ATOM     12  C   UNL     1       6.019   4.227  15.097  0.00  0.00    +0.000 C 
ATOM     13  F   UNL     1       5.568   4.255  13.811  0.00  0.00    +0.000 F 
ATOM     14  F   UNL     1       7.297   4.691  15.052  0.00  0.00    +0.000 F 
ATOM     15  F   UNL     1       6.105   2.910  15.431  0.00  0.00    +0.000 F 
ENDBRANCH   8  12
ENDBRANCH   3   5
BRANCH   2  16
ATOM     16  C   UNL     1       1.274   9.006  19.585  0.00  0.00    +0.000 A 
ATOM     17  C   UNL     1       0.543  10.163  19.262  0.00  0.00    +0.000 A 
ATOM     18  C   UNL     1      -0.257  10.779  20.215  0.00  0.00    +0.000 A 
ATOM     19 CL   UNL     1      -1.152  12.188  19.803  0.00  0.00    +0.000 Cl
ATOM     20  C   UNL     1      -0.342  10.252  21.503  0.00  0.00    +0.000 A 
ATOM     21  C   UNL     1       0.391   9.111  21.841  0.00  0.00    +0.000 A 
ATOM     22  C   UNL     1       1.200   8.489  20.884  0.00  0.00    +0.000 A 
BRANCH  22  23
ATOM     23  O   UNL     1       1.906   7.370  21.231  0.00  0.00    +0.000 OA
ATOM     24  H   UNL     1       1.378   6.581  21.017  0.00  0.00    +0.000 HD
ENDBRANCH  22  23
ENDBRANCH   2  16
TORSDOF 4
ENDMDL
MODEL 8
REMARK VINA RESULT:      -7.3      6.079      8.489
REMARK  Name = 
REMARK  4 active torsions:
REMARK  status: ('A' for Active; 'I' for Inactive)
REMARK    1  A    between atoms: C_2  and  C_15
REMARK    2  A    between atoms: N_3  and  C_4
REMARK    3  A    between atoms: C_7  and  C_8
REMARK    4  A    between atoms: C_21  and  O_22
REMARK                            x       y       z     vdW  Elec       q    Type
REMARK                         _______ _______ _______ _____ _____    ______ ____
ROOT
ATOM      1  O   UNL     1       1.973   9.438  17.366  0.00  0.00    +0.000 OA
ATOM      2  C   UNL     1       1.726   8.851  18.415  0.00  0.00    +0.000 C 
ATOM      3  N   UNL     1       2.218   7.612  18.779  0.00  0.00    +0.000 N 
ATOM      4  H   UNL     1       1.823   7.182  19.615  0.00  0.00    +0.000 HD
ENDROOT
BRANCH   3   5
ATOM      5  C   UNL     1       3.138   6.835  18.039  0.00  0.00    +0.000 A 
ATOM      6  C   UNL     1       4.253   7.382  17.400  0.00  0.00    +0.000 A 
ATOM      7  C   UNL     1       5.130   6.578  16.669  0.00  0.00    +0.000 A 
ATOM      8  C   UNL     1       4.919   5.199  16.567  0.00  0.00    +0.000 A 
ATOM      9  C   UNL     1       3.809   4.639  17.217  0.00  0.00    +0.000 A 
ATOM     10  C   UNL     1       2.938   5.454  17.947  0.00  0.00    +0.000 A 
ATOM     11  F   UNL     1       1.885   4.890  18.559  0.00  0.00    +0.000 F 
BRANCH   8  12
ATOM     12  C   UNL     1       5.877   4.340  15.782  0.00  0.00    +0.000 C 
ATOM     13  F   UNL     1       5.624   3.004  15.892  0.00  0.00    +0.000 F 
ATOM     14  F   UNL     1       5.848   4.614  14.450  0.00  0.00    +0.000 F 
ATOM     15  F   UNL     1       7.170   4.506  16.174  0.00  0.00    +0.000 F 
ENDBRANCH   8  12
ENDBRANCH   3   5
BRANCH   2  16
ATOM     16  C   UNL     1       0.815   9.536  19.372  0.00  0.00    +0.000 A 
ATOM     17  C   UNL     1       0.962   9.188  20.727  0.00  0.00    +0.000 A 
ATOM     18  C   UNL     1       0.204   9.822  21.703  0.00  0.00    +0.000 A 
ATOM     19 CL   UNL     1       0.401   9.391  23.356  0.00  0.00    +0.000 Cl
ATOM     20  C   UNL     1      -0.711  10.811  21.345  0.00  0.00    +0.000 A 
ATOM     21  C   UNL     1      -0.877  11.156  20.001  0.00  0.00    +0.000 A 
ATOM     22  C   UNL     1      -0.117  10.519  19.015  0.00  0.00    +0.000 A 
BRANCH  22  23
ATOM     23  O   UNL     1      -0.289  10.872  17.705  0.00  0.00    +0.000 OA
ATOM     24  H   UNL     1       0.395  11.520  17.457  0.00  0.00    +0.000 HD
ENDBRANCH  22  23
ENDBRANCH   2  16
TORSDOF 4
ENDMDL
MODEL 9
REMARK VINA RESULT:      -7.1      6.610      7.873
REMARK  Name = 
REMARK  4 active torsions:
REMARK  status: ('A' for Active; 'I' for Inactive)
REMARK    1  A    between atoms: C_2  and  C_15
REMARK    2  A    between atoms: N_3  and  C_4
REMARK    3  A    between atoms: C_7  and  C_8
REMARK    4  A    between atoms: C_21  and  O_22
REMARK                            x       y       z     vdW  Elec       q    Type
REMARK                         _______ _______ _______ _____ _____    ______ ____
ROOT
ATOM      1  O   UNL     1       7.771  10.228  17.550  0.00  0.00    +0.000 OA
ATOM      2  C   UNL     1       8.606   9.736  18.302  0.00  0.00    +0.000 C 
ATOM      3  N   UNL     1       8.657   8.411  18.692  0.00  0.00    +0.000 N 
ATOM      4  H   UNL     1       9.319   8.168  19.428  0.00  0.00    +0.000 HD
ENDROOT
BRANCH   3   5
ATOM      5  C   UNL     1       7.798   7.382  18.244  0.00  0.00    +0.000 A 
ATOM      6  C   UNL     1       6.887   7.553  17.199  0.00  0.00    +0.000 A 
ATOM      7  C   UNL     1       6.049   6.511  16.798  0.00  0.00    +0.000 A 
ATOM      8  C   UNL     1       6.108   5.263  17.426  0.00  0.00    +0.000 A 
ATOM      9  C   UNL     1       7.029   5.078  18.468  0.00  0.00    +0.000 A 
ATOM     10  C   UNL     1       7.864   6.128  18.861  0.00  0.00    +0.000 A 
ATOM     11  F   UNL     1       8.737   5.922  19.860  0.00  0.00    +0.000 F 
BRANCH   8  12
ATOM     12  C   UNL     1       5.204   4.143  16.978  0.00  0.00    +0.000 C 
ATOM     13  F   UNL     1       5.754   3.355  16.011  0.00  0.00    +0.000 F 
ATOM     14  F   UNL     1       4.875   3.303  17.997  0.00  0.00    +0.000 F 
ATOM     15  F   UNL     1       4.027   4.594  16.465  0.00  0.00    +0.000 F 
ENDBRANCH   8  12
ENDBRANCH   3   5
BRANCH   2  16
ATOM     16  C   UNL     1       9.650  10.651  18.841  0.00  0.00    +0.000 A 
ATOM     17  C   UNL     1      10.432  11.329  17.889  0.00  0.00    +0.000 A 
ATOM     18  C   UNL     1      11.387  12.254  18.292  0.00  0.00    +0.000 A 
ATOM     19 CL   UNL     1      12.330  13.080  17.116  0.00  0.00    +0.000 Cl
ATOM     20  C   UNL     1      11.575  12.518  19.648  0.00  0.00    +0.000 A 
ATOM     21  C   UNL     1      10.814  11.841  20.605  0.00  0.00    +0.000 A 
ATOM     22  C   UNL     1       9.853  10.907  20.202  0.00  0.00    +0.000 A 
BRANCH  22  23
ATOM     23  O   UNL     1       9.114  10.256  21.152  0.00  0.00    +0.000 OA
ATOM     24  H   UNL     1       8.447   9.700  20.711  0.00  0.00    +0.000 HD
ENDBRANCH  22  23
ENDBRANCH   2  16
TORSDOF 4
ENDMDL
