MODEL 1
REMARK VINA RESULT:      -7.3      0.000      0.000
REMARK  Name = 
REMARK  7 active torsions:
REMARK  status: ('A' for Active; 'I' for Inactive)
REMARK    1  A    between atoms: C_1  and  C_2
REMARK    2  A    between atoms: C_5  and  N_6
REMARK    3  A    between atoms: N_9  and  C_10
REMARK    4  A    between atoms: C_10  and  C_19
REMARK    5  A    between atoms: C_11  and  C_12
REMARK    6  A    between atoms: C_19  and  C_20
REMARK    7  A    between atoms: C_19  and  O_21
REMARK                            x       y       z     vdW  Elec       q    Type
REMARK                         _______ _______ _______ _____ _____    ______ ____
ROOT
ATOM      1  C   UNL     1       5.098   4.789  17.156  0.00  0.00    +0.000 C 
ATOM      2  C   UNL     1       4.686   4.468  15.900  0.00  0.00    +0.000 C 
ENDROOT
BRANCH   2   3
ATOM      3  C   UNL     1       5.529   4.326  14.693  0.00  0.00    +0.000 A 
ATOM      4  C   UNL     1       6.755   5.001  14.606  0.00  0.00    +0.000 A 
ATOM      5  C   UNL     1       7.518   4.936  13.436  0.00  0.00    +0.000 A 
ATOM      6  C   UNL     1       7.074   4.167  12.368  0.00  0.00    +0.000 A 
ATOM      7  F   UNL     1       7.798   4.123  11.241  0.00  0.00    +0.000 F 
ATOM      8  C   UNL     1       5.885   3.455  12.450  0.00  0.00    +0.000 A 
ATOM      9  C   UNL     1       5.112   3.533  13.613  0.00  0.00    +0.000 A 
ENDBRANCH   2   3
BRANCH   1  15
ATOM     10  C   UNL     1       3.359   7.414  17.897  0.00  0.00    +0.000 C 
ATOM     11  C   UNL     1       3.400   6.100  18.600  0.00  0.00    +0.000 A 
ATOM     12  N   UNL     1       2.744   5.957  19.737  0.00  0.00    +0.000 NA
ATOM     13  C   UNL     1       3.014   4.710  20.178  0.00  0.00    +0.000 A 
ATOM     14  C   UNL     1       3.838   4.066  19.297  0.00  0.00    +0.000 A 
ATOM     15  N   UNL     1       4.172   4.949  18.259  0.00  0.00    +0.000 N 
BRANCH  14  16
ATOM     16  N   UNL     1       4.145   2.681  19.400  0.00  0.00    +0.000 N 
ATOM     17  O   UNL     1       3.466   1.921  18.696  0.00  0.00    +0.000 OA
ATOM     18  O   UNL     1       5.084   2.333  20.117  0.00  0.00    +0.000 OA
ENDBRANCH  14  16
ENDBRANCH   1  15
BRANCH   1  19
ATOM     19  C   UNL     1       6.586   5.019  17.451  0.00  0.00    +0.000 C 
ATOM     20  C   UNL     1       6.956   6.446  17.866  0.00  0.00    +0.000 C 
BRANCH  19  21
ATOM     21  O   UNL     1       7.048   4.066  18.407  0.00  0.00    +0.000 OA
ATOM     22  H   UNL     1       6.667   3.199  18.191  0.00  0.00    +0.000 HD
ENDBRANCH  19  21
ENDBRANCH   1  19
TORSDOF 5
ENDMDL
MODEL 2
REMARK VINA RESULT:      -7.2      0.144      1.064
REMARK  Name = 
REMARK  7 active torsions:
REMARK  status: ('A' for Active; 'I' for Inactive)
REMARK    1  A    between atoms: C_1  and  C_2
REMARK    2  A    between atoms: C_5  and  N_6
REMARK    3  A    between atoms: N_9  and  C_10
REMARK    4  A    between atoms: C_10  and  C_19
REMARK    5  A    between atoms: C_11  and  C_12
REMARK    6  A    between atoms: C_19  and  C_20
REMARK    7  A    between atoms: C_19  and  O_21
REMARK                            x       y       z     vdW  Elec       q    Type
REMARK                         _______ _______ _______ _____ _____    ______ ____
ROOT
ATOM      1  C   UNL     1       5.101   4.860  17.057  0.00  0.00    +0.000 C 
ATOM      2  C   UNL     1       4.662   4.547  15.808  0.00  0.00    +0.000 C 
ENDROOT
BRANCH   2   3
ATOM      3  C   UNL     1       5.479   4.402  14.584  0.00  0.00    +0.000 A 
ATOM      4  C   UNL     1       5.029   3.598  13.528  0.00  0.00    +0.000 A 
ATOM      5  C   UNL     1       5.833   3.393  12.402  0.00  0.00    +0.000 A 
ATOM      6  C   UNL     1       7.070   4.020  12.316  0.00  0.00    +0.000 A 
ATOM      7  F   UNL     1       7.846   3.804  11.245  0.00  0.00    +0.000 F 
ATOM      8  C   UNL     1       7.515   4.856  13.332  0.00  0.00    +0.000 A 
ATOM      9  C   UNL     1       6.719   5.049  14.466  0.00  0.00    +0.000 A 
ENDBRANCH   2   3
BRANCH   1  15
ATOM     10  C   UNL     1       3.360   7.481  17.808  0.00  0.00    +0.000 C 
ATOM     11  C   UNL     1       3.426   6.174  18.524  0.00  0.00    +0.000 A 
ATOM     12  N   UNL     1       2.795   6.040  19.676  0.00  0.00    +0.000 NA
ATOM     13  C   UNL     1       3.083   4.799  20.124  0.00  0.00    +0.000 A 
ATOM     14  C   UNL     1       3.892   4.151  19.233  0.00  0.00    +0.000 A 
ATOM     15  N   UNL     1       4.198   5.025  18.178  0.00  0.00    +0.000 N 
BRANCH  14  16
ATOM     16  N   UNL     1       4.211   2.770  19.343  0.00  0.00    +0.000 N 
ATOM     17  O   UNL     1       3.552   2.001  18.629  0.00  0.00    +0.000 OA
ATOM     18  O   UNL     1       5.141   2.431  20.077  0.00  0.00    +0.000 OA
ENDBRANCH  14  16
ENDBRANCH   1  15
BRANCH   1  19
ATOM     19  C   UNL     1       6.596   5.074  17.324  0.00  0.00    +0.000 C 
ATOM     20  C   UNL     1       6.981   6.480  17.793  0.00  0.00    +0.000 C 
BRANCH  19  21
ATOM     21  O   UNL     1       7.080   4.078  18.225  0.00  0.00    +0.000 OA
ATOM     22  H   UNL     1       6.511   4.069  19.012  0.00  0.00    +0.000 HD
ENDBRANCH  19  21
ENDBRANCH   1  19
TORSDOF 5
ENDMDL
MODEL 3
REMARK VINA RESULT:      -7.0      3.428      4.364
REMARK  Name = 
REMARK  7 active torsions:
REMARK  status: ('A' for Active; 'I' for Inactive)
REMARK    1  A    between atoms: C_1  and  C_2
REMARK    2  A    between atoms: C_5  and  N_6
REMARK    3  A    between atoms: N_9  and  C_10
REMARK    4  A    between atoms: C_10  and  C_19
REMARK    5  A    between atoms: C_11  and  C_12
REMARK    6  A    between atoms: C_19  and  C_20
REMARK    7  A    between atoms: C_19  and  O_21
REMARK                            x       y       z     vdW  Elec       q    Type
REMARK                         _______ _______ _______ _____ _____    ______ ____
ROOT
ATOM      1  C   UNL     1       3.662   4.830  18.965  0.00  0.00    +0.000 C 
ATOM      2  C   UNL     1       4.862   4.738  18.331  0.00  0.00    +0.000 C 
ENDROOT
BRANCH   2   3
ATOM      3  C   UNL     1       5.874   5.805  18.176  0.00  0.00    +0.000 A 
ATOM      4  C   UNL     1       5.675   6.836  17.247  0.00  0.00    +0.000 A 
ATOM      5  C   UNL     1       6.664   7.803  17.040  0.00  0.00    +0.000 A 
ATOM      6  C   UNL     1       7.835   7.761  17.786  0.00  0.00    +0.000 A 
ATOM      7  F   UNL     1       8.788   8.676  17.570  0.00  0.00    +0.000 F 
ATOM      8  C   UNL     1       8.032   6.774  18.743  0.00  0.00    +0.000 A 
ATOM      9  C   UNL     1       7.051   5.796  18.940  0.00  0.00    +0.000 A 
ENDBRANCH   2   3
BRANCH   1  15
ATOM     10  C   UNL     1       1.121   4.330  17.026  0.00  0.00    +0.000 C 
ATOM     11  C   UNL     1       1.597   3.494  18.165  0.00  0.00    +0.000 A 
ATOM     12  N   UNL     1       0.874   2.458  18.549  0.00  0.00    +0.000 NA
ATOM     13  C   UNL     1       1.497   1.939  19.629  0.00  0.00    +0.000 A 
ATOM     14  C   UNL     1       2.628   2.654  19.910  0.00  0.00    +0.000 A 
ATOM     15  N   UNL     1       2.722   3.728  19.011  0.00  0.00    +0.000 N 
BRANCH  14  16
ATOM     16  N   UNL     1       3.585   2.236  20.875  0.00  0.00    +0.000 N 
ATOM     17  O   UNL     1       3.180   2.158  22.043  0.00  0.00    +0.000 OA
ATOM     18  O   UNL     1       4.714   1.924  20.495  0.00  0.00    +0.000 OA
ENDBRANCH  14  16
ENDBRANCH   1  15
BRANCH   1  19
ATOM     19  C   UNL     1       3.242   6.137  19.648  0.00  0.00    +0.000 C 
ATOM     20  C   UNL     1       2.488   7.128  18.757  0.00  0.00    +0.000 C 
BRANCH  19  21
ATOM     21  O   UNL     1       2.510   5.853  20.840  0.00  0.00    +0.000 OA
ATOM     22  H   UNL     1       2.249   4.917  20.828  0.00  0.00    +0.000 HD
ENDBRANCH  19  21
ENDBRANCH   1  19
TORSDOF 5
ENDMDL
MODEL 4
REMARK VINA RESULT:      -6.9      3.521      4.503
REMARK  Name = 
REMARK  7 active torsions:
REMARK  status: ('A' for Active; 'I' for Inactive)
REMARK    1  A    between atoms: C_1  and  C_2
REMARK    2  A    between atoms: C_5  and  N_6
REMARK    3  A    between atoms: N_9  and  C_10
REMARK    4  A    between atoms: C_10  and  C_19
REMARK    5  A    between atoms: C_11  and  C_12
REMARK    6  A    between atoms: C_19  and  C_20
REMARK    7  A    between atoms: C_19  and  O_21
REMARK                            x       y       z     vdW  Elec       q    Type
REMARK                         _______ _______ _______ _____ _____    ______ ____
ROOT
ATOM      1  C   UNL     1       3.718   4.656  19.038  0.00  0.00    +0.000 C 
ATOM      2  C   UNL     1       4.965   4.480  18.525  0.00  0.00    +0.000 C 
ENDROOT
BRANCH   2   3
ATOM      3  C   UNL     1       6.026   5.501  18.385  0.00  0.00    +0.000 A 
ATOM      4  C   UNL     1       7.119   5.507  19.263  0.00  0.00    +0.000 A 
ATOM      5  C   UNL     1       8.084   6.516  19.186  0.00  0.00    +0.000 A 
ATOM      6  C   UNL     1       7.975   7.499  18.210  0.00  0.00    +0.000 A 
ATOM      7  F   UNL     1       8.890   8.476  18.154  0.00  0.00    +0.000 F 
ATOM      8  C   UNL     1       6.924   7.486  17.303  0.00  0.00    +0.000 A 
ATOM      9  C   UNL     1       5.949   6.487  17.389  0.00  0.00    +0.000 A 
ENDBRANCH   2   3
BRANCH   1  15
ATOM     10  C   UNL     1       1.851   3.605  16.615  0.00  0.00    +0.000 C 
ATOM     11  C   UNL     1       1.907   3.116  18.022  0.00  0.00    +0.000 A 
ATOM     12  N   UNL     1       1.036   2.207  18.423  0.00  0.00    +0.000 NA
ATOM     13  C   UNL     1       1.270   2.009  19.737  0.00  0.00    +0.000 A 
ATOM     14  C   UNL     1       2.309   2.795  20.155  0.00  0.00    +0.000 A 
ATOM     15  N   UNL     1       2.738   3.589  19.081  0.00  0.00    +0.000 N 
BRANCH  14  16
ATOM     16  N   UNL     1       2.903   2.669  21.441  0.00  0.00    +0.000 N 
ATOM     17  O   UNL     1       3.970   2.043  21.487  0.00  0.00    +0.000 OA
ATOM     18  O   UNL     1       2.367   3.228  22.400  0.00  0.00    +0.000 OA
ENDBRANCH  14  16
ENDBRANCH   1  15
BRANCH   1  19
ATOM     19  C   UNL     1       3.287   6.025  19.581  0.00  0.00    +0.000 C 
ATOM     20  C   UNL     1       2.496   6.896  18.603  0.00  0.00    +0.000 C 
BRANCH  19  21
ATOM     21  O   UNL     1       2.586   5.863  20.814  0.00  0.00    +0.000 OA
ATOM     22  H   UNL     1       1.667   6.153  20.689  0.00  0.00    +0.000 HD
ENDBRANCH  19  21
ENDBRANCH   1  19
TORSDOF 5
ENDMDL
MODEL 5
REMARK VINA RESULT:      -6.8      1.574      1.940
REMARK  Name = 
REMARK  7 active torsions:
REMARK  status: ('A' for Active; 'I' for Inactive)
REMARK    1  A    between atoms: C_1  and  C_2
REMARK    2  A    between atoms: C_5  and  N_6
REMARK    3  A    between atoms: N_9  and  C_10
REMARK    4  A    between atoms: C_10  and  C_19
REMARK    5  A    between atoms: C_11  and  C_12
REMARK    6  A    between atoms: C_19  and  C_20
REMARK    7  A    between atoms: C_19  and  O_21
REMARK                            x       y       z     vdW  Elec       q    Type
REMARK                         _______ _______ _______ _____ _____    ______ ____
ROOT
ATOM      1  C   UNL     1       3.989   4.434  18.110  0.00  0.00    +0.000 C 
ATOM      2  C   UNL     1       3.923   4.719  16.781  0.00  0.00    +0.000 C 
ENDROOT
BRANCH   2   3
ATOM      3  C   UNL     1       5.045   4.762  15.820  0.00  0.00    +0.000 A 
ATOM      4  C   UNL     1       6.026   5.758  15.925  0.00  0.00    +0.000 A 
ATOM      5  C   UNL     1       7.046   5.852  14.973  0.00  0.00    +0.000 A 
ATOM      6  C   UNL     1       7.106   4.929  13.936  0.00  0.00    +0.000 A 
ATOM      7  F   UNL     1       8.072   5.034  13.014  0.00  0.00    +0.000 F 
ATOM      8  C   UNL     1       6.170   3.907  13.839  0.00  0.00    +0.000 A 
ATOM      9  C   UNL     1       5.140   3.822  14.782  0.00  0.00    +0.000 A 
ENDBRANCH   2   3
BRANCH   1  15
ATOM     10  C   UNL     1       2.820   6.980  19.727  0.00  0.00    +0.000 C 
ATOM     11  C   UNL     1       2.298   5.584  19.692  0.00  0.00    +0.000 A 
ATOM     12  N   UNL     1       1.291   5.253  20.480  0.00  0.00    +0.000 NA
ATOM     13  C   UNL     1       1.080   3.933  20.294  0.00  0.00    +0.000 A 
ATOM     14  C   UNL     1       1.958   3.441  19.368  0.00  0.00    +0.000 A 
ATOM     15  N   UNL     1       2.824   4.470  18.971  0.00  0.00    +0.000 N 
BRANCH  14  16
ATOM     16  N   UNL     1       1.857   2.127  18.831  0.00  0.00    +0.000 N 
ATOM     17  O   UNL     1       0.750   1.810  18.376  0.00  0.00    +0.000 OA
ATOM     18  O   UNL     1       2.866   1.422  18.794  0.00  0.00    +0.000 OA
ENDBRANCH  14  16
ENDBRANCH   1  15
BRANCH   1  19
ATOM     19  C   UNL     1       5.331   4.077  18.761  0.00  0.00    +0.000 C 
ATOM     20  C   UNL     1       6.046   5.237  19.461  0.00  0.00    +0.000 C 
BRANCH  19  21
ATOM     21  O   UNL     1       5.168   2.965  19.641  0.00  0.00    +0.000 OA
ATOM     22  H   UNL     1       4.227   2.722  19.662  0.00  0.00    +0.000 HD
ENDBRANCH  19  21
ENDBRANCH   1  19
TORSDOF 5
ENDMDL
MODEL 6
REMARK VINA RESULT:      -6.7      3.862      6.603
REMARK  Name = 
REMARK  7 active torsions:
REMARK  status: ('A' for Active; 'I' for Inactive)
REMARK    1  A    between atoms: C_1  and  C_2
REMARK    2  A    between atoms: C_5  and  N_6
REMARK    3  A    between atoms: N_9  and  C_10
REMARK    4  A    between atoms: C_10  and  C_19
REMARK    5  A    between atoms: C_11  and  C_12
REMARK    6  A    between atoms: C_19  and  C_20
REMARK    7  A    between atoms: C_19  and  O_21
REMARK                            x       y       z     vdW  Elec       q    Type
REMARK                         _______ _______ _______ _____ _____    ______ ____
ROOT
ATOM      1  C   UNL     1       3.615   6.325  17.877  0.00  0.00    +0.000 C 
ATOM      2  C   UNL     1       3.442   7.662  18.054  0.00  0.00    +0.000 C 
ENDROOT
BRANCH   2   3
ATOM      3  C   UNL     1       2.238   8.346  18.574  0.00  0.00    +0.000 A 
ATOM      4  C   UNL     1       1.441   9.118  17.718  0.00  0.00    +0.000 A 
ATOM      5  C   UNL     1       0.347   9.832  18.219  0.00  0.00    +0.000 A 
ATOM      6  C   UNL     1       0.030   9.744  19.569  0.00  0.00    +0.000 A 
ATOM      7  F   UNL     1      -1.005  10.446  20.050  0.00  0.00    +0.000 F 
ATOM      8  C   UNL     1       0.780   8.949  20.425  0.00  0.00    +0.000 A 
ATOM      9  C   UNL     1       1.884   8.249  19.928  0.00  0.00    +0.000 A 
ENDBRANCH   2   3
BRANCH   1  15
ATOM     10  C   UNL     1       4.806   6.822  14.911  0.00  0.00    +0.000 C 
ATOM     11  C   UNL     1       5.362   5.975  16.004  0.00  0.00    +0.000 A 
ATOM     12  N   UNL     1       6.421   5.224  15.760  0.00  0.00    +0.000 NA
ATOM     13  C   UNL     1       6.657   4.521  16.888  0.00  0.00    +0.000 A 
ATOM     14  C   UNL     1       5.741   4.850  17.849  0.00  0.00    +0.000 A 
ATOM     15  N   UNL     1       4.826   5.767  17.310  0.00  0.00    +0.000 N 
BRANCH  14  16
ATOM     16  N   UNL     1       5.846   4.411  19.198  0.00  0.00    +0.000 N 
ATOM     17  O   UNL     1       6.552   5.105  19.941  0.00  0.00    +0.000 OA
ATOM     18  O   UNL     1       5.197   3.427  19.554  0.00  0.00    +0.000 OA
ENDBRANCH  14  16
ENDBRANCH   1  15
BRANCH   1  19
ATOM     19  C   UNL     1       2.502   5.340  18.260  0.00  0.00    +0.000 C 
ATOM     20  C   UNL     1       2.366   4.120  17.345  0.00  0.00    +0.000 C 
BRANCH  19  21
ATOM     21  O   UNL     1       2.644   4.949  19.626  0.00  0.00    +0.000 OA
ATOM     22  H   UNL     1       2.031   5.476  20.165  0.00  0.00    +0.000 HD
ENDBRANCH  19  21
ENDBRANCH   1  19
TORSDOF 5
ENDMDL
MODEL 7
REMARK VINA RESULT:      -6.6      1.611      2.248
REMARK  Name = 
REMARK  7 active torsions:
REMARK  status: ('A' for Active; 'I' for Inactive)
REMARK    1  A    between atoms: C_1  and  C_2
REMARK    2  A    between atoms: C_5  and  N_6
REMARK    3  A    between atoms: N_9  and  C_10
REMARK    4  A    between atoms: C_10  and  C_19
REMARK    5  A    between atoms: C_11  and  C_12
REMARK    6  A    between atoms: C_19  and  C_20
REMARK    7  A    between atoms: C_19  and  O_21
REMARK                            x       y       z     vdW  Elec       q    Type
REMARK                         _______ _______ _______ _____ _____    ______ ____
ROOT
ATOM      1  C   UNL     1       3.938   4.456  18.157  0.00  0.00    +0.000 C 
ATOM      2  C   UNL     1       3.849   4.781  16.839  0.00  0.00    +0.000 C 
ENDROOT
BRANCH   2   3
ATOM      3  C   UNL     1       4.957   4.871  15.864  0.00  0.00    +0.000 A 
ATOM      4  C   UNL     1       5.089   3.904  14.857  0.00  0.00    +0.000 A 
ATOM      5  C   UNL     1       6.179   3.939  13.981  0.00  0.00    +0.000 A 
ATOM      6  C   UNL     1       7.116   4.958  14.089  0.00  0.00    +0.000 A 
ATOM      7  F   UNL     1       8.170   4.976  13.262  0.00  0.00    +0.000 F 
ATOM      8  C   UNL     1       6.980   5.950  15.052  0.00  0.00    +0.000 A 
ATOM      9  C   UNL     1       5.899   5.908  15.939  0.00  0.00    +0.000 A 
ENDBRANCH   2   3
BRANCH   1  15
ATOM     10  C   UNL     1       2.737   6.938  19.848  0.00  0.00    +0.000 C 
ATOM     11  C   UNL     1       2.245   5.532  19.788  0.00  0.00    +0.000 A 
ATOM     12  N   UNL     1       1.258   5.162  20.582  0.00  0.00    +0.000 NA
ATOM     13  C   UNL     1       1.072   3.842  20.369  0.00  0.00    +0.000 A 
ATOM     14  C   UNL     1       1.947   3.390  19.420  0.00  0.00    +0.000 A 
ATOM     15  N   UNL     1       2.786   4.447  19.035  0.00  0.00    +0.000 N 
BRANCH  14  16
ATOM     16  N   UNL     1       1.868   2.087  18.855  0.00  0.00    +0.000 N 
ATOM     17  O   UNL     1       0.781   1.782  18.346  0.00  0.00    +0.000 OA
ATOM     18  O   UNL     1       2.875   1.379  18.850  0.00  0.00    +0.000 OA
ENDBRANCH  14  16
ENDBRANCH   1  15
BRANCH   1  19
ATOM     19  C   UNL     1       5.295   4.101  18.779  0.00  0.00    +0.000 C 
ATOM     20  C   UNL     1       6.019   5.258  19.473  0.00  0.00    +0.000 C 
BRANCH  19  21
ATOM     21  O   UNL     1       5.154   2.980  19.652  0.00  0.00    +0.000 OA
ATOM     22  H   UNL     1       4.262   2.612  19.544  0.00  0.00    +0.000 HD
ENDBRANCH  19  21
ENDBRANCH   1  19
TORSDOF 5
ENDMDL
MODEL 8
REMARK VINA RESULT:      -6.6      3.611      6.441
REMARK  Name = 
REMARK  7 active torsions:
REMARK  status: ('A' for Active; 'I' for Inactive)
REMARK    1  A    between atoms: C_1  and  C_2
REMARK    2  A    between atoms: C_5  and  N_6
REMARK    3  A    between atoms: N_9  and  C_10
REMARK    4  A    between atoms: C_10  and  C_19
REMARK    5  A    between atoms: C_11  and  C_12
REMARK    6  A    between atoms: C_19  and  C_20
REMARK    7  A    between atoms: C_19  and  O_21
REMARK                            x       y       z     vdW  Elec       q    Type
REMARK                         _______ _______ _______ _____ _____    ______ ____
ROOT
ATOM      1  C   UNL     1       4.401   5.902  17.921  0.00  0.00    +0.000 C 
ATOM      2  C   UNL     1       4.076   7.219  17.819  0.00  0.00    +0.000 C 
ENDROOT
BRANCH   2   3
ATOM      3  C   UNL     1       2.862   7.882  18.342  0.00  0.00    +0.000 A 
ATOM      4  C   UNL     1       2.173   8.815  17.554  0.00  0.00    +0.000 A 
ATOM      5  C   UNL     1       1.072   9.504  18.072  0.00  0.00    +0.000 A 
ATOM      6  C   UNL     1       0.638   9.236  19.364  0.00  0.00    +0.000 A 
ATOM      7  F   UNL     1      -0.403   9.914  19.864  0.00  0.00    +0.000 F 
ATOM      8  C   UNL     1       1.280   8.284  20.146  0.00  0.00    +0.000 A 
ATOM      9  C   UNL     1       2.392   7.606  19.635  0.00  0.00    +0.000 A 
ENDBRANCH   2   3
BRANCH   1  15
ATOM     10  C   UNL     1       4.678   4.480  15.029  0.00  0.00    +0.000 C 
ATOM     11  C   UNL     1       5.737   4.718  16.051  0.00  0.00    +0.000 A 
ATOM     12  N   UNL     1       6.944   4.218  15.856  0.00  0.00    +0.000 NA
ATOM     13  C   UNL     1       7.664   4.522  16.956  0.00  0.00    +0.000 A 
ATOM     14  C   UNL     1       6.899   5.232  17.840  0.00  0.00    +0.000 A 
ATOM     15  N   UNL     1       5.600   5.349  17.323  0.00  0.00    +0.000 N 
BRANCH  14  16
ATOM     16  N   UNL     1       7.436   5.849  19.003  0.00  0.00    +0.000 N 
ATOM     17  O   UNL     1       7.158   5.307  20.082  0.00  0.00    +0.000 OA
ATOM     18  O   UNL     1       8.178   6.823  18.871  0.00  0.00    +0.000 OA
ENDBRANCH  14  16
ENDBRANCH   1  15
BRANCH   1  19
ATOM     19  C   UNL     1       3.480   4.931  18.671  0.00  0.00    +0.000 C 
ATOM     20  C   UNL     1       2.415   4.246  17.811  0.00  0.00    +0.000 C 
BRANCH  19  21
ATOM     21  O   UNL     1       4.259   3.974  19.389  0.00  0.00    +0.000 OA
ATOM     22  H   UNL     1       3.664   3.295  19.748  0.00  0.00    +0.000 HD
ENDBRANCH  19  21
ENDBRANCH   1  19
TORSDOF 5
ENDMDL
MODEL 9
REMARK VINA RESULT:      -6.6      1.728      2.213
REMARK  Name = 
REMARK  7 active torsions:
REMARK  status: ('A' for Active; 'I' for Inactive)
REMARK    1  A    between atoms: C_1  and  C_2
REMARK    2  A    between atoms: C_5  and  N_6
REMARK    3  A    between atoms: N_9  and  C_10
REMARK    4  A    between atoms: C_10  and  C_19
REMARK    5  A    between atoms: C_11  and  C_12
REMARK    6  A    between atoms: C_19  and  C_20
REMARK    7  A    between atoms: C_19  and  O_21
REMARK                            x       y       z     vdW  Elec       q    Type
REMARK                         _______ _______ _______ _____ _____    ______ ____
ROOT
ATOM      1  C   UNL     1       5.334   4.733  16.658  0.00  0.00    +0.000 C 
ATOM      2  C   UNL     1       5.897   3.845  15.796  0.00  0.00    +0.000 C 
ENDROOT
BRANCH   2   3
ATOM      3  C   UNL     1       6.341   4.104  14.410  0.00  0.00    +0.000 A 
ATOM      4  C   UNL     1       7.454   4.922  14.168  0.00  0.00    +0.000 A 
ATOM      5  C   UNL     1       7.831   5.235  12.858  0.00  0.00    +0.000 A 
ATOM      6  C   UNL     1       7.119   4.702  11.791  0.00  0.00    +0.000 A 
ATOM      7  F   UNL     1       7.470   5.022  10.538  0.00  0.00    +0.000 F 
ATOM      8  C   UNL     1       6.041   3.854  12.009  0.00  0.00    +0.000 A 
ATOM      9  C   UNL     1       5.652   3.553  13.318  0.00  0.00    +0.000 A 
ENDBRANCH   2   3
BRANCH   1  15
ATOM     10  C   UNL     1       6.774   5.396  19.478  0.00  0.00    +0.000 C 
ATOM     11  C   UNL     1       5.514   4.637  19.236  0.00  0.00    +0.000 A 
ATOM     12  N   UNL     1       4.913   4.045  20.252  0.00  0.00    +0.000 NA
ATOM     13  C   UNL     1       3.856   3.383  19.737  0.00  0.00    +0.000 A 
ATOM     14  C   UNL     1       3.791   3.577  18.384  0.00  0.00    +0.000 A 
ATOM     15  N   UNL     1       4.889   4.354  17.984  0.00  0.00    +0.000 N 
BRANCH  14  16
ATOM     16  N   UNL     1       2.684   3.157  17.597  0.00  0.00    +0.000 N 
ATOM     17  O   UNL     1       2.624   1.946  17.347  0.00  0.00    +0.000 OA
ATOM     18  O   UNL     1       1.839   3.991  17.269  0.00  0.00    +0.000 OA
ENDBRANCH  14  16
ENDBRANCH   1  15
BRANCH   1  19
ATOM     19  C   UNL     1       5.125   6.194  16.241  0.00  0.00    +0.000 C 
ATOM     20  C   UNL     1       3.961   6.911  16.931  0.00  0.00    +0.000 C 
BRANCH  19  21
ATOM     21  O   UNL     1       6.343   6.925  16.389  0.00  0.00    +0.000 OA
ATOM     22  H   UNL     1       6.560   7.342  15.538  0.00  0.00    +0.000 HD
ENDBRANCH  19  21
ENDBRANCH   1  19
TORSDOF 5
ENDMDL
