MODEL 1
REMARK VINA RESULT:      -8.0      0.000      0.000
REMARK  Name = 
REMARK  2 active torsions:
REMARK  status: ('A' for Active; 'I' for Inactive)
REMARK    1  A    between atoms: C_4  and  O_5
REMARK    2  A    between atoms: C_6  and  N_7
REMARK                            x       y       z     vdW  Elec       q    Type
REMARK                         _______ _______ _______ _____ _____    ______ ____
ROOT
ATOM      1  O   UNL     1       0.133   2.447  19.154  0.00  0.00    +0.000 OA
ATOM      2  C   UNL     1       1.220   2.971  19.375  0.00  0.00    +0.000 C 
ATOM      3  C   UNL     1       1.441   4.459  19.200  0.00  0.00    +0.000 C 
ATOM      4  C   UNL     1       2.514   4.967  20.145  0.00  0.00    +0.000 C 
ATOM      5  C   UNL     1       3.789   4.120  20.127  0.00  0.00    +0.000 C 
ATOM      6  C   UNL     1       3.417   2.674  20.427  0.00  0.00    +0.000 C 
ATOM      7  O   UNL     1       4.092   1.938  21.140  0.00  0.00    +0.000 OA
ATOM      8  N   UNL     1       2.281   2.214  19.805  0.00  0.00    +0.000 N 
ATOM      9  H   UNL     1       2.078   1.231  19.933  0.00  0.00    +0.000 HD
ENDROOT
BRANCH   5  10
ATOM     10  N   UNL     1       4.582   4.188  18.891  0.00  0.00    +0.000 N 
ATOM     11  C   UNL     1       4.191   3.734  17.660  0.00  0.00    +0.000 C 
ATOM     12  O   UNL     1       3.219   3.108  17.318  0.00  0.00    +0.000 OA
ATOM     13  C   UNL     1       5.216   4.121  16.711  0.00  0.00    +0.000 A 
ATOM     14  C   UNL     1       5.228   3.974  15.341  0.00  0.00    +0.000 A 
ATOM     15  C   UNL     1       6.349   4.455  14.670  0.00  0.00    +0.000 A 
ATOM     16  C   UNL     1       7.410   5.055  15.382  0.00  0.00    +0.000 A 
ATOM     17  C   UNL     1       7.360   5.200  16.776  0.00  0.00    +0.000 A 
ATOM     18  C   UNL     1       6.236   4.726  17.419  0.00  0.00    +0.000 A 
ATOM     19  C   UNL     1       5.823   4.770  18.825  0.00  0.00    +0.000 C 
ATOM     20  O   UNL     1       6.476   5.287  19.708  0.00  0.00    +0.000 OA
ENDBRANCH   5  10
BRANCH   4  21
ATOM     21  O   UNL     1       2.790   6.345  19.887  0.00  0.00    +0.000 OA
ATOM     22  H   UNL     1       2.145   6.898  20.360  0.00  0.00    +0.000 HD
ENDBRANCH   4  21
TORSDOF 2
ENDMDL
MODEL 2
REMARK VINA RESULT:      -7.9      2.022      5.613
REMARK  Name = 
REMARK  2 active torsions:
REMARK  status: ('A' for Active; 'I' for Inactive)
REMARK    1  A    between atoms: C_4  and  O_5
REMARK    2  A    between atoms: C_6  and  N_7
REMARK                            x       y       z     vdW  Elec       q    Type
REMARK                         _______ _______ _______ _____ _____    ______ ____
ROOT
ATOM      1  O   UNL     1       7.065   8.374  17.153  0.00  0.00    +0.000 OA
ATOM      2  C   UNL     1       6.741   7.191  17.155  0.00  0.00    +0.000 C 
ATOM      3  C   UNL     1       5.725   6.639  16.177  0.00  0.00    +0.000 C 
ATOM      4  C   UNL     1       5.995   5.177  15.874  0.00  0.00    +0.000 C 
ATOM      5  C   UNL     1       6.210   4.326  17.129  0.00  0.00    +0.000 C 
ATOM      6  C   UNL     1       7.333   4.946  17.950  0.00  0.00    +0.000 C 
ATOM      7  O   UNL     1       8.190   4.285  18.527  0.00  0.00    +0.000 OA
ATOM      8  N   UNL     1       7.308   6.316  18.049  0.00  0.00    +0.000 N 
ATOM      9  H   UNL     1       8.000   6.726  18.662  0.00  0.00    +0.000 HD
ENDROOT
BRANCH   5  10
ATOM     10  N   UNL     1       5.024   4.125  17.973  0.00  0.00    +0.000 N 
ATOM     11  C   UNL     1       4.707   4.839  19.097  0.00  0.00    +0.000 C 
ATOM     12  O   UNL     1       5.325   5.678  19.703  0.00  0.00    +0.000 OA
ATOM     13  C   UNL     1       3.397   4.399  19.533  0.00  0.00    +0.000 A 
ATOM     14  C   UNL     1       2.616   4.888  20.558  0.00  0.00    +0.000 A 
ATOM     15  C   UNL     1       1.379   4.277  20.749  0.00  0.00    +0.000 A 
ATOM     16  C   UNL     1       0.971   3.208  19.922  0.00  0.00    +0.000 A 
ATOM     17  C   UNL     1       1.786   2.743  18.880  0.00  0.00    +0.000 A 
ATOM     18  C   UNL     1       3.002   3.369  18.703  0.00  0.00    +0.000 A 
ATOM     19  C   UNL     1       4.052   3.196  17.695  0.00  0.00    +0.000 C 
ATOM     20  O   UNL     1       3.990   2.400  16.780  0.00  0.00    +0.000 OA
ENDBRANCH   5  10
BRANCH   4  21
ATOM     21  O   UNL     1       4.962   4.642  15.043  0.00  0.00    +0.000 OA
ATOM     22  H   UNL     1       4.277   4.237  15.601  0.00  0.00    +0.000 HD
ENDBRANCH   4  21
TORSDOF 2
ENDMDL
MODEL 3
REMARK VINA RESULT:      -7.9      2.206      5.448
REMARK  Name = 
REMARK  2 active torsions:
REMARK  status: ('A' for Active; 'I' for Inactive)
REMARK    1  A    between atoms: C_4  and  O_5
REMARK    2  A    between atoms: C_6  and  N_7
REMARK                            x       y       z     vdW  Elec       q    Type
REMARK                         _______ _______ _______ _____ _____    ______ ____
ROOT
ATOM      1  O   UNL     1       7.814   4.416  15.182  0.00  0.00    +0.000 OA
ATOM      2  C   UNL     1       7.015   4.929  15.958  0.00  0.00    +0.000 C 
ATOM      3  C   UNL     1       7.130   4.751  17.458  0.00  0.00    +0.000 C 
ATOM      4  C   UNL     1       6.562   5.949  18.196  0.00  0.00    +0.000 C 
ATOM      5  C   UNL     1       5.175   6.365  17.702  0.00  0.00    +0.000 C 
ATOM      6  C   UNL     1       5.247   6.614  16.201  0.00  0.00    +0.000 C 
ATOM      7  O   UNL     1       4.662   7.536  15.642  0.00  0.00    +0.000 OA
ATOM      8  N   UNL     1       5.983   5.701  15.484  0.00  0.00    +0.000 N 
ATOM      9  H   UNL     1       5.964   5.813  14.479  0.00  0.00    +0.000 HD
ENDROOT
BRANCH   5  10
ATOM     10  N   UNL     1       4.083   5.426  18.003  0.00  0.00    +0.000 N 
ATOM     11  C   UNL     1       3.894   4.202  17.421  0.00  0.00    +0.000 C 
ATOM     12  O   UNL     1       4.461   3.664  16.503  0.00  0.00    +0.000 OA
ATOM     13  C   UNL     1       2.786   3.565  18.105  0.00  0.00    +0.000 A 
ATOM     14  C   UNL     1       2.285   2.292  17.943  0.00  0.00    +0.000 A 
ATOM     15  C   UNL     1       1.210   1.935  18.753  0.00  0.00    +0.000 A 
ATOM     16  C   UNL     1       0.676   2.853  19.683  0.00  0.00    +0.000 A 
ATOM     17  C   UNL     1       1.218   4.137  19.831  0.00  0.00    +0.000 A 
ATOM     18  C   UNL     1       2.288   4.465  19.026  0.00  0.00    +0.000 A 
ATOM     19  C   UNL     1       3.129   5.664  18.960  0.00  0.00    +0.000 C 
ATOM     20  O   UNL     1       2.990   6.632  19.680  0.00  0.00    +0.000 OA
ENDBRANCH   5  10
BRANCH   4  21
ATOM     21  O   UNL     1       6.574   5.714  19.606  0.00  0.00    +0.000 OA
ATOM     22  H   UNL     1       6.511   4.759  19.775  0.00  0.00    +0.000 HD
ENDBRANCH   4  21
TORSDOF 2
ENDMDL
MODEL 4
REMARK VINA RESULT:      -7.9      2.154      5.444
REMARK  Name = 
REMARK  2 active torsions:
REMARK  status: ('A' for Active; 'I' for Inactive)
REMARK    1  A    between atoms: C_4  and  O_5
REMARK    2  A    between atoms: C_6  and  N_7
REMARK                            x       y       z     vdW  Elec       q    Type
REMARK                         _______ _______ _______ _____ _____    ______ ____
ROOT
ATOM      1  O   UNL     1       8.581   4.121  17.451  0.00  0.00    +0.000 OA
ATOM      2  C   UNL     1       7.451   4.547  17.230  0.00  0.00    +0.000 C 
ATOM      3  C   UNL     1       6.889   5.741  17.972  0.00  0.00    +0.000 C 
ATOM      4  C   UNL     1       5.885   6.493  17.117  0.00  0.00    +0.000 C 
ATOM      5  C   UNL     1       4.837   5.583  16.471  0.00  0.00    +0.000 C 
ATOM      6  C   UNL     1       5.555   4.503  15.674  0.00  0.00    +0.000 C 
ATOM      7  O   UNL     1       5.170   4.106  14.578  0.00  0.00    +0.000 OA
ATOM      8  N   UNL     1       6.657   3.951  16.282  0.00  0.00    +0.000 N 
ATOM      9  H   UNL     1       7.086   3.176  15.795  0.00  0.00    +0.000 HD
ENDROOT
BRANCH   5  10
ATOM     10  N   UNL     1       3.872   4.968  17.394  0.00  0.00    +0.000 N 
ATOM     11  C   UNL     1       3.820   3.644  17.737  0.00  0.00    +0.000 C 
ATOM     12  O   UNL     1       4.432   2.692  17.319  0.00  0.00    +0.000 OA
ATOM     13  C   UNL     1       2.809   3.503  18.766  0.00  0.00    +0.000 A 
ATOM     14  C   UNL     1       2.461   2.384  19.490  0.00  0.00    +0.000 A 
ATOM     15  C   UNL     1       1.452   2.540  20.437  0.00  0.00    +0.000 A 
ATOM     16  C   UNL     1       0.827   3.792  20.621  0.00  0.00    +0.000 A 
ATOM     17  C   UNL     1       1.214   4.914  19.875  0.00  0.00    +0.000 A 
ATOM     18  C   UNL     1       2.223   4.739  18.951  0.00  0.00    +0.000 A 
ATOM     19  C   UNL     1       2.913   5.683  18.066  0.00  0.00    +0.000 C 
ATOM     20  O   UNL     1       2.671   6.873  18.022  0.00  0.00    +0.000 OA
ENDBRANCH   5  10
BRANCH   4  21
ATOM     21  O   UNL     1       5.280   7.545  17.871  0.00  0.00    +0.000 OA
ATOM     22  H   UNL     1       5.507   7.441  18.811  0.00  0.00    +0.000 HD
ENDBRANCH   4  21
TORSDOF 2
ENDMDL
MODEL 5
REMARK VINA RESULT:      -7.7      1.948      5.547
REMARK  Name = 
REMARK  2 active torsions:
REMARK  status: ('A' for Active; 'I' for Inactive)
REMARK    1  A    between atoms: C_4  and  O_5
REMARK    2  A    between atoms: C_6  and  N_7
REMARK                            x       y       z     vdW  Elec       q    Type
REMARK                         _______ _______ _______ _____ _____    ______ ____
ROOT
ATOM      1  O   UNL     1       8.053   6.526  18.209  0.00  0.00    +0.000 OA
ATOM      2  C   UNL     1       6.958   6.108  17.846  0.00  0.00    +0.000 C 
ATOM      3  C   UNL     1       5.696   6.930  18.006  0.00  0.00    +0.000 C 
ATOM      4  C   UNL     1       4.683   6.592  16.928  0.00  0.00    +0.000 C 
ATOM      5  C   UNL     1       4.455   5.088  16.758  0.00  0.00    +0.000 C 
ATOM      6  C   UNL     1       5.798   4.419  16.496  0.00  0.00    +0.000 C 
ATOM      7  O   UNL     1       5.951   3.509  15.688  0.00  0.00    +0.000 OA
ATOM      8  N   UNL     1       6.845   4.870  17.263  0.00  0.00    +0.000 N 
ATOM      9  H   UNL     1       7.717   4.371  17.153  0.00  0.00    +0.000 HD
ENDROOT
BRANCH   5  10
ATOM     10  N   UNL     1       3.770   4.418  17.874  0.00  0.00    +0.000 N 
ATOM     11  C   UNL     1       4.376   3.737  18.896  0.00  0.00    +0.000 C 
ATOM     12  O   UNL     1       5.530   3.437  19.074  0.00  0.00    +0.000 OA
ATOM     13  C   UNL     1       3.340   3.357  19.835  0.00  0.00    +0.000 A 
ATOM     14  C   UNL     1       3.467   2.743  21.062  0.00  0.00    +0.000 A 
ATOM     15  C   UNL     1       2.290   2.506  21.768  0.00  0.00    +0.000 A 
ATOM     16  C   UNL     1       1.041   2.881  21.228  0.00  0.00    +0.000 A 
ATOM     17  C   UNL     1       0.949   3.516  19.981  0.00  0.00    +0.000 A 
ATOM     18  C   UNL     1       2.127   3.750  19.304  0.00  0.00    +0.000 A 
ATOM     19  C   UNL     1       2.408   4.436  18.040  0.00  0.00    +0.000 C 
ATOM     20  O   UNL     1       1.557   4.951  17.343  0.00  0.00    +0.000 OA
ENDBRANCH   5  10
BRANCH   4  21
ATOM     21  O   UNL     1       3.458   7.290  17.161  0.00  0.00    +0.000 OA
ATOM     22  H   UNL     1       3.545   8.207  16.852  0.00  0.00    +0.000 HD
ENDBRANCH   4  21
TORSDOF 2
ENDMDL
MODEL 6
REMARK VINA RESULT:      -7.5      2.161      3.498
REMARK  Name = 
REMARK  2 active torsions:
REMARK  status: ('A' for Active; 'I' for Inactive)
REMARK    1  A    between atoms: C_4  and  O_5
REMARK    2  A    between atoms: C_6  and  N_7
REMARK                            x       y       z     vdW  Elec       q    Type
REMARK                         _______ _______ _______ _____ _____    ______ ____
ROOT
ATOM      1  O   UNL     1       1.151   2.566  22.592  0.00  0.00    +0.000 OA
ATOM      2  C   UNL     1       1.624   2.564  21.460  0.00  0.00    +0.000 C 
ATOM      3  C   UNL     1       3.119   2.561  21.218  0.00  0.00    +0.000 C 
ATOM      4  C   UNL     1       3.461   1.868  19.912  0.00  0.00    +0.000 C 
ATOM      5  C   UNL     1       2.618   2.351  18.730  0.00  0.00    +0.000 C 
ATOM      6  C   UNL     1       1.146   2.188  19.082  0.00  0.00    +0.000 C 
ATOM      7  O   UNL     1       0.300   1.800  18.283  0.00  0.00    +0.000 OA
ATOM      8  N   UNL     1       0.800   2.550  20.362  0.00  0.00    +0.000 N 
ATOM      9  H   UNL     1      -0.189   2.524  20.574  0.00  0.00    +0.000 HD
ENDROOT
BRANCH   5  10
ATOM     10  N   UNL     1       2.878   3.728  18.283  0.00  0.00    +0.000 N 
ATOM     11  C   UNL     1       2.172   4.840  18.656  0.00  0.00    +0.000 C 
ATOM     12  O   UNL     1       1.165   4.957  19.308  0.00  0.00    +0.000 OA
ATOM     13  C   UNL     1       2.847   5.990  18.090  0.00  0.00    +0.000 A 
ATOM     14  C   UNL     1       2.572   7.329  18.265  0.00  0.00    +0.000 A 
ATOM     15  C   UNL     1       3.402   8.230  17.603  0.00  0.00    +0.000 A 
ATOM     16  C   UNL     1       4.462   7.769  16.794  0.00  0.00    +0.000 A 
ATOM     17  C   UNL     1       4.722   6.399  16.647  0.00  0.00    +0.000 A 
ATOM     18  C   UNL     1       3.894   5.525  17.319  0.00  0.00    +0.000 A 
ATOM     19  C   UNL     1       3.913   4.065  17.448  0.00  0.00    +0.000 C 
ATOM     20  O   UNL     1       4.748   3.348  16.932  0.00  0.00    +0.000 OA
ENDBRANCH   5  10
BRANCH   4  21
ATOM     21  O   UNL     1       4.861   1.976  19.644  0.00  0.00    +0.000 OA
ATOM     22  H   UNL     1       5.046   2.842  19.243  0.00  0.00    +0.000 HD
ENDBRANCH   4  21
TORSDOF 2
ENDMDL
MODEL 7
REMARK VINA RESULT:      -7.5      2.826      5.469
REMARK  Name = 
REMARK  2 active torsions:
REMARK  status: ('A' for Active; 'I' for Inactive)
REMARK    1  A    between atoms: C_4  and  O_5
REMARK    2  A    between atoms: C_6  and  N_7
REMARK                            x       y       z     vdW  Elec       q    Type
REMARK                         _______ _______ _______ _____ _____    ______ ____
ROOT
ATOM      1  O   UNL     1       7.588   5.440  14.392  0.00  0.00    +0.000 OA
ATOM      2  C   UNL     1       6.922   5.184  15.390  0.00  0.00    +0.000 C 
ATOM      3  C   UNL     1       5.555   4.538  15.294  0.00  0.00    +0.000 C 
ATOM      4  C   UNL     1       5.256   3.705  16.527  0.00  0.00    +0.000 C 
ATOM      5  C   UNL     1       5.530   4.443  17.839  0.00  0.00    +0.000 C 
ATOM      6  C   UNL     1       6.971   4.935  17.831  0.00  0.00    +0.000 C 
ATOM      7  O   UNL     1       7.700   4.904  18.817  0.00  0.00    +0.000 OA
ATOM      8  N   UNL     1       7.407   5.469  16.642  0.00  0.00    +0.000 N 
ATOM      9  H   UNL     1       8.334   5.873  16.656  0.00  0.00    +0.000 HD
ENDROOT
BRANCH   5  10
ATOM     10  N   UNL     1       4.621   5.559  18.144  0.00  0.00    +0.000 N 
ATOM     11  C   UNL     1       4.397   6.652  17.351  0.00  0.00    +0.000 C 
ATOM     12  O   UNL     1       4.927   7.012  16.330  0.00  0.00    +0.000 OA
ATOM     13  C   UNL     1       3.338   7.424  17.969  0.00  0.00    +0.000 A 
ATOM     14  C   UNL     1       2.702   8.552  17.499  0.00  0.00    +0.000 A 
ATOM     15  C   UNL     1       1.699   9.086  18.304  0.00  0.00    +0.000 A 
ATOM     16  C   UNL     1       1.373   8.485  19.540  0.00  0.00    +0.000 A 
ATOM     17  C   UNL     1       2.033   7.330  19.982  0.00  0.00    +0.000 A 
ATOM     18  C   UNL     1       3.016   6.813  19.164  0.00  0.00    +0.000 A 
ATOM     19  C   UNL     1       3.843   5.608  19.273  0.00  0.00    +0.000 C 
ATOM     20  O   UNL     1       3.769   4.813  20.189  0.00  0.00    +0.000 OA
ENDBRANCH   5  10
BRANCH   4  21
ATOM     21  O   UNL     1       3.921   3.199  16.472  0.00  0.00    +0.000 OA
ATOM     22  H   UNL     1       3.630   3.155  15.546  0.00  0.00    +0.000 HD
ENDBRANCH   4  21
TORSDOF 2
ENDMDL
MODEL 8
REMARK VINA RESULT:      -7.5      2.106      5.556
REMARK  Name = 
REMARK  2 active torsions:
REMARK  status: ('A' for Active; 'I' for Inactive)
REMARK    1  A    between atoms: C_4  and  O_5
REMARK    2  A    between atoms: C_6  and  N_7
REMARK                            x       y       z     vdW  Elec       q    Type
REMARK                         _______ _______ _______ _____ _____    ______ ____
ROOT
ATOM      1  O   UNL     1       7.152   8.093  16.902  0.00  0.00    +0.000 OA
ATOM      2  C   UNL     1       6.925   6.985  17.377  0.00  0.00    +0.000 C 
ATOM      3  C   UNL     1       6.278   5.884  16.562  0.00  0.00    +0.000 C 
ATOM      4  C   UNL     1       6.725   4.515  17.040  0.00  0.00    +0.000 C 
ATOM      5  C   UNL     1       6.625   4.338  18.557  0.00  0.00    +0.000 C 
ATOM      6  C   UNL     1       7.415   5.453  19.230  0.00  0.00    +0.000 C 
ATOM      7  O   UNL     1       8.110   5.280  20.226  0.00  0.00    +0.000 OA
ATOM      8  N   UNL     1       7.267   6.702  18.676  0.00  0.00    +0.000 N 
ATOM      9  H   UNL     1       7.721   7.458  19.170  0.00  0.00    +0.000 HD
ENDROOT
BRANCH   5  10
ATOM     10  N   UNL     1       5.261   4.289  19.104  0.00  0.00    +0.000 N 
ATOM     11  C   UNL     1       4.353   5.314  19.091  0.00  0.00    +0.000 C 
ATOM     12  O   UNL     1       4.464   6.467  18.757  0.00  0.00    +0.000 OA
ATOM     13  C   UNL     1       3.105   4.791  19.609  0.00  0.00    +0.000 A 
ATOM     14  C   UNL     1       1.878   5.412  19.702  0.00  0.00    +0.000 A 
ATOM     15  C   UNL     1       0.834   4.659  20.234  0.00  0.00    +0.000 A 
ATOM     16  C   UNL     1       1.050   3.329  20.656  0.00  0.00    +0.000 A 
ATOM     17  C   UNL     1       2.309   2.724  20.536  0.00  0.00    +0.000 A 
ATOM     18  C   UNL     1       3.325   3.484  19.997  0.00  0.00    +0.000 A 
ATOM     19  C   UNL     1       4.717   3.162  19.667  0.00  0.00    +0.000 C 
ATOM     20  O   UNL     1       5.219   2.069  19.835  0.00  0.00    +0.000 OA
ENDBRANCH   5  10
BRANCH   4  21
ATOM     21  O   UNL     1       6.018   3.489  16.339  0.00  0.00    +0.000 OA
ATOM     22  H   UNL     1       6.051   3.669  15.384  0.00  0.00    +0.000 HD
ENDBRANCH   4  21
TORSDOF 2
ENDMDL
MODEL 9
REMARK VINA RESULT:      -7.5      1.771      2.743
REMARK  Name = 
REMARK  2 active torsions:
REMARK  status: ('A' for Active; 'I' for Inactive)
REMARK    1  A    between atoms: C_4  and  O_5
REMARK    2  A    between atoms: C_6  and  N_7
REMARK                            x       y       z     vdW  Elec       q    Type
REMARK                         _______ _______ _______ _____ _____    ______ ____
ROOT
ATOM      1  O   UNL     1       2.566   2.267  22.343  0.00  0.00    +0.000 OA
ATOM      2  C   UNL     1       2.325   2.930  21.340  0.00  0.00    +0.000 C 
ATOM      3  C   UNL     1       1.891   2.285  20.040  0.00  0.00    +0.000 C 
ATOM      4  C   UNL     1       1.009   3.219  19.233  0.00  0.00    +0.000 C 
ATOM      5  C   UNL     1       1.588   4.629  19.091  0.00  0.00    +0.000 C 
ATOM      6  C   UNL     1       1.867   5.183  20.481  0.00  0.00    +0.000 C 
ATOM      7  O   UNL     1       1.650   6.348  20.799  0.00  0.00    +0.000 OA
ATOM      8  N   UNL     1       2.431   4.299  21.369  0.00  0.00    +0.000 N 
ATOM      9  H   UNL     1       2.697   4.685  22.265  0.00  0.00    +0.000 HD
ENDROOT
BRANCH   5  10
ATOM     10  N   UNL     1       2.792   4.742  18.254  0.00  0.00    +0.000 N 
ATOM     11  C   UNL     1       3.563   3.702  17.811  0.00  0.00    +0.000 C 
ATOM     12  O   UNL     1       3.524   2.523  18.064  0.00  0.00    +0.000 OA
ATOM     13  C   UNL     1       4.560   4.253  16.916  0.00  0.00    +0.000 A 
ATOM     14  C   UNL     1       5.498   3.593  16.152  0.00  0.00    +0.000 A 
ATOM     15  C   UNL     1       6.330   4.382  15.363  0.00  0.00    +0.000 A 
ATOM     16  C   UNL     1       6.204   5.788  15.369  0.00  0.00    +0.000 A 
ATOM     17  C   UNL     1       5.230   6.427  16.150  0.00  0.00    +0.000 A 
ATOM     18  C   UNL     1       4.410   5.625  16.915  0.00  0.00    +0.000 A 
ATOM     19  C   UNL     1       3.266   5.938  17.777  0.00  0.00    +0.000 C 
ATOM     20  O   UNL     1       2.835   7.060  17.952  0.00  0.00    +0.000 OA
ENDBRANCH   5  10
BRANCH   4  21
ATOM     21  O   UNL     1       0.705   2.641  17.962  0.00  0.00    +0.000 OA
ATOM     22  H   UNL     1       0.177   3.269  17.440  0.00  0.00    +0.000 HD
ENDBRANCH   4  21
TORSDOF 2
ENDMDL
