MODEL 1
REMARK VINA RESULT:      -7.8      0.000      0.000
REMARK  Name = 
REMARK  8 active torsions:
REMARK  status: ('A' for Active; 'I' for Inactive)
REMARK    1  A    between atoms: C_2  and  C_29
REMARK    2  A    between atoms: N_3  and  C_4
REMARK    3  A    between atoms: C_4  and  C_5
REMARK    4  A    between atoms: N_7  and  C_8
REMARK    5  A    between atoms: N_7  and  C_14
REMARK    6  A    between atoms: C_14  and  C_15
REMARK    7  A    between atoms: C_14  and  C_23
REMARK    8  A    between atoms: N_17  and  C_18
REMARK                            x       y       z     vdW  Elec       q    Type
REMARK                         _______ _______ _______ _____ _____    ______ ____
ROOT
ATOM      1  C   UNL     1       2.851   6.806  17.751  0.00  0.00    +0.000 C 
ATOM      2  O   UNL     1       1.684   6.477  17.512  0.00  0.00    +0.000 OA
ATOM      3  N   UNL     1       3.894   5.875  17.726  0.00  0.00    +0.000 N 
ENDROOT
BRANCH   3   4
ATOM      4  C   UNL     1       5.216   6.268  18.030  0.00  0.00    +0.000 A 
ATOM      5  C   UNL     1       5.889   7.122  17.155  0.00  0.00    +0.000 A 
ATOM      6  C   UNL     1       7.260   7.326  17.316  0.00  0.00    +0.000 A 
ATOM      7  C   UNL     1       7.950   6.687  18.347  0.00  0.00    +0.000 A 
ATOM      8  C   UNL     1       7.267   5.867  19.246  0.00  0.00    +0.000 A 
ATOM      9  C   UNL     1       5.897   5.665  19.096  0.00  0.00    +0.000 A 
ENDBRANCH   3   4
BRANCH   1  10
ATOM     10  C   UNL     1       3.145   8.243  18.230  0.00  0.00    +0.000 C 
BRANCH  10  13
ATOM     11  O   UNL     1       1.279   8.976  20.088  0.00  0.00    +0.000 OA
ATOM     12  C   UNL     1       1.206   9.530  18.992  0.00  0.00    +0.000 C 
ATOM     13  N   UNL     1       2.089   9.205  17.978  0.00  0.00    +0.000 N 
ATOM     14  H   UNL     1       2.068   9.740  17.121  0.00  0.00    +0.000 HD
BRANCH  12  15
ATOM     15  C   UNL     1       0.205  10.549  18.705  0.00  0.00    +0.000 A 
ATOM     16  C   UNL     1      -0.989  10.350  18.034  0.00  0.00    +0.000 A 
ATOM     17  C   UNL     1      -1.757  11.543  17.897  0.00  0.00    +0.000 A 
ATOM     18  C   UNL     1      -1.123  12.620  18.467  0.00  0.00    +0.000 A 
ATOM     19  S   UNL     1       0.382  12.190  19.164  0.00  0.00    +0.000 S 
ENDBRANCH  12  15
ENDBRANCH  10  13
ENDBRANCH   1  10
BRANCH   3  20
ATOM     20  C   UNL     1       3.641   4.500  17.212  0.00  0.00    +0.000 C 
BRANCH  20  21
ATOM     21  C   UNL     1       3.020   3.516  18.223  0.00  0.00    +0.000 A 
ATOM     22  C   UNL     1       3.528   3.375  19.522  0.00  0.00    +0.000 A 
ATOM     23  C   UNL     1       2.829   2.618  20.456  0.00  0.00    +0.000 A 
ATOM     24  N   UNL     1       1.673   1.979  20.191  0.00  0.00    +0.000 NA
ATOM     25  C   UNL     1       1.181   2.124  18.947  0.00  0.00    +0.000 A 
ATOM     26  C   UNL     1       1.800   2.871  17.953  0.00  0.00    +0.000 A 
ENDBRANCH  20  21
BRANCH  20  27
ATOM     27  C   UNL     1       4.845   3.929  16.397  0.00  0.00    +0.000 C 
ATOM     28  O   UNL     1       5.519   2.987  16.815  0.00  0.00    +0.000 OA
ATOM     29  N   UNL     1       5.064   4.492  15.152  0.00  0.00    +0.000 N 
ATOM     30  H   UNL     1       4.320   5.058  14.761  0.00  0.00    +0.000 HD
BRANCH  29  31
ATOM     31  C   UNL     1       6.058   3.962  14.235  0.00  0.00    +0.000 C 
ATOM     32  C   UNL     1       5.446   3.528  12.909  0.00  0.00    +0.000 C 
ATOM     33  C   UNL     1       6.616   3.521  11.935  0.00  0.00    +0.000 C 
ATOM     34  C   UNL     1       7.622   4.535  12.475  0.00  0.00    +0.000 C 
ATOM     35  C   UNL     1       7.075   5.017  13.817  0.00  0.00    +0.000 C 
ENDBRANCH  29  31
ENDBRANCH  20  27
ENDBRANCH   3  20
TORSDOF 8
ENDMDL
MODEL 2
REMARK VINA RESULT:      -7.5      1.305      1.603
REMARK  Name = 
REMARK  8 active torsions:
REMARK  status: ('A' for Active; 'I' for Inactive)
REMARK    1  A    between atoms: C_2  and  C_29
REMARK    2  A    between atoms: N_3  and  C_4
REMARK    3  A    between atoms: C_4  and  C_5
REMARK    4  A    between atoms: N_7  and  C_8
REMARK    5  A    between atoms: N_7  and  C_14
REMARK    6  A    between atoms: C_14  and  C_15
REMARK    7  A    between atoms: C_14  and  C_23
REMARK    8  A    between atoms: N_17  and  C_18
REMARK                            x       y       z     vdW  Elec       q    Type
REMARK                         _______ _______ _______ _____ _____    ______ ____
ROOT
ATOM      1  C   UNL     1       2.714   6.663  17.766  0.00  0.00    +0.000 C 
ATOM      2  O   UNL     1       1.560   6.278  17.553  0.00  0.00    +0.000 OA
ATOM      3  N   UNL     1       3.799   5.782  17.728  0.00  0.00    +0.000 N 
ENDROOT
BRANCH   3   4
ATOM      4  C   UNL     1       5.106   6.239  18.003  0.00  0.00    +0.000 A 
ATOM      5  C   UNL     1       5.712   7.135  17.121  0.00  0.00    +0.000 A 
ATOM      6  C   UNL     1       7.075   7.408  17.250  0.00  0.00    +0.000 A 
ATOM      7  C   UNL     1       7.823   6.793  18.255  0.00  0.00    +0.000 A 
ATOM      8  C   UNL     1       7.207   5.931  19.162  0.00  0.00    +0.000 A 
ATOM      9  C   UNL     1       5.845   5.660  19.044  0.00  0.00    +0.000 A 
ENDBRANCH   3   4
BRANCH   1  10
ATOM     10  C   UNL     1       2.950   8.117  18.226  0.00  0.00    +0.000 C 
BRANCH  10  13
ATOM     11  O   UNL     1       0.905   9.928  18.329  0.00  0.00    +0.000 OA
ATOM     12  C   UNL     1       1.224   9.404  19.395  0.00  0.00    +0.000 C 
ATOM     13  N   UNL     1       2.266   8.495  19.449  0.00  0.00    +0.000 N 
ATOM     14  H   UNL     1       2.447   8.008  20.315  0.00  0.00    +0.000 HD
BRANCH  12  15
ATOM     15  C   UNL     1       0.531   9.698  20.642  0.00  0.00    +0.000 A 
ATOM     16  C   UNL     1       0.349   8.821  21.698  0.00  0.00    +0.000 A 
ATOM     17  C   UNL     1      -0.380   9.395  22.779  0.00  0.00    +0.000 A 
ATOM     18  C   UNL     1      -0.734  10.695  22.516  0.00  0.00    +0.000 A 
ATOM     19  S   UNL     1      -0.188  11.216  20.978  0.00  0.00    +0.000 S 
ENDBRANCH  12  15
ENDBRANCH  10  13
ENDBRANCH   1  10
BRANCH   3  20
ATOM     20  C   UNL     1       3.600   4.391  17.232  0.00  0.00    +0.000 C 
BRANCH  20  21
ATOM     21  C   UNL     1       3.022   3.395  18.256  0.00  0.00    +0.000 A 
ATOM     22  C   UNL     1       3.577   3.247  19.535  0.00  0.00    +0.000 A 
ATOM     23  C   UNL     1       2.917   2.477  20.486  0.00  0.00    +0.000 A 
ATOM     24  N   UNL     1       1.756   1.834  20.258  0.00  0.00    +0.000 NA
ATOM     25  C   UNL     1       1.218   1.986  19.034  0.00  0.00    +0.000 A 
ATOM     26  C   UNL     1       1.797   2.745  18.024  0.00  0.00    +0.000 A 
ENDBRANCH  20  21
BRANCH  20  27
ATOM     27  C   UNL     1       4.824   3.860  16.420  0.00  0.00    +0.000 C 
ATOM     28  O   UNL     1       5.513   2.924  16.828  0.00  0.00    +0.000 OA
ATOM     29  N   UNL     1       5.045   4.449  15.187  0.00  0.00    +0.000 N 
ATOM     30  H   UNL     1       4.294   5.007  14.799  0.00  0.00    +0.000 HD
BRANCH  29  31
ATOM     31  C   UNL     1       6.059   3.957  14.273  0.00  0.00    +0.000 C 
ATOM     32  C   UNL     1       5.474   3.562  12.922  0.00  0.00    +0.000 C 
ATOM     33  C   UNL     1       6.663   3.595  11.970  0.00  0.00    +0.000 C 
ATOM     34  C   UNL     1       7.651   4.597  12.560  0.00  0.00    +0.000 C 
ATOM     35  C   UNL     1       7.076   5.032  13.907  0.00  0.00    +0.000 C 
ENDBRANCH  29  31
ENDBRANCH  20  27
ENDBRANCH   3  20
TORSDOF 8
ENDMDL
MODEL 3
REMARK VINA RESULT:      -7.3      0.892      1.014
REMARK  Name = 
REMARK  8 active torsions:
REMARK  status: ('A' for Active; 'I' for Inactive)
REMARK    1  A    between atoms: C_2  and  C_29
REMARK    2  A    between atoms: N_3  and  C_4
REMARK    3  A    between atoms: C_4  and  C_5
REMARK    4  A    between atoms: N_7  and  C_8
REMARK    5  A    between atoms: N_7  and  C_14
REMARK    6  A    between atoms: C_14  and  C_15
REMARK    7  A    between atoms: C_14  and  C_23
REMARK    8  A    between atoms: N_17  and  C_18
REMARK                            x       y       z     vdW  Elec       q    Type
REMARK                         _______ _______ _______ _____ _____    ______ ____
ROOT
ATOM      1  C   UNL     1       2.761   6.740  17.793  0.00  0.00    +0.000 C 
ATOM      2  O   UNL     1       1.595   6.395  17.575  0.00  0.00    +0.000 OA
ATOM      3  N   UNL     1       3.815   5.821  17.764  0.00  0.00    +0.000 N 
ENDROOT
BRANCH   3   4
ATOM      4  C   UNL     1       5.136   6.233  18.044  0.00  0.00    +0.000 A 
ATOM      5  C   UNL     1       5.775   7.109  17.165  0.00  0.00    +0.000 A 
ATOM      6  C   UNL     1       7.146   7.335  17.298  0.00  0.00    +0.000 A 
ATOM      7  C   UNL     1       7.869   6.695  18.305  0.00  0.00    +0.000 A 
ATOM      8  C   UNL     1       7.221   5.853  19.208  0.00  0.00    +0.000 A 
ATOM      9  C   UNL     1       5.851   5.629  19.086  0.00  0.00    +0.000 A 
ENDBRANCH   3   4
BRANCH   1  10
ATOM     10  C   UNL     1       3.046   8.187  18.247  0.00  0.00    +0.000 C 
BRANCH  10  13
ATOM     11  O   UNL     1       2.540  10.785  17.564  0.00  0.00    +0.000 OA
ATOM     12  C   UNL     1       1.704  10.236  18.279  0.00  0.00    +0.000 C 
ATOM     13  N   UNL     1       1.886   8.931  18.701  0.00  0.00    +0.000 N 
ATOM     14  H   UNL     1       1.142   8.471  19.208  0.00  0.00    +0.000 HD
BRANCH  12  15
ATOM     15  C   UNL     1       0.489  10.913  18.712  0.00  0.00    +0.000 A 
ATOM     16  C   UNL     1       0.429  12.072  19.468  0.00  0.00    +0.000 A 
ATOM     17  C   UNL     1      -0.906  12.489  19.742  0.00  0.00    +0.000 A 
ATOM     18  C   UNL     1      -1.827  11.634  19.187  0.00  0.00    +0.000 A 
ATOM     19  S   UNL     1      -1.083  10.343  18.340  0.00  0.00    +0.000 S 
ENDBRANCH  12  15
ENDBRANCH  10  13
ENDBRANCH   1  10
BRANCH   3  20
ATOM     20  C   UNL     1       3.569   4.436  17.273  0.00  0.00    +0.000 C 
BRANCH  20  21
ATOM     21  C   UNL     1       2.966   3.462  18.304  0.00  0.00    +0.000 A 
ATOM     22  C   UNL     1       3.435   3.401  19.624  0.00  0.00    +0.000 A 
ATOM     23  C   UNL     1       2.745   2.645  20.564  0.00  0.00    +0.000 A 
ATOM     24  N   UNL     1       1.635   1.935  20.289  0.00  0.00    +0.000 NA
ATOM     25  C   UNL     1       1.179   2.003  19.025  0.00  0.00    +0.000 A 
ATOM     26  C   UNL     1       1.792   2.741  18.021  0.00  0.00    +0.000 A 
ENDBRANCH  20  21
BRANCH  20  27
ATOM     27  C   UNL     1       4.772   3.864  16.456  0.00  0.00    +0.000 C 
ATOM     28  O   UNL     1       5.398   2.874  16.835  0.00  0.00    +0.000 OA
ATOM     29  N   UNL     1       5.045   4.487  15.250  0.00  0.00    +0.000 N 
ATOM     30  H   UNL     1       4.334   5.103  14.875  0.00  0.00    +0.000 HD
BRANCH  29  31
ATOM     31  C   UNL     1       6.041   3.970  14.329  0.00  0.00    +0.000 C 
ATOM     32  C   UNL     1       5.432   3.549  12.998  0.00  0.00    +0.000 C 
ATOM     33  C   UNL     1       6.604   3.556  12.025  0.00  0.00    +0.000 C 
ATOM     34  C   UNL     1       7.607   4.567  12.577  0.00  0.00    +0.000 C 
ATOM     35  C   UNL     1       7.057   5.032  13.924  0.00  0.00    +0.000 C 
ENDBRANCH  29  31
ENDBRANCH  20  27
ENDBRANCH   3  20
TORSDOF 8
ENDMDL
MODEL 4
REMARK VINA RESULT:      -7.2      4.148     10.320
REMARK  Name = 
REMARK  8 active torsions:
REMARK  status: ('A' for Active; 'I' for Inactive)
REMARK    1  A    between atoms: C_2  and  C_29
REMARK    2  A    between atoms: N_3  and  C_4
REMARK    3  A    between atoms: C_4  and  C_5
REMARK    4  A    between atoms: N_7  and  C_8
REMARK    5  A    between atoms: N_7  and  C_14
REMARK    6  A    between atoms: C_14  and  C_15
REMARK    7  A    between atoms: C_14  and  C_23
REMARK    8  A    between atoms: N_17  and  C_18
REMARK                            x       y       z     vdW  Elec       q    Type
REMARK                         _______ _______ _______ _____ _____    ______ ____
ROOT
ATOM      1  C   UNL     1       0.165   9.494  20.942  0.00  0.00    +0.000 C 
ATOM      2  O   UNL     1      -0.762   8.741  21.256  0.00  0.00    +0.000 OA
ATOM      3  N   UNL     1      -0.068  10.708  20.288  0.00  0.00    +0.000 N 
ENDROOT
BRANCH   3   4
ATOM      4  C   UNL     1       1.009  11.541  19.913  0.00  0.00    +0.000 A 
ATOM      5  C   UNL     1       1.462  12.511  20.809  0.00  0.00    +0.000 A 
ATOM      6  C   UNL     1       2.356  13.487  20.367  0.00  0.00    +0.000 A 
ATOM      7  C   UNL     1       2.796  13.490  19.043  0.00  0.00    +0.000 A 
ATOM      8  C   UNL     1       2.374  12.496  18.160  0.00  0.00    +0.000 A 
ATOM      9  C   UNL     1       1.488  11.513  18.596  0.00  0.00    +0.000 A 
ENDBRANCH   3   4
BRANCH   1  10
ATOM     10  C   UNL     1       1.621   9.024  21.142  0.00  0.00    +0.000 C 
BRANCH  10  13
ATOM     11  O   UNL     1       2.388   7.991  18.730  0.00  0.00    +0.000 OA
ATOM     12  C   UNL     1       2.261   7.188  19.652  0.00  0.00    +0.000 C 
ATOM     13  N   UNL     1       1.850   7.610  20.904  0.00  0.00    +0.000 N 
ATOM     14  H   UNL     1       1.845   6.949  21.668  0.00  0.00    +0.000 HD
BRANCH  12  15
ATOM     15  C   UNL     1       2.539   5.767  19.487  0.00  0.00    +0.000 A 
ATOM     16  C   UNL     1       3.053   5.166  18.350  0.00  0.00    +0.000 A 
ATOM     17  C   UNL     1       3.206   3.756  18.487  0.00  0.00    +0.000 A 
ATOM     18  C   UNL     1       2.803   3.322  19.726  0.00  0.00    +0.000 A 
ATOM     19  S   UNL     1       2.249   4.607  20.714  0.00  0.00    +0.000 S 
ENDBRANCH  12  15
ENDBRANCH  10  13
ENDBRANCH   1  10
BRANCH   3  20
ATOM     20  C   UNL     1      -1.464  11.206  20.137  0.00  0.00    +0.000 C 
BRANCH  20  21
ATOM     21  C   UNL     1      -2.067  11.078  18.724  0.00  0.00    +0.000 A 
ATOM     22  C   UNL     1      -1.536  10.196  17.773  0.00  0.00    +0.000 A 
ATOM     23  C   UNL     1      -2.218   9.977  16.581  0.00  0.00    +0.000 A 
ATOM     24  N   UNL     1      -3.378  10.579  16.258  0.00  0.00    +0.000 NA
ATOM     25  C   UNL     1      -3.892  11.418  17.176  0.00  0.00    +0.000 A 
ATOM     26  C   UNL     1      -3.291  11.689  18.399  0.00  0.00    +0.000 A 
ENDBRANCH  20  21
BRANCH  20  27
ATOM     27  C   UNL     1      -1.688  12.593  20.821  0.00  0.00    +0.000 C 
ATOM     28  O   UNL     1      -1.696  13.640  20.173  0.00  0.00    +0.000 OA
ATOM     29  N   UNL     1      -1.948  12.571  22.181  0.00  0.00    +0.000 N 
ATOM     30  H   UNL     1      -2.197  11.678  22.591  0.00  0.00    +0.000 HD
BRANCH  29  31
ATOM     31  C   UNL     1      -2.312  13.771  22.911  0.00  0.00    +0.000 C 
ATOM     32  C   UNL     1      -3.354  13.496  23.988  0.00  0.00    +0.000 C 
ATOM     33  C   UNL     1      -3.217  14.665  24.955  0.00  0.00    +0.000 C 
ATOM     34  C   UNL     1      -1.776  15.152  24.830  0.00  0.00    +0.000 C 
ATOM     35  C   UNL     1      -1.141  14.341  23.703  0.00  0.00    +0.000 C 
ENDBRANCH  29  31
ENDBRANCH  20  27
ENDBRANCH   3  20
TORSDOF 8
ENDMDL
MODEL 5
REMARK VINA RESULT:      -7.1      1.680      4.044
REMARK  Name = 
REMARK  8 active torsions:
REMARK  status: ('A' for Active; 'I' for Inactive)
REMARK    1  A    between atoms: C_2  and  C_29
REMARK    2  A    between atoms: N_3  and  C_4
REMARK    3  A    between atoms: C_4  and  C_5
REMARK    4  A    between atoms: N_7  and  C_8
REMARK    5  A    between atoms: N_7  and  C_14
REMARK    6  A    between atoms: C_14  and  C_15
REMARK    7  A    between atoms: C_14  and  C_23
REMARK    8  A    between atoms: N_17  and  C_18
REMARK                            x       y       z     vdW  Elec       q    Type
REMARK                         _______ _______ _______ _____ _____    ______ ____
ROOT
ATOM      1  C   UNL     1       3.232   7.219  17.642  0.00  0.00    +0.000 C 
ATOM      2  O   UNL     1       3.881   8.057  17.009  0.00  0.00    +0.000 OA
ATOM      3  N   UNL     1       3.646   5.886  17.731  0.00  0.00    +0.000 N 
ENDROOT
BRANCH   3   4
ATOM      4  C   UNL     1       2.872   4.938  18.436  0.00  0.00    +0.000 A 
ATOM      5  C   UNL     1       1.989   4.121  17.730  0.00  0.00    +0.000 A 
ATOM      6  C   UNL     1       1.056   3.354  18.429  0.00  0.00    +0.000 A 
ATOM      7  C   UNL     1       1.011   3.402  19.823  0.00  0.00    +0.000 A 
ATOM      8  C   UNL     1       1.922   4.187  20.529  0.00  0.00    +0.000 A 
ATOM      9  C   UNL     1       2.862   4.948  19.838  0.00  0.00    +0.000 A 
ENDBRANCH   3   4
BRANCH   1  10
ATOM     10  C   UNL     1       1.860   7.614  18.229  0.00  0.00    +0.000 C 
BRANCH  10  13
ATOM     11  O   UNL     1       1.072   9.291  20.239  0.00  0.00    +0.000 OA
ATOM     12  C   UNL     1       1.117   9.775  19.110  0.00  0.00    +0.000 C 
ATOM     13  N   UNL     1       1.478   8.998  18.023  0.00  0.00    +0.000 N 
ATOM     14  H   UNL     1       1.600   9.441  17.123  0.00  0.00    +0.000 HD
BRANCH  12  15
ATOM     15  C   UNL     1       0.805  11.175  18.854  0.00  0.00    +0.000 A 
ATOM     16  C   UNL     1       1.724  12.205  18.741  0.00  0.00    +0.000 A 
ATOM     17  C   UNL     1       1.115  13.470  18.499  0.00  0.00    +0.000 A 
ATOM     18  C   UNL     1      -0.253  13.369  18.436  0.00  0.00    +0.000 A 
ATOM     19  S   UNL     1      -0.794  11.759  18.664  0.00  0.00    +0.000 S 
ENDBRANCH  12  15
ENDBRANCH  10  13
ENDBRANCH   1  10
BRANCH   3  20
ATOM     20  C   UNL     1       4.991   5.498  17.222  0.00  0.00    +0.000 C 
BRANCH  20  21
ATOM     21  C   UNL     1       6.189   6.085  17.994  0.00  0.00    +0.000 A 
ATOM     22  C   UNL     1       6.733   5.440  19.113  0.00  0.00    +0.000 A 
ATOM     23  C   UNL     1       7.921   5.905  19.666  0.00  0.00    +0.000 A 
ATOM     24  N   UNL     1       8.600   6.970  19.200  0.00  0.00    +0.000 NA
ATOM     25  C   UNL     1       8.083   7.583  18.119  0.00  0.00    +0.000 A 
ATOM     26  C   UNL     1       6.910   7.183  17.491  0.00  0.00    +0.000 A 
ENDBRANCH  20  21
BRANCH  20  27
ATOM     27  C   UNL     1       5.101   5.601  15.667  0.00  0.00    +0.000 C 
ATOM     28  O   UNL     1       5.133   6.689  15.091  0.00  0.00    +0.000 OA
ATOM     29  N   UNL     1       5.233   4.405  14.981  0.00  0.00    +0.000 N 
ATOM     30  H   UNL     1       5.474   3.584  15.524  0.00  0.00    +0.000 HD
BRANCH  29  31
ATOM     31  C   UNL     1       5.484   4.364  13.553  0.00  0.00    +0.000 C 
ATOM     32  C   UNL     1       6.957   4.141  13.233  0.00  0.00    +0.000 C 
ATOM     33  C   UNL     1       6.959   3.605  11.807  0.00  0.00    +0.000 C 
ATOM     34  C   UNL     1       5.610   2.918  11.612  0.00  0.00    +0.000 C 
ATOM     35  C   UNL     1       4.802   3.178  12.881  0.00  0.00    +0.000 C 
ENDBRANCH  29  31
ENDBRANCH  20  27
ENDBRANCH   3  20
TORSDOF 8
ENDMDL
MODEL 6
REMARK VINA RESULT:      -7.1      1.570      4.006
REMARK  Name = 
REMARK  8 active torsions:
REMARK  status: ('A' for Active; 'I' for Inactive)
REMARK    1  A    between atoms: C_2  and  C_29
REMARK    2  A    between atoms: N_3  and  C_4
REMARK    3  A    between atoms: C_4  and  C_5
REMARK    4  A    between atoms: N_7  and  C_8
REMARK    5  A    between atoms: N_7  and  C_14
REMARK    6  A    between atoms: C_14  and  C_15
REMARK    7  A    between atoms: C_14  and  C_23
REMARK    8  A    between atoms: N_17  and  C_18
REMARK                            x       y       z     vdW  Elec       q    Type
REMARK                         _______ _______ _______ _____ _____    ______ ____
ROOT
ATOM      1  C   UNL     1       3.282   7.237  17.897  0.00  0.00    +0.000 C 
ATOM      2  O   UNL     1       3.988   8.099  17.365  0.00  0.00    +0.000 OA
ATOM      3  N   UNL     1       3.619   5.881  17.847  0.00  0.00    +0.000 N 
ENDROOT
BRANCH   3   4
ATOM      4  C   UNL     1       2.782   4.909  18.439  0.00  0.00    +0.000 A 
ATOM      5  C   UNL     1       2.932   4.619  19.795  0.00  0.00    +0.000 A 
ATOM      6  C   UNL     1       2.284   3.506  20.334  0.00  0.00    +0.000 A 
ATOM      7  C   UNL     1       1.490   2.694  19.523  0.00  0.00    +0.000 A 
ATOM      8  C   UNL     1       1.308   3.010  18.176  0.00  0.00    +0.000 A 
ATOM      9  C   UNL     1       1.945   4.125  17.634  0.00  0.00    +0.000 A 
ENDBRANCH   3   4
BRANCH   1  10
ATOM     10  C   UNL     1       1.924   7.645  18.506  0.00  0.00    +0.000 C 
BRANCH  10  13
ATOM     11  O   UNL     1       0.784   9.290  20.369  0.00  0.00    +0.000 OA
ATOM     12  C   UNL     1       0.966   9.772  19.252  0.00  0.00    +0.000 C 
ATOM     13  N   UNL     1       1.512   9.010  18.235  0.00  0.00    +0.000 N 
ATOM     14  H   UNL     1       1.740   9.455  17.357  0.00  0.00    +0.000 HD
BRANCH  12  15
ATOM     15  C   UNL     1       0.632  11.156  18.942  0.00  0.00    +0.000 A 
ATOM     16  C   UNL     1      -0.607  11.621  18.534  0.00  0.00    +0.000 A 
ATOM     17  C   UNL     1      -0.623  13.026  18.296  0.00  0.00    +0.000 A 
ATOM     18  C   UNL     1       0.606  13.592  18.528  0.00  0.00    +0.000 A 
ATOM     19  S   UNL     1       1.766  12.436  19.033  0.00  0.00    +0.000 S 
ENDBRANCH  12  15
ENDBRANCH  10  13
ENDBRANCH   1  10
BRANCH   3  20
ATOM     20  C   UNL     1       4.950   5.473  17.316  0.00  0.00    +0.000 C 
BRANCH  20  21
ATOM     21  C   UNL     1       6.169   6.027  18.079  0.00  0.00    +0.000 A 
ATOM     22  C   UNL     1       6.678   5.389  19.219  0.00  0.00    +0.000 A 
ATOM     23  C   UNL     1       7.883   5.815  19.766  0.00  0.00    +0.000 A 
ATOM     24  N   UNL     1       8.612   6.835  19.274  0.00  0.00    +0.000 NA
ATOM     25  C   UNL     1       8.128   7.440  18.173  0.00  0.00    +0.000 A 
ATOM     26  C   UNL     1       6.942   7.076  17.550  0.00  0.00    +0.000 A 
ENDBRANCH  20  21
BRANCH  20  27
ATOM     27  C   UNL     1       5.041   5.592  15.761  0.00  0.00    +0.000 C 
ATOM     28  O   UNL     1       4.997   6.683  15.193  0.00  0.00    +0.000 OA
ATOM     29  N   UNL     1       5.247   4.412  15.066  0.00  0.00    +0.000 N 
ATOM     30  H   UNL     1       5.546   3.605  15.601  0.00  0.00    +0.000 HD
BRANCH  29  31
ATOM     31  C   UNL     1       5.490   4.397  13.636  0.00  0.00    +0.000 C 
ATOM     32  C   UNL     1       6.943   4.085  13.301  0.00  0.00    +0.000 C 
ATOM     33  C   UNL     1       6.903   3.593  11.860  0.00  0.00    +0.000 C 
ATOM     34  C   UNL     1       5.510   3.004  11.652  0.00  0.00    +0.000 C 
ATOM     35  C   UNL     1       4.727   3.281  12.933  0.00  0.00    +0.000 C 
ENDBRANCH  29  31
ENDBRANCH  20  27
ENDBRANCH   3  20
TORSDOF 8
ENDMDL
MODEL 7
REMARK VINA RESULT:      -7.1      0.993      1.141
REMARK  Name = 
REMARK  8 active torsions:
REMARK  status: ('A' for Active; 'I' for Inactive)
REMARK    1  A    between atoms: C_2  and  C_29
REMARK    2  A    between atoms: N_3  and  C_4
REMARK    3  A    between atoms: C_4  and  C_5
REMARK    4  A    between atoms: N_7  and  C_8
REMARK    5  A    between atoms: N_7  and  C_14
REMARK    6  A    between atoms: C_14  and  C_15
REMARK    7  A    between atoms: C_14  and  C_23
REMARK    8  A    between atoms: N_17  and  C_18
REMARK                            x       y       z     vdW  Elec       q    Type
REMARK                         _______ _______ _______ _____ _____    ______ ____
ROOT
ATOM      1  C   UNL     1       2.687   6.675  17.910  0.00  0.00    +0.000 C 
ATOM      2  O   UNL     1       1.506   6.334  17.787  0.00  0.00    +0.000 OA
ATOM      3  N   UNL     1       3.708   5.733  18.075  0.00  0.00    +0.000 N 
ENDROOT
BRANCH   3   4
ATOM      4  C   UNL     1       5.047   6.147  18.242  0.00  0.00    +0.000 A 
ATOM      5  C   UNL     1       5.620   6.995  17.293  0.00  0.00    +0.000 A 
ATOM      6  C   UNL     1       6.997   7.219  17.316  0.00  0.00    +0.000 A 
ATOM      7  C   UNL     1       7.793   6.604  18.284  0.00  0.00    +0.000 A 
ATOM      8  C   UNL     1       7.213   5.790  19.257  0.00  0.00    +0.000 A 
ATOM      9  C   UNL     1       5.837   5.569  19.245  0.00  0.00    +0.000 A 
ENDBRANCH   3   4
BRANCH   1  10
ATOM     10  C   UNL     1       3.029   8.174  18.031  0.00  0.00    +0.000 C 
BRANCH  10  13
ATOM     11  O   UNL     1       1.358   9.135  19.970  0.00  0.00    +0.000 OA
ATOM     12  C   UNL     1       1.151   9.532  18.825  0.00  0.00    +0.000 C 
ATOM     13  N   UNL     1       1.927   9.081  17.771  0.00  0.00    +0.000 N 
ATOM     14  H   UNL     1       1.799   9.493  16.857  0.00  0.00    +0.000 HD
BRANCH  12  15
ATOM     15  C   UNL     1       0.099  10.491  18.516  0.00  0.00    +0.000 A 
ATOM     16  C   UNL     1       0.121  11.844  18.808  0.00  0.00    +0.000 A 
ATOM     17  C   UNL     1      -1.060  12.523  18.390  0.00  0.00    +0.000 A 
ATOM     18  C   UNL     1      -1.950  11.666  17.790  0.00  0.00    +0.000 A 
ATOM     19  S   UNL     1      -1.361  10.059  17.731  0.00  0.00    +0.000 S 
ENDBRANCH  12  15
ENDBRANCH  10  13
ENDBRANCH   1  10
BRANCH   3  20
ATOM     20  C   UNL     1       3.406   4.284  17.904  0.00  0.00    +0.000 C 
BRANCH  20  21
ATOM     21  C   UNL     1       3.125   3.506  19.205  0.00  0.00    +0.000 A 
ATOM     22  C   UNL     1       4.099   2.696  19.805  0.00  0.00    +0.000 A 
ATOM     23  C   UNL     1       3.867   2.161  21.067  0.00  0.00    +0.000 A 
ATOM     24  N   UNL     1       2.736   2.359  21.770  0.00  0.00    +0.000 NA
ATOM     25  C   UNL     1       1.805   3.146  21.198  0.00  0.00    +0.000 A 
ATOM     26  C   UNL     1       1.954   3.734  19.948  0.00  0.00    +0.000 A 
ENDBRANCH  20  21
BRANCH  20  27
ATOM     27  C   UNL     1       4.387   3.576  16.916  0.00  0.00    +0.000 C 
ATOM     28  O   UNL     1       4.571   2.359  16.949  0.00  0.00    +0.000 OA
ATOM     29  N   UNL     1       4.980   4.381  15.959  0.00  0.00    +0.000 N 
ATOM     30  H   UNL     1       4.581   5.301  15.815  0.00  0.00    +0.000 HD
BRANCH  29  31
ATOM     31  C   UNL     1       5.800   3.831  14.895  0.00  0.00    +0.000 C 
ATOM     32  C   UNL     1       5.025   3.674  13.592  0.00  0.00    +0.000 C 
ATOM     33  C   UNL     1       6.101   3.615  12.516  0.00  0.00    +0.000 C 
ATOM     34  C   UNL     1       7.298   4.383  13.071  0.00  0.00    +0.000 C 
ATOM     35  C   UNL     1       6.942   4.762  14.507  0.00  0.00    +0.000 C 
ENDBRANCH  29  31
ENDBRANCH  20  27
ENDBRANCH   3  20
TORSDOF 8
ENDMDL
MODEL 8
REMARK VINA RESULT:      -7.0      3.378      9.434
REMARK  Name = 
REMARK  8 active torsions:
REMARK  status: ('A' for Active; 'I' for Inactive)
REMARK    1  A    between atoms: C_2  and  C_29
REMARK    2  A    between atoms: N_3  and  C_4
REMARK    3  A    between atoms: C_4  and  C_5
REMARK    4  A    between atoms: N_7  and  C_8
REMARK    5  A    between atoms: N_7  and  C_14
REMARK    6  A    between atoms: C_14  and  C_15
REMARK    7  A    between atoms: C_14  and  C_23
REMARK    8  A    between atoms: N_17  and  C_18
REMARK                            x       y       z     vdW  Elec       q    Type
REMARK                         _______ _______ _______ _____ _____    ______ ____
ROOT
ATOM      1  C   UNL     1       1.646   9.823  18.475  0.00  0.00    +0.000 C 
ATOM      2  O   UNL     1       2.060  10.271  17.401  0.00  0.00    +0.000 OA
ATOM      3  N   UNL     1       1.201  10.666  19.498  0.00  0.00    +0.000 N 
ENDROOT
BRANCH   3   4
ATOM      4  C   UNL     1       0.758  10.132  20.728  0.00  0.00    +0.000 A 
ATOM      5  C   UNL     1      -0.559  10.354  21.130  0.00  0.00    +0.000 A 
ATOM      6  C   UNL     1      -0.940  10.042  22.436  0.00  0.00    +0.000 A 
ATOM      7  C   UNL     1      -0.011   9.506  23.329  0.00  0.00    +0.000 A 
ATOM      8  C   UNL     1       1.294   9.246  22.914  0.00  0.00    +0.000 A 
ATOM      9  C   UNL     1       1.679   9.548  21.608  0.00  0.00    +0.000 A 
ENDBRANCH   3   4
BRANCH   1  10
ATOM     10  C   UNL     1       1.756   8.309  18.751  0.00  0.00    +0.000 C 
BRANCH  10  13
ATOM     11  O   UNL     1       2.212   5.618  18.908  0.00  0.00    +0.000 OA
ATOM     12  C   UNL     1       2.943   6.253  18.149  0.00  0.00    +0.000 C 
ATOM     13  N   UNL     1       2.807   7.624  18.023  0.00  0.00    +0.000 N 
ATOM     14  H   UNL     1       3.353   8.108  17.324  0.00  0.00    +0.000 HD
BRANCH  12  15
ATOM     15  C   UNL     1       3.972   5.608  17.345  0.00  0.00    +0.000 A 
ATOM     16  C   UNL     1       4.100   4.246  17.127  0.00  0.00    +0.000 A 
ATOM     17  C   UNL     1       5.215   3.917  16.302  0.00  0.00    +0.000 A 
ATOM     18  C   UNL     1       5.907   5.038  15.917  0.00  0.00    +0.000 A 
ATOM     19  S   UNL     1       5.213   6.474  16.542  0.00  0.00    +0.000 S 
ENDBRANCH  12  15
ENDBRANCH  10  13
ENDBRANCH   1  10
BRANCH   3  20
ATOM     20  C   UNL     1       1.034  12.122  19.231  0.00  0.00    +0.000 C 
BRANCH  20  21
ATOM     21  C   UNL     1       1.412  13.059  20.395  0.00  0.00    +0.000 A 
ATOM     22  C   UNL     1       2.724  13.522  20.573  0.00  0.00    +0.000 A 
ATOM     23  C   UNL     1       2.983  14.506  21.520  0.00  0.00    +0.000 A 
ATOM     24  N   UNL     1       2.041  15.054  22.312  0.00  0.00    +0.000 NA
ATOM     25  C   UNL     1       0.781  14.617  22.132  0.00  0.00    +0.000 A 
ATOM     26  C   UNL     1       0.424  13.648  21.203  0.00  0.00    +0.000 A 
ENDBRANCH  20  21
BRANCH  20  27
ATOM     27  C   UNL     1      -0.324  12.456  18.535  0.00  0.00    +0.000 C 
ATOM     28  O   UNL     1      -0.748  13.610  18.465  0.00  0.00    +0.000 OA
ATOM     29  N   UNL     1      -0.985  11.395  17.941  0.00  0.00    +0.000 N 
ATOM     30  H   UNL     1      -0.458  10.542  17.797  0.00  0.00    +0.000 HD
BRANCH  29  31
ATOM     31  C   UNL     1      -2.182  11.588  17.142  0.00  0.00    +0.000 C 
ATOM     32  C   UNL     1      -2.393  10.462  16.139  0.00  0.00    +0.000 C 
ATOM     33  C   UNL     1      -3.876  10.530  15.798  0.00  0.00    +0.000 C 
ATOM     34  C   UNL     1      -4.562  11.147  17.015  0.00  0.00    +0.000 C 
ATOM     35  C   UNL     1      -3.451  11.542  17.985  0.00  0.00    +0.000 C 
ENDBRANCH  29  31
ENDBRANCH  20  27
ENDBRANCH   3  20
TORSDOF 8
ENDMDL
MODEL 9
REMARK VINA RESULT:      -6.9      4.631     10.380
REMARK  Name = 
REMARK  8 active torsions:
REMARK  status: ('A' for Active; 'I' for Inactive)
REMARK    1  A    between atoms: C_2  and  C_29
REMARK    2  A    between atoms: N_3  and  C_4
REMARK    3  A    between atoms: C_4  and  C_5
REMARK    4  A    between atoms: N_7  and  C_8
REMARK    5  A    between atoms: N_7  and  C_14
REMARK    6  A    between atoms: C_14  and  C_15
REMARK    7  A    between atoms: C_14  and  C_23
REMARK    8  A    between atoms: N_17  and  C_18
REMARK                            x       y       z     vdW  Elec       q    Type
REMARK                         _______ _______ _______ _____ _____    ______ ____
ROOT
ATOM      1  C   UNL     1       0.117   9.351  20.822  0.00  0.00    +0.000 C 
ATOM      2  O   UNL     1      -0.800   8.573  21.100  0.00  0.00    +0.000 OA
ATOM      3  N   UNL     1      -0.133  10.606  20.256  0.00  0.00    +0.000 N 
ENDROOT
BRANCH   3   4
ATOM      4  C   UNL     1       0.934  11.468  19.920  0.00  0.00    +0.000 A 
ATOM      5  C   UNL     1       1.407  12.368  20.876  0.00  0.00    +0.000 A 
ATOM      6  C   UNL     1       2.289  13.378  20.490  0.00  0.00    +0.000 A 
ATOM      7  C   UNL     1       2.697  13.484  19.159  0.00  0.00    +0.000 A 
ATOM      8  C   UNL     1       2.256  12.558  18.213  0.00  0.00    +0.000 A 
ATOM      9  C   UNL     1       1.382  11.542  18.594  0.00  0.00    +0.000 A 
ENDBRANCH   3   4
BRANCH   1  10
ATOM     10  C   UNL     1       1.578   8.876  20.966  0.00  0.00    +0.000 C 
BRANCH  10  13
ATOM     11  O   UNL     1       2.528   7.426  18.852  0.00  0.00    +0.000 OA
ATOM     12  C   UNL     1       2.270   6.795  19.876  0.00  0.00    +0.000 C 
ATOM     13  N   UNL     1       1.759   7.437  20.989  0.00  0.00    +0.000 N 
ATOM     14  H   UNL     1       1.645   6.915  21.847  0.00  0.00    +0.000 HD
BRANCH  12  15
ATOM     15  C   UNL     1       2.492   5.358  19.977  0.00  0.00    +0.000 A 
ATOM     16  C   UNL     1       2.198   4.566  21.073  0.00  0.00    +0.000 A 
ATOM     17  C   UNL     1       2.538   3.196  20.877  0.00  0.00    +0.000 A 
ATOM     18  C   UNL     1       3.084   2.984  19.635  0.00  0.00    +0.000 A 
ATOM     19  S   UNL     1       3.180   4.426  18.715  0.00  0.00    +0.000 S 
ENDBRANCH  12  15
ENDBRANCH  10  13
ENDBRANCH   1  10
BRANCH   3  20
ATOM     20  C   UNL     1      -1.534  11.104  20.163  0.00  0.00    +0.000 C 
BRANCH  20  21
ATOM     21  C   UNL     1      -2.224  10.899  18.800  0.00  0.00    +0.000 A 
ATOM     22  C   UNL     1      -3.379  11.608  18.443  0.00  0.00    +0.000 A 
ATOM     23  C   UNL     1      -3.860  11.529  17.142  0.00  0.00    +0.000 A 
ATOM     24  N   UNL     1      -3.289  10.788  16.173  0.00  0.00    +0.000 NA
ATOM     25  C   UNL     1      -2.174  10.116  16.514  0.00  0.00    +0.000 A 
ATOM     26  C   UNL     1      -1.612  10.144  17.784  0.00  0.00    +0.000 A 
ENDBRANCH  20  21
BRANCH  20  27
ATOM     27  C   UNL     1      -1.708  12.530  20.777  0.00  0.00    +0.000 C 
ATOM     28  O   UNL     1      -1.683  13.543  20.077  0.00  0.00    +0.000 OA
ATOM     29  N   UNL     1      -1.966  12.585  22.136  0.00  0.00    +0.000 N 
ATOM     30  H   UNL     1      -2.245  11.723  22.590  0.00  0.00    +0.000 HD
BRANCH  29  31
ATOM     31  C   UNL     1      -2.288  13.832  22.806  0.00  0.00    +0.000 C 
ATOM     32  C   UNL     1      -3.287  13.636  23.939  0.00  0.00    +0.000 C 
ATOM     33  C   UNL     1      -3.098  14.860  24.826  0.00  0.00    +0.000 C 
ATOM     34  C   UNL     1      -1.658  15.321  24.612  0.00  0.00    +0.000 C 
ATOM     35  C   UNL     1      -1.079  14.435  23.512  0.00  0.00    +0.000 C 
ENDBRANCH  29  31
ENDBRANCH  20  27
ENDBRANCH   3  20
TORSDOF 8
ENDMDL
