MODEL 1
REMARK VINA RESULT:      -7.1      0.000      0.000
REMARK  Name = 
REMARK  7 active torsions:
REMARK  status: ('A' for Active; 'I' for Inactive)
REMARK    1  A    between atoms: C_1  and  O_2
REMARK    2  A    between atoms: O_2  and  C_3
REMARK    3  A    between atoms: C_3  and  C_5
REMARK    4  A    between atoms: C_5  and  C_6
REMARK    5  A    between atoms: C_6  and  C_7
REMARK    6  A    between atoms: N_11  and  C_12
REMARK    7  A    between atoms: C_12  and  C_13
REMARK                            x       y       z     vdW  Elec       q    Type
REMARK                         _______ _______ _______ _____ _____    ______ ____
ROOT
ATOM      1  C   UNL     1       6.000   5.147  16.697  0.00  0.00    +0.000 A 
ATOM      2  C   UNL     1       7.162   4.672  17.284  0.00  0.00    +0.000 A 
ATOM      3  N   UNL     1       7.063   4.647  18.647  0.00  0.00    +0.000 NA
ATOM      4  C   UNL     1       5.855   5.081  18.907  0.00  0.00    +0.000 A 
ATOM      5  N   UNL     1       5.162   5.394  17.764  0.00  0.00    +0.000 N 
ENDROOT
BRANCH   1   6
ATOM      6  C   UNL     1       5.696   5.296  15.241  0.00  0.00    +0.000 C 
BRANCH   6   7
ATOM      7  C   UNL     1       6.127   4.103  14.399  0.00  0.00    +0.000 C 
BRANCH   7   8
ATOM      8  C   UNL     1       6.966   4.533  13.219  0.00  0.00    +0.000 C 
ATOM      9  O   UNL     1       7.705   5.510  13.189  0.00  0.00    +0.000 OA
BRANCH   8  11
ATOM     10  C   UNL     1       5.446   3.170  12.066  0.00  0.00    +0.000 C 
ATOM     11  O   UNL     1       6.785   3.651  12.197  0.00  0.00    +0.000 OA
ENDBRANCH   8  11
ENDBRANCH   7   8
ENDBRANCH   6   7
ENDBRANCH   1   6
BRANCH   5  12
ATOM     12  C   UNL     1       3.818   5.950  17.785  0.00  0.00    +0.000 C 
BRANCH  12  13
ATOM     13  C   UNL     1       2.876   5.135  18.635  0.00  0.00    +0.000 A 
ATOM     14  C   UNL     1       2.532   5.563  19.928  0.00  0.00    +0.000 A 
ATOM     15  C   UNL     1       1.705   4.781  20.734  0.00  0.00    +0.000 A 
ATOM     16  C   UNL     1       1.216   3.575  20.248  0.00  0.00    +0.000 A 
ATOM     17  F   UNL     1       0.441   2.814  21.033  0.00  0.00    +0.000 F 
ATOM     18  C   UNL     1       1.523   3.145  18.964  0.00  0.00    +0.000 A 
ATOM     19  C   UNL     1       2.348   3.925  18.155  0.00  0.00    +0.000 A 
ENDBRANCH  12  13
ENDBRANCH   5  12
TORSDOF 6
ENDMDL
MODEL 2
REMARK VINA RESULT:      -6.9      0.648      1.254
REMARK  Name = 
REMARK  7 active torsions:
REMARK  status: ('A' for Active; 'I' for Inactive)
REMARK    1  A    between atoms: C_1  and  O_2
REMARK    2  A    between atoms: O_2  and  C_3
REMARK    3  A    between atoms: C_3  and  C_5
REMARK    4  A    between atoms: C_5  and  C_6
REMARK    5  A    between atoms: C_6  and  C_7
REMARK    6  A    between atoms: N_11  and  C_12
REMARK    7  A    between atoms: C_12  and  C_13
REMARK                            x       y       z     vdW  Elec       q    Type
REMARK                         _______ _______ _______ _____ _____    ______ ____
ROOT
ATOM      1  C   UNL     1       5.860   5.078  16.701  0.00  0.00    +0.000 A 
ATOM      2  C   UNL     1       7.064   4.891  17.360  0.00  0.00    +0.000 A 
ATOM      3  N   UNL     1       6.875   4.592  18.679  0.00  0.00    +0.000 NA
ATOM      4  C   UNL     1       5.575   4.573  18.840  0.00  0.00    +0.000 A 
ATOM      5  N   UNL     1       4.907   4.854  17.673  0.00  0.00    +0.000 N 
ENDROOT
BRANCH   1   6
ATOM      6  C   UNL     1       5.637   5.384  15.255  0.00  0.00    +0.000 C 
BRANCH   6   7
ATOM      7  C   UNL     1       5.939   4.215  14.327  0.00  0.00    +0.000 C 
BRANCH   7   8
ATOM      8  C   UNL     1       7.014   4.567  13.327  0.00  0.00    +0.000 C 
ATOM      9  O   UNL     1       7.943   5.342  13.522  0.00  0.00    +0.000 OA
BRANCH   8  11
ATOM     10  C   UNL     1       5.503   3.274  12.083  0.00  0.00    +0.000 C 
ATOM     11  O   UNL     1       6.798   3.872  12.175  0.00  0.00    +0.000 OA
ENDBRANCH   8  11
ENDBRANCH   7   8
ENDBRANCH   6   7
ENDBRANCH   1   6
BRANCH   5  12
ATOM     12  C   UNL     1       3.458   4.950  17.598  0.00  0.00    +0.000 C 
BRANCH  12  13
ATOM     13  C   UNL     1       2.780   4.287  18.770  0.00  0.00    +0.000 A 
ATOM     14  C   UNL     1       2.572   2.898  18.781  0.00  0.00    +0.000 A 
ATOM     15  C   UNL     1       1.896   2.293  19.840  0.00  0.00    +0.000 A 
ATOM     16  C   UNL     1       1.433   3.073  20.893  0.00  0.00    +0.000 A 
ATOM     17  F   UNL     1       0.763   2.494  21.898  0.00  0.00    +0.000 F 
ATOM     18  C   UNL     1       1.650   4.444  20.915  0.00  0.00    +0.000 A 
ATOM     19  C   UNL     1       2.327   5.052  19.858  0.00  0.00    +0.000 A 
ENDBRANCH  12  13
ENDBRANCH   5  12
TORSDOF 6
ENDMDL
MODEL 3
REMARK VINA RESULT:      -6.8      0.981      1.828
REMARK  Name = 
REMARK  7 active torsions:
REMARK  status: ('A' for Active; 'I' for Inactive)
REMARK    1  A    between atoms: C_1  and  O_2
REMARK    2  A    between atoms: O_2  and  C_3
REMARK    3  A    between atoms: C_3  and  C_5
REMARK    4  A    between atoms: C_5  and  C_6
REMARK    5  A    between atoms: C_6  and  C_7
REMARK    6  A    between atoms: N_11  and  C_12
REMARK    7  A    between atoms: C_12  and  C_13
REMARK                            x       y       z     vdW  Elec       q    Type
REMARK                         _______ _______ _______ _____ _____    ______ ____
ROOT
ATOM      1  C   UNL     1       6.166   5.389  17.079  0.00  0.00    +0.000 A 
ATOM      2  C   UNL     1       7.405   4.977  17.542  0.00  0.00    +0.000 A 
ATOM      3  N   UNL     1       7.451   4.957  18.907  0.00  0.00    +0.000 NA
ATOM      4  C   UNL     1       6.257   5.332  19.292  0.00  0.00    +0.000 A 
ATOM      5  N   UNL     1       5.433   5.602  18.227  0.00  0.00    +0.000 N 
ENDROOT
BRANCH   1   6
ATOM      6  C   UNL     1       5.704   5.512  15.662  0.00  0.00    +0.000 C 
BRANCH   6   7
ATOM      7  C   UNL     1       5.766   4.207  14.882  0.00  0.00    +0.000 C 
BRANCH   7   8
ATOM      8  C   UNL     1       6.530   4.371  13.589  0.00  0.00    +0.000 C 
ATOM      9  O   UNL     1       6.497   3.600  12.639  0.00  0.00    +0.000 OA
BRANCH   8  11
ATOM     10  C   UNL     1       8.413   5.532  12.810  0.00  0.00    +0.000 C 
ATOM     11  O   UNL     1       7.251   5.526  13.641  0.00  0.00    +0.000 OA
ENDBRANCH   8  11
ENDBRANCH   7   8
ENDBRANCH   6   7
ENDBRANCH   1   6
BRANCH   5  12
ATOM     12  C   UNL     1       4.072   6.091  18.388  0.00  0.00    +0.000 C 
BRANCH  12  13
ATOM     13  C   UNL     1       3.074   4.969  18.521  0.00  0.00    +0.000 A 
ATOM     14  C   UNL     1       3.077   3.901  17.608  0.00  0.00    +0.000 A 
ATOM     15  C   UNL     1       2.118   2.892  17.699  0.00  0.00    +0.000 A 
ATOM     16  C   UNL     1       1.161   2.944  18.704  0.00  0.00    +0.000 A 
ATOM     17  F   UNL     1       0.227   1.987  18.775  0.00  0.00    +0.000 F 
ATOM     18  C   UNL     1       1.155   3.977  19.632  0.00  0.00    +0.000 A 
ATOM     19  C   UNL     1       2.113   4.987  19.546  0.00  0.00    +0.000 A 
ENDBRANCH  12  13
ENDBRANCH   5  12
TORSDOF 6
ENDMDL
MODEL 4
REMARK VINA RESULT:      -6.8      1.110      1.269
REMARK  Name = 
REMARK  7 active torsions:
REMARK  status: ('A' for Active; 'I' for Inactive)
REMARK    1  A    between atoms: C_1  and  O_2
REMARK    2  A    between atoms: O_2  and  C_3
REMARK    3  A    between atoms: C_3  and  C_5
REMARK    4  A    between atoms: C_5  and  C_6
REMARK    5  A    between atoms: C_6  and  C_7
REMARK    6  A    between atoms: N_11  and  C_12
REMARK    7  A    between atoms: C_12  and  C_13
REMARK                            x       y       z     vdW  Elec       q    Type
REMARK                         _______ _______ _______ _____ _____    ______ ____
ROOT
ATOM      1  C   UNL     1       6.744   5.173  17.084  0.00  0.00    +0.000 A 
ATOM      2  C   UNL     1       7.733   4.884  18.010  0.00  0.00    +0.000 A 
ATOM      3  N   UNL     1       7.271   4.992  19.291  0.00  0.00    +0.000 NA
ATOM      4  C   UNL     1       6.010   5.324  19.169  0.00  0.00    +0.000 A 
ATOM      5  N   UNL     1       5.632   5.442  17.855  0.00  0.00    +0.000 N 
ENDROOT
BRANCH   1   6
ATOM      6  C   UNL     1       6.836   5.137  15.593  0.00  0.00    +0.000 C 
BRANCH   6   7
ATOM      7  C   UNL     1       6.268   3.866  14.974  0.00  0.00    +0.000 C 
BRANCH   7   8
ATOM      8  C   UNL     1       6.352   3.901  13.466  0.00  0.00    +0.000 C 
ATOM      9  O   UNL     1       7.095   4.620  12.810  0.00  0.00    +0.000 OA
BRANCH   8  11
ATOM     10  C   UNL     1       4.923   3.359  11.687  0.00  0.00    +0.000 C 
ATOM     11  O   UNL     1       5.480   2.990  12.950  0.00  0.00    +0.000 OA
ENDBRANCH   8  11
ENDBRANCH   7   8
ENDBRANCH   6   7
ENDBRANCH   1   6
BRANCH   5  12
ATOM     12  C   UNL     1       4.296   5.855  17.453  0.00  0.00    +0.000 C 
BRANCH  12  13
ATOM     13  C   UNL     1       3.254   4.819  17.785  0.00  0.00    +0.000 A 
ATOM     14  C   UNL     1       2.231   5.105  18.705  0.00  0.00    +0.000 A 
ATOM     15  C   UNL     1       1.300   4.128  19.053  0.00  0.00    +0.000 A 
ATOM     16  C   UNL     1       1.384   2.865  18.480  0.00  0.00    +0.000 A 
ATOM     17  F   UNL     1       0.504   1.920  18.833  0.00  0.00    +0.000 F 
ATOM     18  C   UNL     1       2.371   2.568  17.550  0.00  0.00    +0.000 A 
ATOM     19  C   UNL     1       3.303   3.544  17.198  0.00  0.00    +0.000 A 
ENDBRANCH  12  13
ENDBRANCH   5  12
TORSDOF 6
ENDMDL
MODEL 5
REMARK VINA RESULT:      -6.7      3.180      4.576
REMARK  Name = 
REMARK  7 active torsions:
REMARK  status: ('A' for Active; 'I' for Inactive)
REMARK    1  A    between atoms: C_1  and  O_2
REMARK    2  A    between atoms: O_2  and  C_3
REMARK    3  A    between atoms: C_3  and  C_5
REMARK    4  A    between atoms: C_5  and  C_6
REMARK    5  A    between atoms: C_6  and  C_7
REMARK    6  A    between atoms: N_11  and  C_12
REMARK    7  A    between atoms: C_12  and  C_13
REMARK                            x       y       z     vdW  Elec       q    Type
REMARK                         _______ _______ _______ _____ _____    ______ ____
ROOT
ATOM      1  C   UNL     1       3.537   4.022  17.984  0.00  0.00    +0.000 A 
ATOM      2  C   UNL     1       2.654   3.149  17.372  0.00  0.00    +0.000 A 
ATOM      3  N   UNL     1       1.375   3.332  17.815  0.00  0.00    +0.000 NA
ATOM      4  C   UNL     1       1.453   4.315  18.677  0.00  0.00    +0.000 A 
ATOM      5  N   UNL     1       2.738   4.779  18.816  0.00  0.00    +0.000 N 
ENDROOT
BRANCH   1   6
ATOM      6  C   UNL     1       5.007   4.164  17.752  0.00  0.00    +0.000 C 
BRANCH   6   7
ATOM      7  C   UNL     1       5.357   4.932  16.485  0.00  0.00    +0.000 C 
BRANCH   7   8
ATOM      8  C   UNL     1       6.830   5.261  16.427  0.00  0.00    +0.000 C 
ATOM      9  O   UNL     1       7.740   4.445  16.350  0.00  0.00    +0.000 OA
BRANCH   8  11
ATOM     10  C   UNL     1       7.547   7.115  17.672  0.00  0.00    +0.000 C 
ATOM     11  O   UNL     1       6.986   6.614  16.457  0.00  0.00    +0.000 OA
ENDBRANCH   8  11
ENDBRANCH   7   8
ENDBRANCH   6   7
ENDBRANCH   1   6
BRANCH   5  12
ATOM     12  C   UNL     1       3.099   5.830  19.754  0.00  0.00    +0.000 C 
BRANCH  12  13
ATOM     13  C   UNL     1       2.461   7.151  19.405  0.00  0.00    +0.000 A 
ATOM     14  C   UNL     1       1.695   7.846  20.355  0.00  0.00    +0.000 A 
ATOM     15  C   UNL     1       1.059   9.040  20.014  0.00  0.00    +0.000 A 
ATOM     16  C   UNL     1       1.193   9.544  18.727  0.00  0.00    +0.000 A 
ATOM     17  F   UNL     1       0.562  10.677  18.394  0.00  0.00    +0.000 F 
ATOM     18  C   UNL     1       1.966   8.886  17.779  0.00  0.00    +0.000 A 
ATOM     19  C   UNL     1       2.604   7.693  18.117  0.00  0.00    +0.000 A 
ENDBRANCH  12  13
ENDBRANCH   5  12
TORSDOF 6
ENDMDL
MODEL 6
REMARK VINA RESULT:      -6.7      4.308      5.591
REMARK  Name = 
REMARK  7 active torsions:
REMARK  status: ('A' for Active; 'I' for Inactive)
REMARK    1  A    between atoms: C_1  and  O_2
REMARK    2  A    between atoms: O_2  and  C_3
REMARK    3  A    between atoms: C_3  and  C_5
REMARK    4  A    between atoms: C_5  and  C_6
REMARK    5  A    between atoms: C_6  and  C_7
REMARK    6  A    between atoms: N_11  and  C_12
REMARK    7  A    between atoms: C_12  and  C_13
REMARK                            x       y       z     vdW  Elec       q    Type
REMARK                         _______ _______ _______ _____ _____    ______ ____
ROOT
ATOM      1  C   UNL     1       3.877   4.108  18.055  0.00  0.00    +0.000 A 
ATOM      2  C   UNL     1       4.730   3.406  18.890  0.00  0.00    +0.000 A 
ATOM      3  N   UNL     1       5.694   4.215  19.421  0.00  0.00    +0.000 NA
ATOM      4  C   UNL     1       5.437   5.407  18.942  0.00  0.00    +0.000 A 
ATOM      5  N   UNL     1       4.343   5.405  18.113  0.00  0.00    +0.000 N 
ENDROOT
BRANCH   1   6
ATOM      6  C   UNL     1       2.683   3.598  17.313  0.00  0.00    +0.000 C 
BRANCH   6   7
ATOM      7  C   UNL     1       1.355   4.072  17.887  0.00  0.00    +0.000 C 
BRANCH   7   8
ATOM      8  C   UNL     1       0.870   3.157  18.986  0.00  0.00    +0.000 C 
ATOM      9  O   UNL     1       0.361   2.055  18.822  0.00  0.00    +0.000 OA
BRANCH   8  11
ATOM     10  C   UNL     1       1.358   2.826  21.256  0.00  0.00    +0.000 C 
ATOM     11  O   UNL     1       1.102   3.745  20.192  0.00  0.00    +0.000 OA
ENDBRANCH   8  11
ENDBRANCH   7   8
ENDBRANCH   6   7
ENDBRANCH   1   6
BRANCH   5  12
ATOM     12  C   UNL     1       3.885   6.594  17.410  0.00  0.00    +0.000 C 
BRANCH  12  13
ATOM     13  C   UNL     1       2.951   7.428  18.249  0.00  0.00    +0.000 A 
ATOM     14  C   UNL     1       2.581   7.006  19.537  0.00  0.00    +0.000 A 
ATOM     15  C   UNL     1       1.674   7.751  20.291  0.00  0.00    +0.000 A 
ATOM     16  C   UNL     1       1.141   8.920  19.763  0.00  0.00    +0.000 A 
ATOM     17  F   UNL     1       0.252   9.621  20.479  0.00  0.00    +0.000 F 
ATOM     18  C   UNL     1       1.512   9.369  18.503  0.00  0.00    +0.000 A 
ATOM     19  C   UNL     1       2.420   8.628  17.747  0.00  0.00    +0.000 A 
ENDBRANCH  12  13
ENDBRANCH   5  12
TORSDOF 6
ENDMDL
MODEL 7
REMARK VINA RESULT:      -6.7      3.139      4.567
REMARK  Name = 
REMARK  7 active torsions:
REMARK  status: ('A' for Active; 'I' for Inactive)
REMARK    1  A    between atoms: C_1  and  O_2
REMARK    2  A    between atoms: O_2  and  C_3
REMARK    3  A    between atoms: C_3  and  C_5
REMARK    4  A    between atoms: C_5  and  C_6
REMARK    5  A    between atoms: C_6  and  C_7
REMARK    6  A    between atoms: N_11  and  C_12
REMARK    7  A    between atoms: C_12  and  C_13
REMARK                            x       y       z     vdW  Elec       q    Type
REMARK                         _______ _______ _______ _____ _____    ______ ____
ROOT
ATOM      1  C   UNL     1       3.646   4.076  17.689  0.00  0.00    +0.000 A 
ATOM      2  C   UNL     1       2.726   3.187  17.157  0.00  0.00    +0.000 A 
ATOM      3  N   UNL     1       1.482   3.371  17.690  0.00  0.00    +0.000 NA
ATOM      4  C   UNL     1       1.616   4.369  18.528  0.00  0.00    +0.000 A 
ATOM      5  N   UNL     1       2.905   4.841  18.565  0.00  0.00    +0.000 N 
ENDROOT
BRANCH   1   6
ATOM      6  C   UNL     1       5.094   4.221  17.347  0.00  0.00    +0.000 C 
BRANCH   6   7
ATOM      7  C   UNL     1       5.365   5.240  16.249  0.00  0.00    +0.000 C 
BRANCH   7   8
ATOM      8  C   UNL     1       6.847   5.456  16.048  0.00  0.00    +0.000 C 
ATOM      9  O   UNL     1       7.432   5.426  14.973  0.00  0.00    +0.000 OA
BRANCH   8  11
ATOM     10  C   UNL     1       7.492   7.089  17.603  0.00  0.00    +0.000 C 
ATOM     11  O   UNL     1       7.429   5.705  17.255  0.00  0.00    +0.000 OA
ENDBRANCH   8  11
ENDBRANCH   7   8
ENDBRANCH   6   7
ENDBRANCH   1   6
BRANCH   5  12
ATOM     12  C   UNL     1       3.327   5.910  19.457  0.00  0.00    +0.000 C 
BRANCH  12  13
ATOM     13  C   UNL     1       2.546   7.180  19.236  0.00  0.00    +0.000 A 
ATOM     14  C   UNL     1       2.575   7.827  17.989  0.00  0.00    +0.000 A 
ATOM     15  C   UNL     1       1.897   9.031  17.801  0.00  0.00    +0.000 A 
ATOM     16  C   UNL     1       1.184   9.588  18.856  0.00  0.00    +0.000 A 
ATOM     17  F   UNL     1       0.553  10.756  18.681  0.00  0.00    +0.000 F 
ATOM     18  C   UNL     1       1.121   8.953  20.089  0.00  0.00    +0.000 A 
ATOM     19  C   UNL     1       1.797   7.748  20.279  0.00  0.00    +0.000 A 
ENDBRANCH  12  13
ENDBRANCH   5  12
TORSDOF 6
ENDMDL
MODEL 8
REMARK VINA RESULT:      -6.7      0.661      1.237
REMARK  Name = 
REMARK  7 active torsions:
REMARK  status: ('A' for Active; 'I' for Inactive)
REMARK    1  A    between atoms: C_1  and  O_2
REMARK    2  A    between atoms: O_2  and  C_3
REMARK    3  A    between atoms: C_3  and  C_5
REMARK    4  A    between atoms: C_5  and  C_6
REMARK    5  A    between atoms: C_6  and  C_7
REMARK    6  A    between atoms: N_11  and  C_12
REMARK    7  A    between atoms: C_12  and  C_13
REMARK                            x       y       z     vdW  Elec       q    Type
REMARK                         _______ _______ _______ _____ _____    ______ ____
ROOT
ATOM      1  C   UNL     1       5.930   5.418  16.927  0.00  0.00    +0.000 A 
ATOM      2  C   UNL     1       7.119   5.021  17.517  0.00  0.00    +0.000 A 
ATOM      3  N   UNL     1       6.995   4.908  18.873  0.00  0.00    +0.000 NA
ATOM      4  C   UNL     1       5.746   5.211  19.126  0.00  0.00    +0.000 A 
ATOM      5  N   UNL     1       5.050   5.522  17.984  0.00  0.00    +0.000 N 
ENDROOT
BRANCH   1   6
ATOM      6  C   UNL     1       5.643   5.622  15.474  0.00  0.00    +0.000 C 
BRANCH   6   7
ATOM      7  C   UNL     1       5.604   4.330  14.670  0.00  0.00    +0.000 C 
BRANCH   7   8
ATOM      8  C   UNL     1       6.657   4.321  13.586  0.00  0.00    +0.000 C 
ATOM      9  O   UNL     1       6.635   3.626  12.578  0.00  0.00    +0.000 OA
BRANCH   8  11
ATOM     10  C   UNL     1       8.324   5.756  12.773  0.00  0.00    +0.000 C 
ATOM     11  O   UNL     1       7.628   5.223  13.901  0.00  0.00    +0.000 OA
ENDBRANCH   8  11
ENDBRANCH   7   8
ENDBRANCH   6   7
ENDBRANCH   1   6
BRANCH   5  12
ATOM     12  C   UNL     1       3.659   5.948  18.001  0.00  0.00    +0.000 C 
BRANCH  12  13
ATOM     13  C   UNL     1       2.808   5.082  18.895  0.00  0.00    +0.000 A 
ATOM     14  C   UNL     1       2.382   5.554  20.148  0.00  0.00    +0.000 A 
ATOM     15  C   UNL     1       1.642   4.732  20.998  0.00  0.00    +0.000 A 
ATOM     16  C   UNL     1       1.320   3.442  20.595  0.00  0.00    +0.000 A 
ATOM     17  F   UNL     1       0.630   2.646  21.422  0.00  0.00    +0.000 F 
ATOM     18  C   UNL     1       1.709   2.964  19.350  0.00  0.00    +0.000 A 
ATOM     19  C   UNL     1       2.448   3.784  18.498  0.00  0.00    +0.000 A 
ENDBRANCH  12  13
ENDBRANCH   5  12
TORSDOF 6
ENDMDL
MODEL 9
REMARK VINA RESULT:      -6.7      1.283      1.743
REMARK  Name = 
REMARK  7 active torsions:
REMARK  status: ('A' for Active; 'I' for Inactive)
REMARK    1  A    between atoms: C_1  and  O_2
REMARK    2  A    between atoms: O_2  and  C_3
REMARK    3  A    between atoms: C_3  and  C_5
REMARK    4  A    between atoms: C_5  and  C_6
REMARK    5  A    between atoms: C_6  and  C_7
REMARK    6  A    between atoms: N_11  and  C_12
REMARK    7  A    between atoms: C_12  and  C_13
REMARK                            x       y       z     vdW  Elec       q    Type
REMARK                         _______ _______ _______ _____ _____    ______ ____
ROOT
ATOM      1  C   UNL     1       6.567   5.763  17.545  0.00  0.00    +0.000 A 
ATOM      2  C   UNL     1       7.551   5.387  18.445  0.00  0.00    +0.000 A 
ATOM      3  N   UNL     1       7.031   5.133  19.682  0.00  0.00    +0.000 NA
ATOM      4  C   UNL     1       5.742   5.329  19.556  0.00  0.00    +0.000 A 
ATOM      5  N   UNL     1       5.401   5.706  18.281  0.00  0.00    +0.000 N 
ENDROOT
BRANCH   1   6
ATOM      6  C   UNL     1       6.718   6.091  16.095  0.00  0.00    +0.000 C 
BRANCH   6   7
ATOM      7  C   UNL     1       5.876   5.215  15.177  0.00  0.00    +0.000 C 
BRANCH   7   8
ATOM      8  C   UNL     1       6.707   4.624  14.062  0.00  0.00    +0.000 C 
ATOM      9  O   UNL     1       6.381   3.678  13.356  0.00  0.00    +0.000 OA
BRANCH   8  11
ATOM     10  C   UNL     1       8.239   5.655  12.617  0.00  0.00    +0.000 C 
ATOM     11  O   UNL     1       7.872   5.321  13.957  0.00  0.00    +0.000 OA
ENDBRANCH   8  11
ENDBRANCH   7   8
ENDBRANCH   6   7
ENDBRANCH   1   6
BRANCH   5  12
ATOM     12  C   UNL     1       4.038   6.038  17.895  0.00  0.00    +0.000 C 
BRANCH  12  13
ATOM     13  C   UNL     1       3.094   4.878  18.082  0.00  0.00    +0.000 A 
ATOM     14  C   UNL     1       2.071   4.939  19.043  0.00  0.00    +0.000 A 
ATOM     15  C   UNL     1       1.233   3.844  19.253  0.00  0.00    +0.000 A 
ATOM     16  C   UNL     1       1.411   2.690  18.500  0.00  0.00    +0.000 A 
ATOM     17  F   UNL     1       0.621   1.631  18.720  0.00  0.00    +0.000 F 
ATOM     18  C   UNL     1       2.399   2.617  17.527  0.00  0.00    +0.000 A 
ATOM     19  C   UNL     1       3.238   3.711  17.313  0.00  0.00    +0.000 A 
ENDBRANCH  12  13
ENDBRANCH   5  12
TORSDOF 6
ENDMDL
