MODEL 1
REMARK VINA RESULT:      -8.2      0.000      0.000
REMARK  Name = 
REMARK  4 active torsions:
REMARK  status: ('A' for Active; 'I' for Inactive)
REMARK    1  A    between atoms: S_2  and  N_4
REMARK    2  A    between atoms: S_2  and  C_28
REMARK    3  A    between atoms: N_4  and  C_5
REMARK    4  A    between atoms: C_16  and  N_17
REMARK                            x       y       z     vdW  Elec       q    Type
REMARK                         _______ _______ _______ _____ _____    ______ ____
ROOT
ATOM      1  C   UNL     1      -1.044  11.583  19.811  0.00  0.00    +0.000 A 
ATOM      2  C   UNL     1      -1.419  12.683  20.591  0.00  0.00    +0.000 A 
ATOM      3  C   UNL     1      -2.725  13.150  20.499  0.00  0.00    +0.000 A 
ATOM      4  C   UNL     1      -3.649  12.462  19.743  0.00  0.00    +0.000 A 
ATOM      5  C   UNL     1      -3.246  11.566  18.760  0.00  0.00    +0.000 A 
ATOM      6  C   UNL     1      -4.087  11.201  17.698  0.00  0.00    +0.000 A 
ATOM      7  C   UNL     1      -3.588  10.449  16.634  0.00  0.00    +0.000 A 
ATOM      8  C   UNL     1      -2.285   9.963  16.672  0.00  0.00    +0.000 A 
ATOM      9  C   UNL     1      -1.466  10.253  17.763  0.00  0.00    +0.000 A 
ATOM     10  C   UNL     1      -1.905  11.109  18.793  0.00  0.00    +0.000 A 
ATOM     11  O   UNL     1      -4.942  12.787  20.061  0.00  0.00    +0.000 OA
ATOM     12  C   UNL     1      -4.886  13.724  21.211  0.00  0.00    +0.000 C 
ATOM     13  C   UNL     1      -5.014  12.888  22.542  0.00  0.00    +0.000 C 
ATOM     14  C   UNL     1      -3.700  12.597  23.283  0.00  0.00    +0.000 C 
ATOM     15  C   UNL     1      -2.848  13.841  23.533  0.00  0.00    +0.000 C 
ATOM     16  C   UNL     1      -2.796  14.833  22.380  0.00  0.00    +0.000 C 
ATOM     17  C   UNL     1      -3.444  14.326  21.107  0.00  0.00    +0.000 C 
ENDROOT
BRANCH  12  18
ATOM     18  N   UNL     1      -6.100  14.570  21.116  0.00  0.00    +0.000 NA
ATOM     19  C   UNL     1      -6.104  15.824  20.357  0.00  0.00    +0.000 C 
ATOM     20  C   UNL     1      -6.501  15.649  18.890  0.00  0.00    +0.000 C 
ATOM     21  O   UNL     1      -7.787  15.036  18.772  0.00  0.00    +0.000 OA
ATOM     22  C   UNL     1      -7.816  13.771  19.445  0.00  0.00    +0.000 C 
ATOM     23  C   UNL     1      -7.391  13.888  20.916  0.00  0.00    +0.000 C 
ENDBRANCH  12  18
BRANCH   1  24
ATOM     24  N   UNL     1       0.268  11.042  19.920  0.00  0.00    +0.000 N 
ATOM     25  H   UNL     1       1.070  11.651  19.796  0.00  0.00    +0.000 HD
BRANCH  24  27
ATOM     26  O   UNL     1       1.515  10.130  21.874  0.00  0.00    +0.000 OA
ATOM     27  S   UNL     1       0.580   9.684  20.872  0.00  0.00    +0.000 S 
ATOM     28  O   UNL     1      -0.683   9.070  21.239  0.00  0.00    +0.000 OA
BRANCH  27  29
ATOM     29  C   UNL     1       1.461   8.562  19.796  0.00  0.00    +0.000 A 
ATOM     30  C   UNL     1       1.820   8.956  18.504  0.00  0.00    +0.000 A 
ATOM     31  C   UNL     1       2.589   8.095  17.710  0.00  0.00    +0.000 A 
ATOM     32  C   UNL     1       3.007   6.861  18.212  0.00  0.00    +0.000 A 
ATOM     33  C   UNL     1       2.669   6.485  19.512  0.00  0.00    +0.000 A 
ATOM     34  C   UNL     1       1.903   7.339  20.308  0.00  0.00    +0.000 A 
ENDBRANCH  27  29
ENDBRANCH  24  27
ENDBRANCH   1  24
TORSDOF 4
ENDMDL
MODEL 2
REMARK VINA RESULT:      -8.1      0.512      1.065
REMARK  Name = 
REMARK  4 active torsions:
REMARK  status: ('A' for Active; 'I' for Inactive)
REMARK    1  A    between atoms: S_2  and  N_4
REMARK    2  A    between atoms: S_2  and  C_28
REMARK    3  A    between atoms: N_4  and  C_5
REMARK    4  A    between atoms: C_16  and  N_17
REMARK                            x       y       z     vdW  Elec       q    Type
REMARK                         _______ _______ _______ _____ _____    ______ ____
ROOT
ATOM      1  C   UNL     1      -0.960  11.504  19.784  0.00  0.00    +0.000 A 
ATOM      2  C   UNL     1      -1.298  12.609  20.576  0.00  0.00    +0.000 A 
ATOM      3  C   UNL     1      -2.585  13.126  20.483  0.00  0.00    +0.000 A 
ATOM      4  C   UNL     1      -3.530  12.482  19.713  0.00  0.00    +0.000 A 
ATOM      5  C   UNL     1      -3.155  11.583  18.722  0.00  0.00    +0.000 A 
ATOM      6  C   UNL     1      -4.003  11.262  17.650  0.00  0.00    +0.000 A 
ATOM      7  C   UNL     1      -3.527  10.505  16.580  0.00  0.00    +0.000 A 
ATOM      8  C   UNL     1      -2.244   9.970  16.620  0.00  0.00    +0.000 A 
ATOM      9  C   UNL     1      -1.420  10.216  17.718  0.00  0.00    +0.000 A 
ATOM     10  C   UNL     1      -1.832  11.075  18.756  0.00  0.00    +0.000 A 
ATOM     11  O   UNL     1      -4.812  12.852  20.028  0.00  0.00    +0.000 OA
ATOM     12  C   UNL     1      -4.727  13.772  21.190  0.00  0.00    +0.000 C 
ATOM     13  C   UNL     1      -4.893  12.926  22.510  0.00  0.00    +0.000 C 
ATOM     14  C   UNL     1      -3.596  12.576  23.255  0.00  0.00    +0.000 C 
ATOM     15  C   UNL     1      -2.700  13.784  23.525  0.00  0.00    +0.000 C 
ATOM     16  C   UNL     1      -2.603  14.787  22.383  0.00  0.00    +0.000 C 
ATOM     17  C   UNL     1      -3.262  14.320  21.101  0.00  0.00    +0.000 C 
ENDROOT
BRANCH  12  18
ATOM     18  N   UNL     1      -5.907  14.664  21.099  0.00  0.00    +0.000 NA
ATOM     19  C   UNL     1      -5.784  16.117  21.251  0.00  0.00    +0.000 C 
ATOM     20  C   UNL     1      -5.530  16.850  19.932  0.00  0.00    +0.000 C 
ATOM     21  O   UNL     1      -6.560  16.571  18.980  0.00  0.00    +0.000 OA
ATOM     22  C   UNL     1      -6.676  15.162  18.746  0.00  0.00    +0.000 C 
ATOM     23  C   UNL     1      -6.899  14.377  20.047  0.00  0.00    +0.000 C 
ENDBRANCH  12  18
BRANCH   1  24
ATOM     24  N   UNL     1       0.330  10.913  19.894  0.00  0.00    +0.000 N 
ATOM     25  H   UNL     1       1.155  11.480  19.726  0.00  0.00    +0.000 HD
BRANCH  24  27
ATOM     26  O   UNL     1       1.461  10.081  21.951  0.00  0.00    +0.000 OA
ATOM     27  S   UNL     1       0.604   9.588  20.903  0.00  0.00    +0.000 S 
ATOM     28  O   UNL     1      -0.668   8.957  21.202  0.00  0.00    +0.000 OA
BRANCH  27  29
ATOM     29  C   UNL     1       1.577   8.457  19.919  0.00  0.00    +0.000 A 
ATOM     30  C   UNL     1       1.891   7.185  20.407  0.00  0.00    +0.000 A 
ATOM     31  C   UNL     1       2.577   6.282  19.584  0.00  0.00    +0.000 A 
ATOM     32  C   UNL     1       2.928   6.644  18.282  0.00  0.00    +0.000 A 
ATOM     33  C   UNL     1       2.587   7.905  17.791  0.00  0.00    +0.000 A 
ATOM     34  C   UNL     1       1.904   8.809  18.607  0.00  0.00    +0.000 A 
ENDBRANCH  27  29
ENDBRANCH  24  27
ENDBRANCH   1  24
TORSDOF 4
ENDMDL
MODEL 3
REMARK VINA RESULT:      -8.1      1.350      1.961
REMARK  Name = 
REMARK  4 active torsions:
REMARK  status: ('A' for Active; 'I' for Inactive)
REMARK    1  A    between atoms: S_2  and  N_4
REMARK    2  A    between atoms: S_2  and  C_28
REMARK    3  A    between atoms: N_4  and  C_5
REMARK    4  A    between atoms: C_16  and  N_17
REMARK                            x       y       z     vdW  Elec       q    Type
REMARK                         _______ _______ _______ _____ _____    ______ ____
ROOT
ATOM      1  C   UNL     1      -0.771  11.093  19.617  0.00  0.00    +0.000 A 
ATOM      2  C   UNL     1      -0.946  12.179  20.486  0.00  0.00    +0.000 A 
ATOM      3  C   UNL     1      -2.161  12.854  20.471  0.00  0.00    +0.000 A 
ATOM      4  C   UNL     1      -3.201  12.380  19.699  0.00  0.00    +0.000 A 
ATOM      5  C   UNL     1      -2.969  11.507  18.643  0.00  0.00    +0.000 A 
ATOM      6  C   UNL     1      -3.881  11.362  17.586  0.00  0.00    +0.000 A 
ATOM      7  C   UNL     1      -3.534  10.622  16.456  0.00  0.00    +0.000 A 
ATOM      8  C   UNL     1      -2.327   9.933  16.416  0.00  0.00    +0.000 A 
ATOM      9  C   UNL     1      -1.447  10.006  17.497  0.00  0.00    +0.000 A 
ATOM     10  C   UNL     1      -1.719  10.841  18.598  0.00  0.00    +0.000 A 
ATOM     11  O   UNL     1      -4.417  12.883  20.083  0.00  0.00    +0.000 OA
ATOM     12  C   UNL     1      -4.185  13.710  21.293  0.00  0.00    +0.000 C 
ATOM     13  C   UNL     1      -4.416  12.808  22.566  0.00  0.00    +0.000 C 
ATOM     14  C   UNL     1      -3.151  12.256  23.241  0.00  0.00    +0.000 C 
ATOM     15  C   UNL     1      -2.104  13.326  23.549  0.00  0.00    +0.000 C 
ATOM     16  C   UNL     1      -1.918  14.380  22.467  0.00  0.00    +0.000 C 
ATOM     17  C   UNL     1      -2.666  14.080  21.184  0.00  0.00    +0.000 C 
ENDROOT
BRANCH  12  18
ATOM     18  N   UNL     1      -5.248  14.743  21.300  0.00  0.00    +0.000 NA
ATOM     19  C   UNL     1      -6.019  15.042  22.510  0.00  0.00    +0.000 C 
ATOM     20  C   UNL     1      -5.395  16.138  23.378  0.00  0.00    +0.000 C 
ATOM     21  O   UNL     1      -5.215  17.346  22.634  0.00  0.00    +0.000 OA
ATOM     22  C   UNL     1      -4.410  17.119  21.471  0.00  0.00    +0.000 C 
ATOM     23  C   UNL     1      -4.978  16.003  20.583  0.00  0.00    +0.000 C 
ENDBRANCH  12  18
BRANCH   1  24
ATOM     24  N   UNL     1       0.439  10.344  19.644  0.00  0.00    +0.000 N 
ATOM     25  H   UNL     1       1.286  10.750  19.262  0.00  0.00    +0.000 HD
BRANCH  24  27
ATOM     26  O   UNL     1       1.565   9.800  21.798  0.00  0.00    +0.000 OA
ATOM     27  S   UNL     1       0.714   9.167  20.822  0.00  0.00    +0.000 S 
ATOM     28  O   UNL     1      -0.557   8.576  21.200  0.00  0.00    +0.000 OA
BRANCH  27  29
ATOM     29  C   UNL     1       1.695   7.918  20.002  0.00  0.00    +0.000 A 
ATOM     30  C   UNL     1       1.833   6.646  20.563  0.00  0.00    +0.000 A 
ATOM     31  C   UNL     1       2.531   5.655  19.860  0.00  0.00    +0.000 A 
ATOM     32  C   UNL     1       3.069   5.933  18.601  0.00  0.00    +0.000 A 
ATOM     33  C   UNL     1       2.902   7.196  18.034  0.00  0.00    +0.000 A 
ATOM     34  C   UNL     1       2.208   8.188  18.730  0.00  0.00    +0.000 A 
ENDBRANCH  27  29
ENDBRANCH  24  27
ENDBRANCH   1  24
TORSDOF 4
ENDMDL
MODEL 4
REMARK VINA RESULT:      -8.1      1.092      1.509
REMARK  Name = 
REMARK  4 active torsions:
REMARK  status: ('A' for Active; 'I' for Inactive)
REMARK    1  A    between atoms: S_2  and  N_4
REMARK    2  A    between atoms: S_2  and  C_28
REMARK    3  A    between atoms: N_4  and  C_5
REMARK    4  A    between atoms: C_16  and  N_17
REMARK                            x       y       z     vdW  Elec       q    Type
REMARK                         _______ _______ _______ _____ _____    ______ ____
ROOT
ATOM      1  C   UNL     1      -0.959  11.592  19.940  0.00  0.00    +0.000 A 
ATOM      2  C   UNL     1      -1.297  12.662  20.780  0.00  0.00    +0.000 A 
ATOM      3  C   UNL     1      -2.588  13.175  20.717  0.00  0.00    +0.000 A 
ATOM      4  C   UNL     1      -3.535  12.558  19.928  0.00  0.00    +0.000 A 
ATOM      5  C   UNL     1      -3.163  11.703  18.898  0.00  0.00    +0.000 A 
ATOM      6  C   UNL     1      -4.017  11.422  17.821  0.00  0.00    +0.000 A 
ATOM      7  C   UNL     1      -3.544  10.712  16.716  0.00  0.00    +0.000 A 
ATOM      8  C   UNL     1      -2.258  10.183  16.725  0.00  0.00    +0.000 A 
ATOM      9  C   UNL     1      -1.427  10.388  17.827  0.00  0.00    +0.000 A 
ATOM     10  C   UNL     1      -1.837  11.202  18.902  0.00  0.00    +0.000 A 
ATOM     11  O   UNL     1      -4.816  12.907  20.267  0.00  0.00    +0.000 OA
ATOM     12  C   UNL     1      -4.728  13.779  21.465  0.00  0.00    +0.000 C 
ATOM     13  C   UNL     1      -4.880  12.878  22.751  0.00  0.00    +0.000 C 
ATOM     14  C   UNL     1      -3.575  12.506  23.471  0.00  0.00    +0.000 C 
ATOM     15  C   UNL     1      -2.683  13.707  23.784  0.00  0.00    +0.000 C 
ATOM     16  C   UNL     1      -2.601  14.756  22.685  0.00  0.00    +0.000 C 
ATOM     17  C   UNL     1      -3.267  14.339  21.389  0.00  0.00    +0.000 C 
ENDROOT
BRANCH  12  18
ATOM     18  N   UNL     1      -5.914  14.667  21.420  0.00  0.00    +0.000 NA
ATOM     19  C   UNL     1      -6.629  15.055  22.640  0.00  0.00    +0.000 C 
ATOM     20  C   UNL     1      -6.093  16.337  23.282  0.00  0.00    +0.000 C 
ATOM     21  O   UNL     1      -6.127  17.429  22.360  0.00  0.00    +0.000 OA
ATOM     22  C   UNL     1      -5.385  17.124  21.173  0.00  0.00    +0.000 C 
ATOM     23  C   UNL     1      -5.864  15.825  20.509  0.00  0.00    +0.000 C 
ENDBRANCH  12  18
BRANCH   1  24
ATOM     24  N   UNL     1       0.335  11.005  20.017  0.00  0.00    +0.000 N 
ATOM     25  H   UNL     1       1.156  11.588  19.895  0.00  0.00    +0.000 HD
BRANCH  24  27
ATOM     26  O   UNL     1       1.543  10.014  21.957  0.00  0.00    +0.000 OA
ATOM     27  S   UNL     1       0.613   9.614  20.931  0.00  0.00    +0.000 S 
ATOM     28  O   UNL     1      -0.663   9.009  21.264  0.00  0.00    +0.000 OA
BRANCH  27  29
ATOM     29  C   UNL     1       1.489   8.510  19.831  0.00  0.00    +0.000 A 
ATOM     30  C   UNL     1       1.853   8.931  18.549  0.00  0.00    +0.000 A 
ATOM     31  C   UNL     1       2.618   8.083  17.737  0.00  0.00    +0.000 A 
ATOM     32  C   UNL     1       3.028   6.835  18.212  0.00  0.00    +0.000 A 
ATOM     33  C   UNL     1       2.685   6.433  19.503  0.00  0.00    +0.000 A 
ATOM     34  C   UNL     1       1.923   7.273  20.317  0.00  0.00    +0.000 A 
ENDBRANCH  27  29
ENDBRANCH  24  27
ENDBRANCH   1  24
TORSDOF 4
ENDMDL
MODEL 5
REMARK VINA RESULT:      -8.0      1.092      1.657
REMARK  Name = 
REMARK  4 active torsions:
REMARK  status: ('A' for Active; 'I' for Inactive)
REMARK    1  A    between atoms: S_2  and  N_4
REMARK    2  A    between atoms: S_2  and  C_28
REMARK    3  A    between atoms: N_4  and  C_5
REMARK    4  A    between atoms: C_16  and  N_17
REMARK                            x       y       z     vdW  Elec       q    Type
REMARK                         _______ _______ _______ _____ _____    ______ ____
ROOT
ATOM      1  C   UNL     1      -0.790  11.270  19.815  0.00  0.00    +0.000 A 
ATOM      2  C   UNL     1      -1.019  12.371  20.650  0.00  0.00    +0.000 A 
ATOM      3  C   UNL     1      -2.254  13.005  20.592  0.00  0.00    +0.000 A 
ATOM      4  C   UNL     1      -3.261  12.479  19.813  0.00  0.00    +0.000 A 
ATOM      5  C   UNL     1      -2.980  11.587  18.786  0.00  0.00    +0.000 A 
ATOM      6  C   UNL     1      -3.864  11.384  17.715  0.00  0.00    +0.000 A 
ATOM      7  C   UNL     1      -3.469  10.626  16.612  0.00  0.00    +0.000 A 
ATOM      8  C   UNL     1      -2.240   9.976  16.615  0.00  0.00    +0.000 A 
ATOM      9  C   UNL     1      -1.386  10.106  17.711  0.00  0.00    +0.000 A 
ATOM     10  C   UNL     1      -1.708  10.960  18.784  0.00  0.00    +0.000 A 
ATOM     11  O   UNL     1      -4.501  12.951  20.158  0.00  0.00    +0.000 OA
ATOM     12  C   UNL     1      -4.321  13.817  21.350  0.00  0.00    +0.000 C 
ATOM     13  C   UNL     1      -4.551  12.941  22.642  0.00  0.00    +0.000 C 
ATOM     14  C   UNL     1      -3.284  12.448  23.356  0.00  0.00    +0.000 C 
ATOM     15  C   UNL     1      -2.278  13.560  23.657  0.00  0.00    +0.000 C 
ATOM     16  C   UNL     1      -2.102  14.590  22.551  0.00  0.00    +0.000 C 
ATOM     17  C   UNL     1      -2.813  14.233  21.262  0.00  0.00    +0.000 C 
ENDROOT
BRANCH  12  18
ATOM     18  N   UNL     1      -5.416  14.815  21.307  0.00  0.00    +0.000 NA
ATOM     19  C   UNL     1      -6.721  14.497  20.718  0.00  0.00    +0.000 C 
ATOM     20  C   UNL     1      -7.720  13.918  21.722  0.00  0.00    +0.000 C 
ATOM     21  O   UNL     1      -7.916  14.805  22.826  0.00  0.00    +0.000 OA
ATOM     22  C   UNL     1      -6.675  15.096  23.479  0.00  0.00    +0.000 C 
ATOM     23  C   UNL     1      -5.625  15.650  22.504  0.00  0.00    +0.000 C 
ENDBRANCH  12  18
BRANCH   1  24
ATOM     24  N   UNL     1       0.442  10.561  19.887  0.00  0.00    +0.000 N 
ATOM     25  H   UNL     1       1.300  11.023  19.609  0.00  0.00    +0.000 HD
BRANCH  24  27
ATOM     26  O   UNL     1       1.549   9.839  21.998  0.00  0.00    +0.000 OA
ATOM     27  S   UNL     1       0.666   9.305  20.992  0.00  0.00    +0.000 S 
ATOM     28  O   UNL     1      -0.628   8.752  21.342  0.00  0.00    +0.000 OA
BRANCH  27  29
ATOM     29  C   UNL     1       1.586   8.063  20.094  0.00  0.00    +0.000 A 
ATOM     30  C   UNL     1       1.743   6.779  20.621  0.00  0.00    +0.000 A 
ATOM     31  C   UNL     1       2.389   5.796  19.860  0.00  0.00    +0.000 A 
ATOM     32  C   UNL     1       2.858   6.093  18.579  0.00  0.00    +0.000 A 
ATOM     33  C   UNL     1       2.673   7.369  18.046  0.00  0.00    +0.000 A 
ATOM     34  C   UNL     1       2.030   8.353  18.800  0.00  0.00    +0.000 A 
ENDBRANCH  27  29
ENDBRANCH  24  27
ENDBRANCH   1  24
TORSDOF 4
ENDMDL
MODEL 6
REMARK VINA RESULT:      -7.6      2.060      2.574
REMARK  Name = 
REMARK  4 active torsions:
REMARK  status: ('A' for Active; 'I' for Inactive)
REMARK    1  A    between atoms: S_2  and  N_4
REMARK    2  A    between atoms: S_2  and  C_28
REMARK    3  A    between atoms: N_4  and  C_5
REMARK    4  A    between atoms: C_16  and  N_17
REMARK                            x       y       z     vdW  Elec       q    Type
REMARK                         _______ _______ _______ _____ _____    ______ ____
ROOT
ATOM      1  C   UNL     1      -1.090  12.827  18.944  0.00  0.00    +0.000 A 
ATOM      2  C   UNL     1      -1.421  13.666  20.016  0.00  0.00    +0.000 A 
ATOM      3  C   UNL     1      -2.676  13.537  20.599  0.00  0.00    +0.000 A 
ATOM      4  C   UNL     1      -3.519  12.523  20.198  0.00  0.00    +0.000 A 
ATOM      5  C   UNL     1      -3.339  11.881  18.979  0.00  0.00    +0.000 A 
ATOM      6  C   UNL     1      -4.383  11.195  18.340  0.00  0.00    +0.000 A 
ATOM      7  C   UNL     1      -4.219  10.724  17.036  0.00  0.00    +0.000 A 
ATOM      8  C   UNL     1      -2.985  10.834  16.404  0.00  0.00    +0.000 A 
ATOM      9  C   UNL     1      -1.917  11.443  17.063  0.00  0.00    +0.000 A 
ATOM     10  C   UNL     1      -2.088  12.033  18.330  0.00  0.00    +0.000 A 
ATOM     11  O   UNL     1      -4.515  12.271  21.106  0.00  0.00    +0.000 OA
ATOM     12  C   UNL     1      -4.264  13.144  22.281  0.00  0.00    +0.000 C 
ATOM     13  C   UNL     1      -3.416  12.332  23.334  0.00  0.00    +0.000 C 
ATOM     14  C   UNL     1      -1.907  12.623  23.353  0.00  0.00    +0.000 C 
ATOM     15  C   UNL     1      -1.571  14.111  23.454  0.00  0.00    +0.000 C 
ATOM     16  C   UNL     1      -2.452  15.031  22.621  0.00  0.00    +0.000 C 
ATOM     17  C   UNL     1      -3.390  14.299  21.684  0.00  0.00    +0.000 C 
ENDROOT
BRANCH  12  18
ATOM     18  N   UNL     1      -5.587  13.397  22.899  0.00  0.00    +0.000 NA
ATOM     19  C   UNL     1      -5.815  14.547  23.779  0.00  0.00    +0.000 C 
ATOM     20  C   UNL     1      -6.279  15.803  23.037  0.00  0.00    +0.000 C 
ATOM     21  O   UNL     1      -7.471  15.551  22.290  0.00  0.00    +0.000 OA
ATOM     22  C   UNL     1      -7.280  14.474  21.365  0.00  0.00    +0.000 C 
ATOM     23  C   UNL     1      -6.781  13.197  22.058  0.00  0.00    +0.000 C 
ENDBRANCH  12  18
BRANCH   1  24
ATOM     24  N   UNL     1       0.206  12.891  18.359  0.00  0.00    +0.000 N 
ATOM     25  H   UNL     1       0.406  13.605  17.667  0.00  0.00    +0.000 HD
BRANCH  24  27
ATOM     26  O   UNL     1       2.471  11.875  18.161  0.00  0.00    +0.000 OA
ATOM     27  S   UNL     1       1.569  12.337  19.185  0.00  0.00    +0.000 S 
ATOM     28  O   UNL     1       1.974  13.344  20.148  0.00  0.00    +0.000 OA
BRANCH  27  29
ATOM     29  C   UNL     1       1.009  10.895  20.080  0.00  0.00    +0.000 A 
ATOM     30  C   UNL     1       1.084   9.627  19.496  0.00  0.00    +0.000 A 
ATOM     31  C   UNL     1       0.724   8.501  20.248  0.00  0.00    +0.000 A 
ATOM     32  C   UNL     1       0.310   8.643  21.574  0.00  0.00    +0.000 A 
ATOM     33  C   UNL     1       0.265   9.908  22.160  0.00  0.00    +0.000 A 
ATOM     34  C   UNL     1       0.622  11.035  21.416  0.00  0.00    +0.000 A 
ENDBRANCH  27  29
ENDBRANCH  24  27
ENDBRANCH   1  24
TORSDOF 4
ENDMDL
MODEL 7
REMARK VINA RESULT:      -7.5      2.165      2.793
REMARK  Name = 
REMARK  4 active torsions:
REMARK  status: ('A' for Active; 'I' for Inactive)
REMARK    1  A    between atoms: S_2  and  N_4
REMARK    2  A    between atoms: S_2  and  C_28
REMARK    3  A    between atoms: N_4  and  C_5
REMARK    4  A    between atoms: C_16  and  N_17
REMARK                            x       y       z     vdW  Elec       q    Type
REMARK                         _______ _______ _______ _____ _____    ______ ____
ROOT
ATOM      1  C   UNL     1      -1.008  12.861  18.979  0.00  0.00    +0.000 A 
ATOM      2  C   UNL     1      -1.203  13.887  19.912  0.00  0.00    +0.000 A 
ATOM      3  C   UNL     1      -2.428  13.968  20.566  0.00  0.00    +0.000 A 
ATOM      4  C   UNL     1      -3.373  12.983  20.378  0.00  0.00    +0.000 A 
ATOM      5  C   UNL     1      -3.320  12.140  19.274  0.00  0.00    +0.000 A 
ATOM      6  C   UNL     1      -4.453  11.457  18.806  0.00  0.00    +0.000 A 
ATOM      7  C   UNL     1      -4.408  10.771  17.592  0.00  0.00    +0.000 A 
ATOM      8  C   UNL     1      -3.210  10.666  16.894  0.00  0.00    +0.000 A 
ATOM      9  C   UNL     1      -2.057  11.274  17.392  0.00  0.00    +0.000 A 
ATOM     10  C   UNL     1      -2.103  12.073  18.552  0.00  0.00    +0.000 A 
ATOM     11  O   UNL     1      -4.329  12.971  21.360  0.00  0.00    +0.000 OA
ATOM     12  C   UNL     1      -3.937  13.995  22.361  0.00  0.00    +0.000 C 
ATOM     13  C   UNL     1      -3.096  13.290  23.494  0.00  0.00    +0.000 C 
ATOM     14  C   UNL     1      -1.571  13.442  23.394  0.00  0.00    +0.000 C 
ATOM     15  C   UNL     1      -1.109  14.890  23.232  0.00  0.00    +0.000 C 
ATOM     16  C   UNL     1      -1.960  15.741  22.300  0.00  0.00    +0.000 C 
ATOM     17  C   UNL     1      -3.010  14.956  21.542  0.00  0.00    +0.000 C 
ENDROOT
BRANCH  12  18
ATOM     18  N   UNL     1      -5.196  14.463  22.989  0.00  0.00    +0.000 NA
ATOM     19  C   UNL     1      -6.235  15.144  22.210  0.00  0.00    +0.000 C 
ATOM     20  C   UNL     1      -7.268  14.190  21.605  0.00  0.00    +0.000 C 
ATOM     21  O   UNL     1      -7.894  13.397  22.617  0.00  0.00    +0.000 OA
ATOM     22  C   UNL     1      -6.922  12.659  23.367  0.00  0.00    +0.000 C 
ATOM     23  C   UNL     1      -5.842  13.571  23.968  0.00  0.00    +0.000 C 
ENDBRANCH  12  18
BRANCH   1  24
ATOM     24  N   UNL     1       0.251  12.713  18.332  0.00  0.00    +0.000 N 
ATOM     25  H   UNL     1       0.512  13.359  17.595  0.00  0.00    +0.000 HD
BRANCH  24  27
ATOM     26  O   UNL     1       2.276  11.281  18.100  0.00  0.00    +0.000 OA
ATOM     27  S   UNL     1       1.565  12.008  19.122  0.00  0.00    +0.000 S 
ATOM     28  O   UNL     1       2.226  13.019  19.925  0.00  0.00    +0.000 OA
BRANCH  27  29
ATOM     29  C   UNL     1       0.844  10.797  20.221  0.00  0.00    +0.000 A 
ATOM     30  C   UNL     1       0.901   9.436  19.910  0.00  0.00    +0.000 A 
ATOM     31  C   UNL     1       0.410   8.499  20.828  0.00  0.00    +0.000 A 
ATOM     32  C   UNL     1      -0.115   8.920  22.051  0.00  0.00    +0.000 A 
ATOM     33  C   UNL     1      -0.143  10.278  22.368  0.00  0.00    +0.000 A 
ATOM     34  C   UNL     1       0.345  11.218  21.457  0.00  0.00    +0.000 A 
ENDBRANCH  27  29
ENDBRANCH  24  27
ENDBRANCH   1  24
TORSDOF 4
ENDMDL
MODEL 8
REMARK VINA RESULT:      -7.4      2.796      3.503
REMARK  Name = 
REMARK  4 active torsions:
REMARK  status: ('A' for Active; 'I' for Inactive)
REMARK    1  A    between atoms: S_2  and  N_4
REMARK    2  A    between atoms: S_2  and  C_28
REMARK    3  A    between atoms: N_4  and  C_5
REMARK    4  A    between atoms: C_16  and  N_17
REMARK                            x       y       z     vdW  Elec       q    Type
REMARK                         _______ _______ _______ _____ _____    ______ ____
ROOT
ATOM      1  C   UNL     1      -1.290  12.123  18.712  0.00  0.00    +0.000 A 
ATOM      2  C   UNL     1      -1.245  13.015  19.791  0.00  0.00    +0.000 A 
ATOM      3  C   UNL     1      -2.422  13.292  20.476  0.00  0.00    +0.000 A 
ATOM      4  C   UNL     1      -3.576  12.605  20.164  0.00  0.00    +0.000 A 
ATOM      5  C   UNL     1      -3.712  11.949  18.947  0.00  0.00    +0.000 A 
ATOM      6  C   UNL     1      -4.970  11.640  18.407  0.00  0.00    +0.000 A 
ATOM      7  C   UNL     1      -5.074  11.152  17.103  0.00  0.00    +0.000 A 
ATOM      8  C   UNL     1      -3.927  10.865  16.372  0.00  0.00    +0.000 A 
ATOM      9  C   UNL     1      -2.669  11.094  16.930  0.00  0.00    +0.000 A 
ATOM     10  C   UNL     1      -2.537  11.697  18.196  0.00  0.00    +0.000 A 
ATOM     11  O   UNL     1      -4.521  12.679  21.154  0.00  0.00    +0.000 OA
ATOM     12  C   UNL     1      -3.908  13.416  22.288  0.00  0.00    +0.000 C 
ATOM     13  C   UNL     1      -3.280  12.367  23.284  0.00  0.00    +0.000 C 
ATOM     14  C   UNL     1      -1.762  12.158  23.176  0.00  0.00    +0.000 C 
ATOM     15  C   UNL     1      -0.960  13.458  23.221  0.00  0.00    +0.000 C 
ATOM     16  C   UNL     1      -1.564  14.619  22.444  0.00  0.00    +0.000 C 
ATOM     17  C   UNL     1      -2.762  14.234  21.601  0.00  0.00    +0.000 C 
ENDROOT
BRANCH  12  18
ATOM     18  N   UNL     1      -5.024  14.076  23.005  0.00  0.00    +0.000 NA
ATOM     19  C   UNL     1      -5.944  14.989  22.319  0.00  0.00    +0.000 C 
ATOM     20  C   UNL     1      -7.167  14.288  21.721  0.00  0.00    +0.000 C 
ATOM     21  O   UNL     1      -7.891  13.570  22.722  0.00  0.00    +0.000 OA
ATOM     22  C   UNL     1      -7.050  12.615  23.380  0.00  0.00    +0.000 C 
ATOM     23  C   UNL     1      -5.789  13.265  23.969  0.00  0.00    +0.000 C 
ENDBRANCH  12  18
BRANCH   1  24
ATOM     24  N   UNL     1      -0.095  11.773  18.023  0.00  0.00    +0.000 N 
ATOM     25  H   UNL     1       0.083  12.162  17.103  0.00  0.00    +0.000 HD
BRANCH  24  27
ATOM     26  O   UNL     1       0.833  10.720  20.081  0.00  0.00    +0.000 OA
ATOM     27  S   UNL     1       1.301  11.328  18.861  0.00  0.00    +0.000 S 
ATOM     28  O   UNL     1       2.184  10.617  17.955  0.00  0.00    +0.000 OA
BRANCH  27  29
ATOM     29  C   UNL     1       2.079  12.873  19.311  0.00  0.00    +0.000 A 
ATOM     30  C   UNL     1       2.440  13.796  18.326  0.00  0.00    +0.000 A 
ATOM     31  C   UNL     1       2.965  15.038  18.706  0.00  0.00    +0.000 A 
ATOM     32  C   UNL     1       3.109  15.357  20.058  0.00  0.00    +0.000 A 
ATOM     33  C   UNL     1       2.720  14.443  21.036  0.00  0.00    +0.000 A 
ATOM     34  C   UNL     1       2.196  13.203  20.664  0.00  0.00    +0.000 A 
ENDBRANCH  27  29
ENDBRANCH  24  27
ENDBRANCH   1  24
TORSDOF 4
ENDMDL
MODEL 9
REMARK VINA RESULT:      -7.4      3.084      7.757
REMARK  Name = 
REMARK  4 active torsions:
REMARK  status: ('A' for Active; 'I' for Inactive)
REMARK    1  A    between atoms: S_2  and  N_4
REMARK    2  A    between atoms: S_2  and  C_28
REMARK    3  A    between atoms: N_4  and  C_5
REMARK    4  A    between atoms: C_16  and  N_17
REMARK                            x       y       z     vdW  Elec       q    Type
REMARK                         _______ _______ _______ _____ _____    ______ ____
ROOT
ATOM      1  C   UNL     1      -3.504  12.789  22.606  0.00  0.00    +0.000 A 
ATOM      2  C   UNL     1      -2.926  12.554  21.351  0.00  0.00    +0.000 A 
ATOM      3  C   UNL     1      -1.609  12.945  21.141  0.00  0.00    +0.000 A 
ATOM      4  C   UNL     1      -0.864  13.442  22.189  0.00  0.00    +0.000 A 
ATOM      5  C   UNL     1      -1.478  13.941  23.331  0.00  0.00    +0.000 A 
ATOM      6  C   UNL     1      -0.829  14.839  24.192  0.00  0.00    +0.000 A 
ATOM      7  C   UNL     1      -1.536  15.461  25.221  0.00  0.00    +0.000 A 
ATOM      8  C   UNL     1      -2.859  15.112  25.470  0.00  0.00    +0.000 A 
ATOM      9  C   UNL     1      -3.490  14.160  24.669  0.00  0.00    +0.000 A 
ATOM     10  C   UNL     1      -2.838  13.605  23.551  0.00  0.00    +0.000 A 
ATOM     11  O   UNL     1       0.485  13.401  21.947  0.00  0.00    +0.000 OA
ATOM     12  C   UNL     1       0.673  12.724  20.640  0.00  0.00    +0.000 C 
ATOM     13  C   UNL     1       0.907  11.187  20.902  0.00  0.00    +0.000 C 
ATOM     14  C   UNL     1      -0.312  10.274  20.699  0.00  0.00    +0.000 C 
ATOM     15  C   UNL     1      -1.005  10.468  19.351  0.00  0.00    +0.000 C 
ATOM     16  C   UNL     1      -1.127  11.913  18.888  0.00  0.00    +0.000 C 
ATOM     17  C   UNL     1      -0.710  12.928  19.932  0.00  0.00    +0.000 C 
ENDROOT
BRANCH  12  18
ATOM     18  N   UNL     1       1.933  13.260  20.073  0.00  0.00    +0.000 NA
ATOM     19  C   UNL     1       1.977  13.866  18.738  0.00  0.00    +0.000 C 
ATOM     20  C   UNL     1       1.713  15.374  18.742  0.00  0.00    +0.000 C 
ATOM     21  O   UNL     1       2.638  16.058  19.590  0.00  0.00    +0.000 OA
ATOM     22  C   UNL     1       2.587  15.545  20.927  0.00  0.00    +0.000 C 
ATOM     23  C   UNL     1       2.813  14.027  20.973  0.00  0.00    +0.000 C 
ENDBRANCH  12  18
BRANCH   1  24
ATOM     24  N   UNL     1      -4.831  12.353  22.875  0.00  0.00    +0.000 N 
ATOM     25  H   UNL     1      -5.038  11.901  23.759  0.00  0.00    +0.000 HD
BRANCH  24  27
ATOM     26  O   UNL     1      -7.307  12.623  22.893  0.00  0.00    +0.000 OA
ATOM     27  S   UNL     1      -6.163  13.105  22.161  0.00  0.00    +0.000 S 
ATOM     28  O   UNL     1      -5.889  14.524  22.039  0.00  0.00    +0.000 OA
BRANCH  27  29
ATOM     29  C   UNL     1      -6.259  12.405  20.519  0.00  0.00    +0.000 A 
ATOM     30  C   UNL     1      -6.831  11.146  20.319  0.00  0.00    +0.000 A 
ATOM     31  C   UNL     1      -6.978  10.657  19.014  0.00  0.00    +0.000 A 
ATOM     32  C   UNL     1      -6.572  11.428  17.923  0.00  0.00    +0.000 A 
ATOM     33  C   UNL     1      -6.029  12.696  18.128  0.00  0.00    +0.000 A 
ATOM     34  C   UNL     1      -5.879  13.190  19.426  0.00  0.00    +0.000 A 
ENDBRANCH  27  29
ENDBRANCH  24  27
ENDBRANCH   1  24
TORSDOF 4
ENDMDL
