MODEL 1
REMARK VINA RESULT:      -6.4      0.000      0.000
REMARK  Name = 
REMARK  12 active torsions:
REMARK  status: ('A' for Active; 'I' for Inactive)
REMARK    1  A    between atoms: C_1  and  C_2
REMARK    2  A    between atoms: C_2  and  C_3
REMARK    3  A    between atoms: C_3  and  C_4
REMARK    4  A    between atoms: C_4  and  C_5
REMARK    5  A    between atoms: C_5  and  C_6
REMARK    6  A    between atoms: C_6  and  C_7
REMARK    7  A    between atoms: C_7  and  C_8
REMARK    8  A    between atoms: C_8  and  C_9
REMARK    9  A    between atoms: C_9  and  C_10
REMARK   10  A    between atoms: C_10  and  N_11
REMARK   11  A    between atoms: C_15  and  S_16
REMARK   12  A    between atoms: S_16  and  C_17
REMARK                            x       y       z     vdW  Elec       q    Type
REMARK                         _______ _______ _______ _____ _____    ______ ____
ROOT
ATOM      1  N   UNL     1       1.769   8.496  19.289  0.00  0.00    +0.000 N 
ATOM      2  C   UNL     1       1.809   9.208  18.117  0.00  0.00    +0.000 A 
ATOM      3  N   UNL     1       1.173  10.355  18.215  0.00  0.00    +0.000 NA
ATOM      4  C   UNL     1       0.668  10.370  19.504  0.00  0.00    +0.000 A 
ATOM      5  C   UNL     1      -0.112  11.284  20.220  0.00  0.00    +0.000 A 
ATOM      6  N   UNL     1      -0.459  11.003  21.503  0.00  0.00    +0.000 NA
ATOM      7  C   UNL     1      -0.008   9.853  22.041  0.00  0.00    +0.000 A 
ATOM      8  N   UNL     1       0.748   8.900  21.460  0.00  0.00    +0.000 NA
ATOM      9  C   UNL     1       1.041   9.224  20.189  0.00  0.00    +0.000 A 
ENDROOT
BRANCH   1  10
ATOM     10  C   UNL     1       2.382   7.206  19.517  0.00  0.00    +0.000 C 
BRANCH  10  11
ATOM     11  C   UNL     1       2.484   6.390  18.230  0.00  0.00    +0.000 C 
BRANCH  11  12
ATOM     12  C   UNL     1       3.909   5.892  17.997  0.00  0.00    +0.000 C 
BRANCH  12  13
ATOM     13  C   UNL     1       3.940   4.371  17.865  0.00  0.00    +0.000 C 
BRANCH  13  14
ATOM     14  C   UNL     1       2.565   3.820  17.494  0.00  0.00    +0.000 C 
BRANCH  14  15
ATOM     15  C   UNL     1       2.507   2.311  17.713  0.00  0.00    +0.000 C 
BRANCH  15  16
ATOM     16  C   UNL     1       1.457   1.948  18.760  0.00  0.00    +0.000 C 
BRANCH  16  17
ATOM     17  C   UNL     1       0.881   3.203  19.411  0.00  0.00    +0.000 C 
BRANCH  17  19
ATOM     18  C   UNL     1       2.390   3.970  21.267  0.00  0.00    +0.000 C 
ATOM     19  C   UNL     1       1.125   3.204  20.918  0.00  0.00    +0.000 C 
ENDBRANCH  17  19
ENDBRANCH  16  17
ENDBRANCH  15  16
ENDBRANCH  14  15
ENDBRANCH  13  14
ENDBRANCH  12  13
ENDBRANCH  11  12
ENDBRANCH  10  11
ENDBRANCH   1  10
BRANCH   5  20
ATOM     20  S   UNL     1      -0.720  12.741  19.428  0.00  0.00    +0.000 S 
BRANCH  20  21
ATOM     21  C   UNL     1      -1.840  11.998  18.354  0.00  0.00    +0.000 A 
ATOM     22  N   UNL     1      -3.022  11.508  18.637  0.00  0.00    +0.000 NA
ATOM     23  C   UNL     1      -3.464  11.073  17.420  0.00  0.00    +0.000 A 
ATOM     24  N   UNL     1      -2.604  11.231  16.405  0.00  0.00    +0.000 NA
ATOM     25  N   UNL     1      -1.563  11.811  17.035  0.00  0.00    +0.000 N 
ATOM     26  H   UNL     1      -0.728  12.063  16.517  0.00  0.00    +0.000 HD
ENDBRANCH  20  21
ENDBRANCH   5  20
TORSDOF 11
ENDMDL
MODEL 2
REMARK VINA RESULT:      -6.3      6.687      9.958
REMARK  Name = 
REMARK  12 active torsions:
REMARK  status: ('A' for Active; 'I' for Inactive)
REMARK    1  A    between atoms: C_1  and  C_2
REMARK    2  A    between atoms: C_2  and  C_3
REMARK    3  A    between atoms: C_3  and  C_4
REMARK    4  A    between atoms: C_4  and  C_5
REMARK    5  A    between atoms: C_5  and  C_6
REMARK    6  A    between atoms: C_6  and  C_7
REMARK    7  A    between atoms: C_7  and  C_8
REMARK    8  A    between atoms: C_8  and  C_9
REMARK    9  A    between atoms: C_9  and  C_10
REMARK   10  A    between atoms: C_10  and  N_11
REMARK   11  A    between atoms: C_15  and  S_16
REMARK   12  A    between atoms: S_16  and  C_17
REMARK                            x       y       z     vdW  Elec       q    Type
REMARK                         _______ _______ _______ _____ _____    ______ ____
ROOT
ATOM      1  N   UNL     1       6.769   6.361  18.124  0.00  0.00    +0.000 N 
ATOM      2  C   UNL     1       7.256   5.891  19.317  0.00  0.00    +0.000 A 
ATOM      3  N   UNL     1       6.657   4.783  19.693  0.00  0.00    +0.000 NA
ATOM      4  C   UNL     1       5.711   4.542  18.711  0.00  0.00    +0.000 A 
ATOM      5  C   UNL     1       4.743   3.548  18.532  0.00  0.00    +0.000 A 
ATOM      6  N   UNL     1       3.939   3.591  17.438  0.00  0.00    +0.000 NA
ATOM      7  C   UNL     1       4.131   4.588  16.551  0.00  0.00    +0.000 A 
ATOM      8  N   UNL     1       5.026   5.594  16.610  0.00  0.00    +0.000 NA
ATOM      9  C   UNL     1       5.777   5.511  17.721  0.00  0.00    +0.000 A 
ENDROOT
BRANCH   1  10
ATOM     10  C   UNL     1       7.222   7.547  17.432  0.00  0.00    +0.000 C 
BRANCH  10  11
ATOM     11  C   UNL     1       8.309   8.280  18.214  0.00  0.00    +0.000 C 
BRANCH  11  12
ATOM     12  C   UNL     1       8.230   9.790  17.998  0.00  0.00    +0.000 C 
BRANCH  12  13
ATOM     13  C   UNL     1       9.489  10.482  18.518  0.00  0.00    +0.000 C 
BRANCH  13  14
ATOM     14  C   UNL     1       9.379  10.779  20.011  0.00  0.00    +0.000 C 
BRANCH  14  15
ATOM     15  C   UNL     1      10.423  11.807  20.439  0.00  0.00    +0.000 C 
BRANCH  15  16
ATOM     16  C   UNL     1      11.708  11.655  19.629  0.00  0.00    +0.000 C 
BRANCH  16  17
ATOM     17  C   UNL     1      12.333  13.017  19.338  0.00  0.00    +0.000 C 
BRANCH  17  19
ATOM     18  C   UNL     1      11.065  14.996  18.450  0.00  0.00    +0.000 C 
ATOM     19  C   UNL     1      11.368  14.151  19.677  0.00  0.00    +0.000 C 
ENDBRANCH  17  19
ENDBRANCH  16  17
ENDBRANCH  15  16
ENDBRANCH  14  15
ENDBRANCH  13  14
ENDBRANCH  12  13
ENDBRANCH  11  12
ENDBRANCH  10  11
ENDBRANCH   1  10
BRANCH   5  20
ATOM     20  S   UNL     1       4.506   2.309  19.768  0.00  0.00    +0.000 S 
BRANCH  20  21
ATOM     21  C   UNL     1       2.876   2.670  20.181  0.00  0.00    +0.000 A 
ATOM     22  N   UNL     1       2.411   3.084  21.334  0.00  0.00    +0.000 NA
ATOM     23  C   UNL     1       1.075   3.225  21.084  0.00  0.00    +0.000 A 
ATOM     24  N   UNL     1       0.681   2.881  19.851  0.00  0.00    +0.000 NA
ATOM     25  N   UNL     1       1.853   2.512  19.297  0.00  0.00    +0.000 N 
ATOM     26  H   UNL     1       1.886   2.192  18.335  0.00  0.00    +0.000 HD
ENDBRANCH  20  21
ENDBRANCH   5  20
TORSDOF 11
ENDMDL
MODEL 3
REMARK VINA RESULT:      -6.3      1.046      1.200
REMARK  Name = 
REMARK  12 active torsions:
REMARK  status: ('A' for Active; 'I' for Inactive)
REMARK    1  A    between atoms: C_1  and  C_2
REMARK    2  A    between atoms: C_2  and  C_3
REMARK    3  A    between atoms: C_3  and  C_4
REMARK    4  A    between atoms: C_4  and  C_5
REMARK    5  A    between atoms: C_5  and  C_6
REMARK    6  A    between atoms: C_6  and  C_7
REMARK    7  A    between atoms: C_7  and  C_8
REMARK    8  A    between atoms: C_8  and  C_9
REMARK    9  A    between atoms: C_9  and  C_10
REMARK   10  A    between atoms: C_10  and  N_11
REMARK   11  A    between atoms: C_15  and  S_16
REMARK   12  A    between atoms: S_16  and  C_17
REMARK                            x       y       z     vdW  Elec       q    Type
REMARK                         _______ _______ _______ _____ _____    ______ ____
ROOT
ATOM      1  N   UNL     1       2.539   7.637  18.669  0.00  0.00    +0.000 N 
ATOM      2  C   UNL     1       2.560   8.420  17.544  0.00  0.00    +0.000 A 
ATOM      3  N   UNL     1       1.861   9.523  17.696  0.00  0.00    +0.000 NA
ATOM      4  C   UNL     1       1.332   9.433  18.972  0.00  0.00    +0.000 A 
ATOM      5  C   UNL     1       0.490  10.258  19.725  0.00  0.00    +0.000 A 
ATOM      6  N   UNL     1       0.136   9.880  20.981  0.00  0.00    +0.000 NA
ATOM      7  C   UNL     1       0.639   8.725  21.459  0.00  0.00    +0.000 A 
ATOM      8  N   UNL     1       1.457   7.852  20.838  0.00  0.00    +0.000 NA
ATOM      9  C   UNL     1       1.755   8.268  19.596  0.00  0.00    +0.000 A 
ENDROOT
BRANCH   1  10
ATOM     10  C   UNL     1       3.217   6.370  18.833  0.00  0.00    +0.000 C 
BRANCH  10  11
ATOM     11  C   UNL     1       4.411   6.240  17.891  0.00  0.00    +0.000 C 
BRANCH  11  12
ATOM     12  C   UNL     1       5.152   4.921  18.108  0.00  0.00    +0.000 C 
BRANCH  12  13
ATOM     13  C   UNL     1       4.518   3.799  17.288  0.00  0.00    +0.000 C 
BRANCH  13  14
ATOM     14  C   UNL     1       3.735   2.838  18.178  0.00  0.00    +0.000 C 
BRANCH  14  15
ATOM     15  C   UNL     1       2.351   2.564  17.596  0.00  0.00    +0.000 C 
BRANCH  15  16
ATOM     16  C   UNL     1       1.392   2.059  18.672  0.00  0.00    +0.000 C 
BRANCH  16  17
ATOM     17  C   UNL     1       0.887   3.213  19.535  0.00  0.00    +0.000 C 
BRANCH  17  19
ATOM     18  C   UNL     1       2.256   3.982  21.496  0.00  0.00    +0.000 C 
ATOM     19  C   UNL     1       1.217   2.986  21.008  0.00  0.00    +0.000 C 
ENDBRANCH  17  19
ENDBRANCH  16  17
ENDBRANCH  15  16
ENDBRANCH  14  15
ENDBRANCH  13  14
ENDBRANCH  12  13
ENDBRANCH  11  12
ENDBRANCH  10  11
ENDBRANCH   1  10
BRANCH   5  20
ATOM     20  S   UNL     1      -0.183  11.725  19.008  0.00  0.00    +0.000 S 
BRANCH  20  21
ATOM     21  C   UNL     1      -1.526  11.020  18.197  0.00  0.00    +0.000 A 
ATOM     22  N   UNL     1      -2.798  11.150  18.483  0.00  0.00    +0.000 NA
ATOM     23  C   UNL     1      -3.400  10.400  17.512  0.00  0.00    +0.000 A 
ATOM     24  N   UNL     1      -2.568   9.780  16.665  0.00  0.00    +0.000 NA
ATOM     25  N   UNL     1      -1.371  10.180  17.137  0.00  0.00    +0.000 N 
ATOM     26  H   UNL     1      -0.516   9.869  16.690  0.00  0.00    +0.000 HD
ENDBRANCH  20  21
ENDBRANCH   5  20
TORSDOF 11
ENDMDL
MODEL 4
REMARK VINA RESULT:      -6.2      6.233      9.514
REMARK  Name = 
REMARK  12 active torsions:
REMARK  status: ('A' for Active; 'I' for Inactive)
REMARK    1  A    between atoms: C_1  and  C_2
REMARK    2  A    between atoms: C_2  and  C_3
REMARK    3  A    between atoms: C_3  and  C_4
REMARK    4  A    between atoms: C_4  and  C_5
REMARK    5  A    between atoms: C_5  and  C_6
REMARK    6  A    between atoms: C_6  and  C_7
REMARK    7  A    between atoms: C_7  and  C_8
REMARK    8  A    between atoms: C_8  and  C_9
REMARK    9  A    between atoms: C_9  and  C_10
REMARK   10  A    between atoms: C_10  and  N_11
REMARK   11  A    between atoms: C_15  and  S_16
REMARK   12  A    between atoms: S_16  and  C_17
REMARK                            x       y       z     vdW  Elec       q    Type
REMARK                         _______ _______ _______ _____ _____    ______ ____
ROOT
ATOM      1  N   UNL     1       5.957   5.775  16.721  0.00  0.00    +0.000 N 
ATOM      2  C   UNL     1       6.213   4.452  16.465  0.00  0.00    +0.000 A 
ATOM      3  N   UNL     1       5.192   3.683  16.774  0.00  0.00    +0.000 NA
ATOM      4  C   UNL     1       4.241   4.547  17.288  0.00  0.00    +0.000 A 
ATOM      5  C   UNL     1       2.958   4.363  17.813  0.00  0.00    +0.000 A 
ATOM      6  N   UNL     1       2.257   5.440  18.253  0.00  0.00    +0.000 NA
ATOM      7  C   UNL     1       2.828   6.655  18.139  0.00  0.00    +0.000 A 
ATOM      8  N   UNL     1       4.046   6.961  17.651  0.00  0.00    +0.000 NA
ATOM      9  C   UNL     1       4.698   5.856  17.251  0.00  0.00    +0.000 A 
ENDROOT
BRANCH   1  10
ATOM     10  C   UNL     1       6.864   6.875  16.481  0.00  0.00    +0.000 C 
BRANCH  10  11
ATOM     11  C   UNL     1       7.554   7.333  17.764  0.00  0.00    +0.000 C 
BRANCH  11  12
ATOM     12  C   UNL     1       7.935   8.811  17.696  0.00  0.00    +0.000 C 
BRANCH  12  13
ATOM     13  C   UNL     1       8.900   9.177  18.822  0.00  0.00    +0.000 C 
BRANCH  13  14
ATOM     14  C   UNL     1       9.101  10.688  18.908  0.00  0.00    +0.000 C 
BRANCH  14  15
ATOM     15  C   UNL     1      10.585  11.034  18.988  0.00  0.00    +0.000 C 
BRANCH  15  16
ATOM     16  C   UNL     1      10.841  12.121  20.030  0.00  0.00    +0.000 C 
BRANCH  16  17
ATOM     17  C   UNL     1      11.129  13.461  19.358  0.00  0.00    +0.000 C 
BRANCH  17  19
ATOM     18  C   UNL     1      11.298  14.444  17.052  0.00  0.00    +0.000 C 
ATOM     19  C   UNL     1      11.660  13.265  17.940  0.00  0.00    +0.000 C 
ENDBRANCH  17  19
ENDBRANCH  16  17
ENDBRANCH  15  16
ENDBRANCH  14  15
ENDBRANCH  13  14
ENDBRANCH  12  13
ENDBRANCH  11  12
ENDBRANCH  10  11
ENDBRANCH   1  10
BRANCH   5  20
ATOM     20  S   UNL     1       2.300   2.733  17.991  0.00  0.00    +0.000 S 
BRANCH  20  21
ATOM     21  C   UNL     1       2.081   2.732  19.698  0.00  0.00    +0.000 A 
ATOM     22  N   UNL     1       0.959   2.848  20.364  0.00  0.00    +0.000 NA
ATOM     23  C   UNL     1       1.374   2.762  21.664  0.00  0.00    +0.000 A 
ATOM     24  N   UNL     1       2.696   2.640  21.838  0.00  0.00    +0.000 NA
ATOM     25  N   UNL     1       3.128   2.641  20.562  0.00  0.00    +0.000 N 
ATOM     26  H   UNL     1       4.118   2.559  20.357  0.00  0.00    +0.000 HD
ENDBRANCH  20  21
ENDBRANCH   5  20
TORSDOF 11
ENDMDL
MODEL 5
REMARK VINA RESULT:      -6.2      5.215      7.932
REMARK  Name = 
REMARK  12 active torsions:
REMARK  status: ('A' for Active; 'I' for Inactive)
REMARK    1  A    between atoms: C_1  and  C_2
REMARK    2  A    between atoms: C_2  and  C_3
REMARK    3  A    between atoms: C_3  and  C_4
REMARK    4  A    between atoms: C_4  and  C_5
REMARK    5  A    between atoms: C_5  and  C_6
REMARK    6  A    between atoms: C_6  and  C_7
REMARK    7  A    between atoms: C_7  and  C_8
REMARK    8  A    between atoms: C_8  and  C_9
REMARK    9  A    between atoms: C_9  and  C_10
REMARK   10  A    between atoms: C_10  and  N_11
REMARK   11  A    between atoms: C_15  and  S_16
REMARK   12  A    between atoms: S_16  and  C_17
REMARK                            x       y       z     vdW  Elec       q    Type
REMARK                         _______ _______ _______ _____ _____    ______ ____
ROOT
ATOM      1  N   UNL     1       3.988   2.950  18.854  0.00  0.00    +0.000 N 
ATOM      2  C   UNL     1       3.287   2.951  17.675  0.00  0.00    +0.000 A 
ATOM      3  N   UNL     1       3.710   3.883  16.850  0.00  0.00    +0.000 NA
ATOM      4  C   UNL     1       4.712   4.540  17.543  0.00  0.00    +0.000 A 
ATOM      5  C   UNL     1       5.536   5.629  17.239  0.00  0.00    +0.000 A 
ATOM      6  N   UNL     1       6.444   6.054  18.156  0.00  0.00    +0.000 NA
ATOM      7  C   UNL     1       6.527   5.382  19.321  0.00  0.00    +0.000 A 
ATOM      8  N   UNL     1       5.797   4.324  19.727  0.00  0.00    +0.000 NA
ATOM      9  C   UNL     1       4.905   3.963  18.789  0.00  0.00    +0.000 A 
ENDROOT
BRANCH   1  10
ATOM     10  C   UNL     1       3.781   2.045  19.962  0.00  0.00    +0.000 C 
BRANCH  10  11
ATOM     11  C   UNL     1       2.931   2.678  21.061  0.00  0.00    +0.000 C 
BRANCH  11  12
ATOM     12  C   UNL     1       1.455   2.724  20.669  0.00  0.00    +0.000 C 
BRANCH  12  13
ATOM     13  C   UNL     1       1.039   4.141  20.281  0.00  0.00    +0.000 C 
BRANCH  13  14
ATOM     14  C   UNL     1       1.808   5.184  21.087  0.00  0.00    +0.000 C 
BRANCH  14  15
ATOM     15  C   UNL     1       1.754   6.547  20.404  0.00  0.00    +0.000 C 
BRANCH  15  16
ATOM     16  C   UNL     1       2.708   6.604  19.214  0.00  0.00    +0.000 C 
BRANCH  16  17
ATOM     17  C   UNL     1       2.232   7.624  18.183  0.00  0.00    +0.000 C 
BRANCH  17  19
ATOM     18  C   UNL     1       1.780  10.092  18.046  0.00  0.00    +0.000 C 
ATOM     19  C   UNL     1       1.570   8.823  18.857  0.00  0.00    +0.000 C 
ENDBRANCH  17  19
ENDBRANCH  16  17
ENDBRANCH  15  16
ENDBRANCH  14  15
ENDBRANCH  13  14
ENDBRANCH  12  13
ENDBRANCH  11  12
ENDBRANCH  10  11
ENDBRANCH   1  10
BRANCH   5  20
ATOM     20  S   UNL     1       5.326   6.501  15.717  0.00  0.00    +0.000 S 
BRANCH  20  21
ATOM     21  C   UNL     1       6.068   5.360  14.665  0.00  0.00    +0.000 A 
ATOM     22  N   UNL     1       7.311   5.339  14.250  0.00  0.00    +0.000 NA
ATOM     23  C   UNL     1       7.344   4.219  13.468  0.00  0.00    +0.000 A 
ATOM     24  N   UNL     1       6.180   3.568  13.344  0.00  0.00    +0.000 NA
ATOM     25  N   UNL     1       5.374   4.331  14.108  0.00  0.00    +0.000 N 
ATOM     26  H   UNL     1       4.395   4.088  14.220  0.00  0.00    +0.000 HD
ENDBRANCH  20  21
ENDBRANCH   5  20
TORSDOF 11
ENDMDL
MODEL 6
REMARK VINA RESULT:      -6.1      6.814     10.106
REMARK  Name = 
REMARK  12 active torsions:
REMARK  status: ('A' for Active; 'I' for Inactive)
REMARK    1  A    between atoms: C_1  and  C_2
REMARK    2  A    between atoms: C_2  and  C_3
REMARK    3  A    between atoms: C_3  and  C_4
REMARK    4  A    between atoms: C_4  and  C_5
REMARK    5  A    between atoms: C_5  and  C_6
REMARK    6  A    between atoms: C_6  and  C_7
REMARK    7  A    between atoms: C_7  and  C_8
REMARK    8  A    between atoms: C_8  and  C_9
REMARK    9  A    between atoms: C_9  and  C_10
REMARK   10  A    between atoms: C_10  and  N_11
REMARK   11  A    between atoms: C_15  and  S_16
REMARK   12  A    between atoms: S_16  and  C_17
REMARK                            x       y       z     vdW  Elec       q    Type
REMARK                         _______ _______ _______ _____ _____    ______ ____
ROOT
ATOM      1  N   UNL     1       7.074   6.549  17.857  0.00  0.00    +0.000 N 
ATOM      2  C   UNL     1       7.828   5.504  18.324  0.00  0.00    +0.000 A 
ATOM      3  N   UNL     1       7.087   4.468  18.653  0.00  0.00    +0.000 NA
ATOM      4  C   UNL     1       5.785   4.877  18.419  0.00  0.00    +0.000 A 
ATOM      5  C   UNL     1       4.540   4.263  18.587  0.00  0.00    +0.000 A 
ATOM      6  N   UNL     1       3.411   4.946  18.264  0.00  0.00    +0.000 NA
ATOM      7  C   UNL     1       3.547   6.191  17.767  0.00  0.00    +0.000 A 
ATOM      8  N   UNL     1       4.682   6.885  17.557  0.00  0.00    +0.000 NA
ATOM      9  C   UNL     1       5.761   6.168  17.912  0.00  0.00    +0.000 A 
ENDROOT
BRANCH   1  10
ATOM     10  C   UNL     1       7.583   7.824  17.402  0.00  0.00    +0.000 C 
BRANCH  10  11
ATOM     11  C   UNL     1       8.391   8.533  18.486  0.00  0.00    +0.000 C 
BRANCH  11  12
ATOM     12  C   UNL     1       8.682   9.984  18.106  0.00  0.00    +0.000 C 
BRANCH  12  13
ATOM     13  C   UNL     1       9.276  10.747  19.288  0.00  0.00    +0.000 C 
BRANCH  13  14
ATOM     14  C   UNL     1      10.746  11.082  19.047  0.00  0.00    +0.000 C 
BRANCH  14  15
ATOM     15  C   UNL     1      10.896  12.069  17.892  0.00  0.00    +0.000 C 
BRANCH  15  16
ATOM     16  C   UNL     1      12.031  13.055  18.157  0.00  0.00    +0.000 C 
BRANCH  16  17
ATOM     17  C   UNL     1      11.493  14.477  18.301  0.00  0.00    +0.000 C 
BRANCH  17  19
ATOM     18  C   UNL     1      10.603  16.487  17.085  0.00  0.00    +0.000 C 
ATOM     19  C   UNL     1      11.192  15.094  16.937  0.00  0.00    +0.000 C 
ENDBRANCH  17  19
ENDBRANCH  16  17
ENDBRANCH  15  16
ENDBRANCH  14  15
ENDBRANCH  13  14
ENDBRANCH  12  13
ENDBRANCH  11  12
ENDBRANCH  10  11
ENDBRANCH   1  10
BRANCH   5  20
ATOM     20  S   UNL     1       4.436   2.652  19.304  0.00  0.00    +0.000 S 
BRANCH  20  21
ATOM     21  C   UNL     1       2.892   2.803  20.048  0.00  0.00    +0.000 A 
ATOM     22  N   UNL     1       2.619   2.865  21.328  0.00  0.00    +0.000 NA
ATOM     23  C   UNL     1       1.259   2.999  21.336  0.00  0.00    +0.000 A 
ATOM     24  N   UNL     1       0.672   2.983  20.132  0.00  0.00    +0.000 NA
ATOM     25  N   UNL     1       1.740   2.839  19.324  0.00  0.00    +0.000 N 
ATOM     26  H   UNL     1       1.619   2.793  18.318  0.00  0.00    +0.000 HD
ENDBRANCH  20  21
ENDBRANCH   5  20
TORSDOF 11
ENDMDL
MODEL 7
REMARK VINA RESULT:      -6.1      6.530      9.859
REMARK  Name = 
REMARK  12 active torsions:
REMARK  status: ('A' for Active; 'I' for Inactive)
REMARK    1  A    between atoms: C_1  and  C_2
REMARK    2  A    between atoms: C_2  and  C_3
REMARK    3  A    between atoms: C_3  and  C_4
REMARK    4  A    between atoms: C_4  and  C_5
REMARK    5  A    between atoms: C_5  and  C_6
REMARK    6  A    between atoms: C_6  and  C_7
REMARK    7  A    between atoms: C_7  and  C_8
REMARK    8  A    between atoms: C_8  and  C_9
REMARK    9  A    between atoms: C_9  and  C_10
REMARK   10  A    between atoms: C_10  and  N_11
REMARK   11  A    between atoms: C_15  and  S_16
REMARK   12  A    between atoms: S_16  and  C_17
REMARK                            x       y       z     vdW  Elec       q    Type
REMARK                         _______ _______ _______ _____ _____    ______ ____
ROOT
ATOM      1  N   UNL     1       7.209   6.559  18.135  0.00  0.00    +0.000 N 
ATOM      2  C   UNL     1       7.626   6.026  19.327  0.00  0.00    +0.000 A 
ATOM      3  N   UNL     1       6.914   4.977  19.676  0.00  0.00    +0.000 NA
ATOM      4  C   UNL     1       5.966   4.846  18.676  0.00  0.00    +0.000 A 
ATOM      5  C   UNL     1       4.908   3.956  18.466  0.00  0.00    +0.000 A 
ATOM      6  N   UNL     1       4.130   4.094  17.360  0.00  0.00    +0.000 NA
ATOM      7  C   UNL     1       4.435   5.080  16.493  0.00  0.00    +0.000 A 
ATOM      8  N   UNL     1       5.423   5.992  16.581  0.00  0.00    +0.000 NA
ATOM      9  C   UNL     1       6.144   5.818  17.702  0.00  0.00    +0.000 A 
ENDROOT
BRANCH   1  10
ATOM     10  C   UNL     1       7.789   7.705  17.469  0.00  0.00    +0.000 C 
BRANCH  10  11
ATOM     11  C   UNL     1       8.524   8.618  18.447  0.00  0.00    +0.000 C 
BRANCH  11  12
ATOM     12  C   UNL     1       8.495  10.072  17.982  0.00  0.00    +0.000 C 
BRANCH  12  13
ATOM     13  C   UNL     1       9.654  10.861  18.588  0.00  0.00    +0.000 C 
BRANCH  13  14
ATOM     14  C   UNL     1       9.529  10.950  20.107  0.00  0.00    +0.000 C 
BRANCH  14  15
ATOM     15  C   UNL     1      10.609  11.856  20.689  0.00  0.00    +0.000 C 
BRANCH  15  16
ATOM     16  C   UNL     1      10.030  13.208  21.100  0.00  0.00    +0.000 C 
BRANCH  16  17
ATOM     17  C   UNL     1      10.377  14.283  20.073  0.00  0.00    +0.000 C 
BRANCH  17  19
ATOM     18  C   UNL     1       8.170  15.119  19.213  0.00  0.00    +0.000 C 
ATOM     19  C   UNL     1       9.363  15.424  20.104  0.00  0.00    +0.000 C 
ENDBRANCH  17  19
ENDBRANCH  16  17
ENDBRANCH  15  16
ENDBRANCH  14  15
ENDBRANCH  13  14
ENDBRANCH  12  13
ENDBRANCH  11  12
ENDBRANCH  10  11
ENDBRANCH   1  10
BRANCH   5  20
ATOM     20  S   UNL     1       4.528   2.729  19.678  0.00  0.00    +0.000 S 
BRANCH  20  21
ATOM     21  C   UNL     1       2.814   2.747  19.531  0.00  0.00    +0.000 A 
ATOM     22  N   UNL     1       1.952   3.415  20.257  0.00  0.00    +0.000 NA
ATOM     23  C   UNL     1       0.757   3.072  19.690  0.00  0.00    +0.000 A 
ATOM     24  N   UNL     1       0.829   2.197  18.679  0.00  0.00    +0.000 NA
ATOM     25  N   UNL     1       2.159   1.991  18.608  0.00  0.00    +0.000 N 
ATOM     26  H   UNL     1       2.542   1.358  17.915  0.00  0.00    +0.000 HD
ENDBRANCH  20  21
ENDBRANCH   5  20
TORSDOF 11
ENDMDL
MODEL 8
REMARK VINA RESULT:      -6.1      1.137      1.396
REMARK  Name = 
REMARK  12 active torsions:
REMARK  status: ('A' for Active; 'I' for Inactive)
REMARK    1  A    between atoms: C_1  and  C_2
REMARK    2  A    between atoms: C_2  and  C_3
REMARK    3  A    between atoms: C_3  and  C_4
REMARK    4  A    between atoms: C_4  and  C_5
REMARK    5  A    between atoms: C_5  and  C_6
REMARK    6  A    between atoms: C_6  and  C_7
REMARK    7  A    between atoms: C_7  and  C_8
REMARK    8  A    between atoms: C_8  and  C_9
REMARK    9  A    between atoms: C_9  and  C_10
REMARK   10  A    between atoms: C_10  and  N_11
REMARK   11  A    between atoms: C_15  and  S_16
REMARK   12  A    between atoms: S_16  and  C_17
REMARK                            x       y       z     vdW  Elec       q    Type
REMARK                         _______ _______ _______ _____ _____    ______ ____
ROOT
ATOM      1  N   UNL     1       2.357   7.896  18.769  0.00  0.00    +0.000 N 
ATOM      2  C   UNL     1       2.396   8.626  17.609  0.00  0.00    +0.000 A 
ATOM      3  N   UNL     1       1.679   9.726  17.693  0.00  0.00    +0.000 NA
ATOM      4  C   UNL     1       1.121   9.687  18.959  0.00  0.00    +0.000 A 
ATOM      5  C   UNL     1       0.250  10.535  19.652  0.00  0.00    +0.000 A 
ATOM      6  N   UNL     1      -0.130  10.211  20.916  0.00  0.00    +0.000 NA
ATOM      7  C   UNL     1       0.376   9.087  21.459  0.00  0.00    +0.000 A 
ATOM      8  N   UNL     1       1.219   8.197  20.899  0.00  0.00    +0.000 NA
ATOM      9  C   UNL     1       1.543   8.559  19.647  0.00  0.00    +0.000 A 
ENDROOT
BRANCH   1  10
ATOM     10  C   UNL     1       3.047   6.648  19.008  0.00  0.00    +0.000 C 
BRANCH  10  11
ATOM     11  C   UNL     1       2.900   5.684  17.833  0.00  0.00    +0.000 C 
BRANCH  11  12
ATOM     12  C   UNL     1       4.260   5.313  17.242  0.00  0.00    +0.000 C 
BRANCH  12  13
ATOM     13  C   UNL     1       4.571   3.837  17.477  0.00  0.00    +0.000 C 
BRANCH  13  14
ATOM     14  C   UNL     1       4.695   3.528  18.967  0.00  0.00    +0.000 C 
BRANCH  14  15
ATOM     15  C   UNL     1       3.945   2.246  19.321  0.00  0.00    +0.000 C 
BRANCH  15  16
ATOM     16  C   UNL     1       2.948   1.873  18.226  0.00  0.00    +0.000 C 
BRANCH  16  17
ATOM     17  C   UNL     1       1.549   2.381  18.570  0.00  0.00    +0.000 C 
BRANCH  17  19
ATOM     18  C   UNL     1       0.885   3.959  20.409  0.00  0.00    +0.000 C 
ATOM     19  C   UNL     1       1.382   2.561  20.077  0.00  0.00    +0.000 C 
ENDBRANCH  17  19
ENDBRANCH  16  17
ENDBRANCH  15  16
ENDBRANCH  14  15
ENDBRANCH  13  14
ENDBRANCH  12  13
ENDBRANCH  11  12
ENDBRANCH  10  11
ENDBRANCH   1  10
BRANCH   5  20
ATOM     20  S   UNL     1      -0.424  11.958  18.852  0.00  0.00    +0.000 S 
BRANCH  20  21
ATOM     21  C   UNL     1      -1.706  11.189  18.001  0.00  0.00    +0.000 A 
ATOM     22  N   UNL     1      -2.329  11.615  16.930  0.00  0.00    +0.000 NA
ATOM     23  C   UNL     1      -3.223  10.610  16.687  0.00  0.00    +0.000 A 
ATOM     24  N   UNL     1      -3.214   9.605  17.572  0.00  0.00    +0.000 NA
ATOM     25  N   UNL     1      -2.244  10.009  18.415  0.00  0.00    +0.000 N 
ATOM     26  H   UNL     1      -1.993   9.441  19.216  0.00  0.00    +0.000 HD
ENDBRANCH  20  21
ENDBRANCH   5  20
TORSDOF 11
ENDMDL
MODEL 9
REMARK VINA RESULT:      -6.0      4.317      8.518
REMARK  Name = 
REMARK  12 active torsions:
REMARK  status: ('A' for Active; 'I' for Inactive)
REMARK    1  A    between atoms: C_1  and  C_2
REMARK    2  A    between atoms: C_2  and  C_3
REMARK    3  A    between atoms: C_3  and  C_4
REMARK    4  A    between atoms: C_4  and  C_5
REMARK    5  A    between atoms: C_5  and  C_6
REMARK    6  A    between atoms: C_6  and  C_7
REMARK    7  A    between atoms: C_7  and  C_8
REMARK    8  A    between atoms: C_8  and  C_9
REMARK    9  A    between atoms: C_9  and  C_10
REMARK   10  A    between atoms: C_10  and  N_11
REMARK   11  A    between atoms: C_15  and  S_16
REMARK   12  A    between atoms: S_16  and  C_17
REMARK                            x       y       z     vdW  Elec       q    Type
REMARK                         _______ _______ _______ _____ _____    ______ ____
ROOT
ATOM      1  N   UNL     1       3.056   6.836  18.452  0.00  0.00    +0.000 N 
ATOM      2  C   UNL     1       3.901   7.551  17.641  0.00  0.00    +0.000 A 
ATOM      3  N   UNL     1       5.046   6.932  17.453  0.00  0.00    +0.000 NA
ATOM      4  C   UNL     1       4.951   5.776  18.207  0.00  0.00    +0.000 A 
ATOM      5  C   UNL     1       5.827   4.713  18.453  0.00  0.00    +0.000 A 
ATOM      6  N   UNL     1       5.433   3.699  19.267  0.00  0.00    +0.000 NA
ATOM      7  C   UNL     1       4.190   3.753  19.786  0.00  0.00    +0.000 A 
ATOM      8  N   UNL     1       3.259   4.713  19.623  0.00  0.00    +0.000 NA
ATOM      9  C   UNL     1       3.712   5.696  18.827  0.00  0.00    +0.000 A 
ENDROOT
BRANCH   1  10
ATOM     10  C   UNL     1       1.721   7.231  18.842  0.00  0.00    +0.000 C 
BRANCH  10  11
ATOM     11  C   UNL     1       1.702   7.882  20.223  0.00  0.00    +0.000 C 
BRANCH  11  12
ATOM     12  C   UNL     1       1.205   9.325  20.153  0.00  0.00    +0.000 C 
BRANCH  12  13
ATOM     13  C   UNL     1       0.995   9.758  18.704  0.00  0.00    +0.000 C 
BRANCH  13  14
ATOM     14  C   UNL     1      -0.134  10.781  18.591  0.00  0.00    +0.000 C 
BRANCH  14  15
ATOM     15  C   UNL     1      -1.392  10.139  18.013  0.00  0.00    +0.000 C 
BRANCH  15  16
ATOM     16  C   UNL     1      -2.472  11.186  17.752  0.00  0.00    +0.000 C 
BRANCH  16  17
ATOM     17  C   UNL     1      -3.544  10.640  16.812  0.00  0.00    +0.000 C 
BRANCH  17  19
ATOM     18  C   UNL     1      -3.356  10.183  14.349  0.00  0.00    +0.000 C 
ATOM     19  C   UNL     1      -2.932   9.741  15.740  0.00  0.00    +0.000 C 
ENDBRANCH  17  19
ENDBRANCH  16  17
ENDBRANCH  15  16
ENDBRANCH  14  15
ENDBRANCH  13  14
ENDBRANCH  12  13
ENDBRANCH  11  12
ENDBRANCH  10  11
ENDBRANCH   1  10
BRANCH   5  20
ATOM     20  S   UNL     1       7.464   4.744  17.789  0.00  0.00    +0.000 S 
BRANCH  20  21
ATOM     21  C   UNL     1       7.066   4.583  16.123  0.00  0.00    +0.000 A 
ATOM     22  N   UNL     1       7.460   5.338  15.127  0.00  0.00    +0.000 NA
ATOM     23  C   UNL     1       6.864   4.743  14.050  0.00  0.00    +0.000 A 
ATOM     24  N   UNL     1       6.089   3.687  14.331  0.00  0.00    +0.000 NA
ATOM     25  N   UNL     1       6.223   3.616  15.670  0.00  0.00    +0.000 N 
ATOM     26  H   UNL     1       5.742   2.893  16.194  0.00  0.00    +0.000 HD
ENDBRANCH  20  21
ENDBRANCH   5  20
TORSDOF 11
ENDMDL
