MODEL 1
REMARK VINA RESULT:      -7.9      0.000      0.000
REMARK  Name = 
REMARK  5 active torsions:
REMARK  status: ('A' for Active; 'I' for Inactive)
REMARK    1  A    between atoms: N_1  and  C_2
REMARK    2  A    between atoms: N_5  and  C_6
REMARK    3  A    between atoms: C_13  and  C_14
REMARK    4  A    between atoms: C_14  and  O_16
REMARK    5  A    between atoms: N_18  and  C_19
REMARK                            x       y       z     vdW  Elec       q    Type
REMARK                         _______ _______ _______ _____ _____    ______ ____
ROOT
ATOM      1  C   UNL     1       1.383   8.881  19.492  0.00  0.00    +0.000 A 
ATOM      2  C   UNL     1       2.070   9.311  18.338  0.00  0.00    +0.000 A 
ATOM      3  F   UNL     1       1.863  10.529  17.819  0.00  0.00    +0.000 F 
ATOM      4  C   UNL     1       2.986   8.516  17.672  0.00  0.00    +0.000 A 
ATOM      5  C   UNL     1       3.242   7.224  18.132  0.00  0.00    +0.000 A 
ATOM      6  C   UNL     1       4.202   6.394  17.380  0.00  0.00    +0.000 A 
ATOM      7  O   UNL     1       4.783   6.826  16.387  0.00  0.00    +0.000 OA
ATOM      8  C   UNL     1       4.455   5.021  17.845  0.00  0.00    +0.000 A 
ATOM      9  C   UNL     1       3.787   4.612  18.935  0.00  0.00    +0.000 A 
ATOM     10  N   UNL     1       2.900   5.369  19.682  0.00  0.00    +0.000 N 
ATOM     11  C   UNL     1       2.605   6.710  19.275  0.00  0.00    +0.000 A 
ATOM     12  C   UNL     1       1.705   7.568  19.943  0.00  0.00    +0.000 A 
ATOM     13  F   UNL     1       1.116   7.118  21.063  0.00  0.00    +0.000 F 
ENDROOT
BRANCH   1  17
ATOM     14  C   UNL     1      -0.672  10.934  21.817  0.00  0.00    +0.000 C 
ATOM     15  C   UNL     1      -1.141  11.376  20.435  0.00  0.00    +0.000 C 
ATOM     16  C   UNL     1      -0.775  10.193  19.544  0.00  0.00    +0.000 C 
ATOM     17  N   UNL     1       0.461   9.687  20.135  0.00  0.00    +0.000 N 
ATOM     18  C   UNL     1       0.608  10.126  21.523  0.00  0.00    +0.000 C 
BRANCH  14  19
ATOM     19  N   UNL     1      -0.466  12.064  22.723  0.00  0.00    +0.000 NA
ATOM     20  H   UNL     1      -1.228  12.733  22.609  0.00  0.00    +0.000 HD
ATOM     21  H   UNL     1       0.383  12.562  22.457  0.00  0.00    +0.000 HD
ENDBRANCH  14  19
ENDBRANCH   1  17
BRANCH  10  22
ATOM     22  C   UNL     1       2.268   4.754  20.871  0.00  0.00    +0.000 C 
ATOM     23  C   UNL     1       1.167   3.719  20.859  0.00  0.00    +0.000 C 
ATOM     24  C   UNL     1       2.568   3.302  21.169  0.00  0.00    +0.000 C 
ENDBRANCH  10  22
BRANCH   8  25
ATOM     25  C   UNL     1       5.407   4.101  17.197  0.00  0.00    +0.000 C 
ATOM     26  O   UNL     1       5.187   3.549  16.133  0.00  0.00    +0.000 OA
BRANCH  25  27
ATOM     27  O   UNL     1       6.560   3.908  17.879  0.00  0.00    +0.000 OA
ATOM     28  H   UNL     1       6.506   3.208  18.579  0.00  0.00    +0.000 HD
ENDBRANCH  25  27
ENDBRANCH   8  25
TORSDOF 5
ENDMDL
MODEL 2
REMARK VINA RESULT:      -7.8      1.267      1.408
REMARK  Name = 
REMARK  5 active torsions:
REMARK  status: ('A' for Active; 'I' for Inactive)
REMARK    1  A    between atoms: N_1  and  C_2
REMARK    2  A    between atoms: N_5  and  C_6
REMARK    3  A    between atoms: C_13  and  C_14
REMARK    4  A    between atoms: C_14  and  O_16
REMARK    5  A    between atoms: N_18  and  C_19
REMARK                            x       y       z     vdW  Elec       q    Type
REMARK                         _______ _______ _______ _____ _____    ______ ____
ROOT
ATOM      1  C   UNL     1       1.989   8.080  19.366  0.00  0.00    +0.000 A 
ATOM      2  C   UNL     1       2.523   8.761  18.253  0.00  0.00    +0.000 A 
ATOM      3  F   UNL     1       2.162  10.021  17.970  0.00  0.00    +0.000 F 
ATOM      4  C   UNL     1       3.436   8.183  17.389  0.00  0.00    +0.000 A 
ATOM      5  C   UNL     1       3.845   6.865  17.597  0.00  0.00    +0.000 A 
ATOM      6  C   UNL     1       4.797   6.272  16.639  0.00  0.00    +0.000 A 
ATOM      7  O   UNL     1       5.241   6.918  15.692  0.00  0.00    +0.000 OA
ATOM      8  C   UNL     1       5.211   4.874  16.839  0.00  0.00    +0.000 A 
ATOM      9  C   UNL     1       4.688   4.226  17.892  0.00  0.00    +0.000 A 
ATOM     10  N   UNL     1       3.815   4.756  18.827  0.00  0.00    +0.000 N 
ATOM     11  C   UNL     1       3.368   6.110  18.682  0.00  0.00    +0.000 A 
ATOM     12  C   UNL     1       2.465   6.751  19.557  0.00  0.00    +0.000 A 
ATOM     13  F   UNL     1       2.027   6.066  20.627  0.00  0.00    +0.000 F 
ENDROOT
BRANCH   1  17
ATOM     14  C   UNL     1      -0.132   9.304  22.168  0.00  0.00    +0.000 C 
ATOM     15  C   UNL     1      -0.441  10.272  21.031  0.00  0.00    +0.000 C 
ATOM     16  C   UNL     1      -0.074   9.478  19.783  0.00  0.00    +0.000 C 
ATOM     17  N   UNL     1       1.067   8.672  20.210  0.00  0.00    +0.000 N 
ATOM     18  C   UNL     1       1.114   8.546  21.668  0.00  0.00    +0.000 C 
BRANCH  14  19
ATOM     19  N   UNL     1       0.064   9.989  23.445  0.00  0.00    +0.000 NA
ATOM     20  H   UNL     1      -0.713   9.772  24.069  0.00  0.00    +0.000 HD
ATOM     21  H   UNL     1       0.030  10.998  23.299  0.00  0.00    +0.000 HD
ENDBRANCH  14  19
ENDBRANCH   1  17
BRANCH  10  22
ATOM     22  C   UNL     1       3.355   3.894  19.939  0.00  0.00    +0.000 C 
ATOM     23  C   UNL     1       2.505   2.652  19.808  0.00  0.00    +0.000 C 
ATOM     24  C   UNL     1       3.969   2.519  20.077  0.00  0.00    +0.000 C 
ENDBRANCH  10  22
BRANCH   8  25
ATOM     25  C   UNL     1       6.172   4.174  15.968  0.00  0.00    +0.000 C 
ATOM     26  O   UNL     1       5.881   3.204  15.292  0.00  0.00    +0.000 OA
BRANCH  25  27
ATOM     27  O   UNL     1       7.423   4.693  15.975  0.00  0.00    +0.000 OA
ATOM     28  H   UNL     1       7.836   4.745  16.876  0.00  0.00    +0.000 HD
ENDBRANCH  25  27
ENDBRANCH   8  25
TORSDOF 5
ENDMDL
MODEL 3
REMARK VINA RESULT:      -7.7      2.153      3.738
REMARK  Name = 
REMARK  5 active torsions:
REMARK  status: ('A' for Active; 'I' for Inactive)
REMARK    1  A    between atoms: N_1  and  C_2
REMARK    2  A    between atoms: N_5  and  C_6
REMARK    3  A    between atoms: C_13  and  C_14
REMARK    4  A    between atoms: C_14  and  O_16
REMARK    5  A    between atoms: N_18  and  C_19
REMARK                            x       y       z     vdW  Elec       q    Type
REMARK                         _______ _______ _______ _____ _____    ______ ____
ROOT
ATOM      1  C   UNL     1       1.457   8.292  19.774  0.00  0.00    +0.000 A 
ATOM      2  C   UNL     1       0.900   7.433  20.744  0.00  0.00    +0.000 A 
ATOM      3  F   UNL     1      -0.075   7.851  21.564  0.00  0.00    +0.000 F 
ATOM      4  C   UNL     1       1.317   6.125  20.914  0.00  0.00    +0.000 A 
ATOM      5  C   UNL     1       2.345   5.619  20.117  0.00  0.00    +0.000 A 
ATOM      6  C   UNL     1       2.784   4.230  20.346  0.00  0.00    +0.000 A 
ATOM      7  O   UNL     1       2.252   3.521  21.198  0.00  0.00    +0.000 OA
ATOM      8  C   UNL     1       3.886   3.700  19.528  0.00  0.00    +0.000 A 
ATOM      9  C   UNL     1       4.423   4.527  18.617  0.00  0.00    +0.000 A 
ATOM     10  N   UNL     1       4.021   5.826  18.354  0.00  0.00    +0.000 N 
ATOM     11  C   UNL     1       2.959   6.402  19.124  0.00  0.00    +0.000 A 
ATOM     12  C   UNL     1       2.478   7.719  18.962  0.00  0.00    +0.000 A 
ATOM     13  F   UNL     1       3.017   8.474  17.991  0.00  0.00    +0.000 F 
ENDROOT
BRANCH   1  17
ATOM     14  C   UNL     1       0.226  11.627  18.675  0.00  0.00    +0.000 C 
ATOM     15  C   UNL     1       0.084  11.672  20.192  0.00  0.00    +0.000 C 
ATOM     16  C   UNL     1       1.083  10.624  20.671  0.00  0.00    +0.000 C 
ATOM     17  N   UNL     1       1.035   9.601  19.630  0.00  0.00    +0.000 N 
ATOM     18  C   UNL     1       0.490  10.137  18.381  0.00  0.00    +0.000 C 
BRANCH  14  19
ATOM     19  N   UNL     1      -0.947  12.168  17.990  0.00  0.00    +0.000 NA
ATOM     20  H   UNL     1      -1.684  12.351  18.671  0.00  0.00    +0.000 HD
ATOM     21  H   UNL     1      -1.325  11.464  17.355  0.00  0.00    +0.000 HD
ENDBRANCH  14  19
ENDBRANCH   1  17
BRANCH  10  22
ATOM     22  C   UNL     1       4.721   6.585  17.294  0.00  0.00    +0.000 C 
ATOM     23  C   UNL     1       6.164   6.412  16.879  0.00  0.00    +0.000 C 
ATOM     24  C   UNL     1       5.076   5.863  16.014  0.00  0.00    +0.000 C 
ENDBRANCH  10  22
BRANCH   8  25
ATOM     25  C   UNL     1       4.400   2.323  19.642  0.00  0.00    +0.000 C 
ATOM     26  O   UNL     1       5.080   1.938  20.576  0.00  0.00    +0.000 OA
BRANCH  25  27
ATOM     27  O   UNL     1       4.061   1.506  18.617  0.00  0.00    +0.000 OA
ATOM     28  H   UNL     1       3.497   0.735  18.883  0.00  0.00    +0.000 HD
ENDBRANCH  25  27
ENDBRANCH   8  25
TORSDOF 5
ENDMDL
MODEL 4
REMARK VINA RESULT:      -7.5      2.998      6.638
REMARK  Name = 
REMARK  5 active torsions:
REMARK  status: ('A' for Active; 'I' for Inactive)
REMARK    1  A    between atoms: N_1  and  C_2
REMARK    2  A    between atoms: N_5  and  C_6
REMARK    3  A    between atoms: C_13  and  C_14
REMARK    4  A    between atoms: C_14  and  O_16
REMARK    5  A    between atoms: N_18  and  C_19
REMARK                            x       y       z     vdW  Elec       q    Type
REMARK                         _______ _______ _______ _____ _____    ______ ____
ROOT
ATOM      1  C   UNL     1       2.639   6.033  19.142  0.00  0.00    +0.000 A 
ATOM      2  C   UNL     1       3.020   6.630  17.923  0.00  0.00    +0.000 A 
ATOM      3  F   UNL     1       3.639   5.923  16.967  0.00  0.00    +0.000 F 
ATOM      4  C   UNL     1       2.788   7.963  17.638  0.00  0.00    +0.000 A 
ATOM      5  C   UNL     1       2.170   8.776  18.589  0.00  0.00    +0.000 A 
ATOM      6  C   UNL     1       1.966  10.199  18.262  0.00  0.00    +0.000 A 
ATOM      7  O   UNL     1       2.306  10.664  17.176  0.00  0.00    +0.000 OA
ATOM      8  C   UNL     1       1.340  11.067  19.273  0.00  0.00    +0.000 A 
ATOM      9  C   UNL     1       0.993  10.496  20.437  0.00  0.00    +0.000 A 
ATOM     10  N   UNL     1       1.143   9.161  20.771  0.00  0.00    +0.000 N 
ATOM     11  C   UNL     1       1.755   8.267  19.832  0.00  0.00    +0.000 A 
ATOM     12  C   UNL     1       1.980   6.894  20.067  0.00  0.00    +0.000 A 
ATOM     13  F   UNL     1       1.553   6.373  21.229  0.00  0.00    +0.000 F 
ENDROOT
BRANCH   1  17
ATOM     14  C   UNL     1       4.012   2.614  19.663  0.00  0.00    +0.000 C 
ATOM     15  C   UNL     1       2.696   2.595  20.431  0.00  0.00    +0.000 C 
ATOM     16  C   UNL     1       1.885   3.704  19.770  0.00  0.00    +0.000 C 
ATOM     17  N   UNL     1       2.892   4.700  19.413  0.00  0.00    +0.000 N 
ATOM     18  C   UNL     1       4.230   4.109  19.356  0.00  0.00    +0.000 C 
BRANCH  14  19
ATOM     19  N   UNL     1       5.105   1.997  20.413  0.00  0.00    +0.000 NA
ATOM     20  H   UNL     1       5.624   1.367  19.801  0.00  0.00    +0.000 HD
ATOM     21  H   UNL     1       4.720   1.409  21.153  0.00  0.00    +0.000 HD
ENDBRANCH  14  19
ENDBRANCH   1  17
BRANCH  10  22
ATOM     22  C   UNL     1       0.684   8.705  22.102  0.00  0.00    +0.000 C 
ATOM     23  C   UNL     1       0.053   9.568  23.170  0.00  0.00    +0.000 C 
ATOM     24  C   UNL     1      -0.804   8.648  22.362  0.00  0.00    +0.000 C 
ENDBRANCH  10  22
BRANCH   8  25
ATOM     25  C   UNL     1       1.059  12.498  19.060  0.00  0.00    +0.000 C 
ATOM     26  O   UNL     1       1.438  13.374  19.817  0.00  0.00    +0.000 OA
BRANCH  25  27
ATOM     27  O   UNL     1       0.337  12.774  17.949  0.00  0.00    +0.000 OA
ATOM     28  H   UNL     1       0.877  13.091  17.181  0.00  0.00    +0.000 HD
ENDBRANCH  25  27
ENDBRANCH   8  25
TORSDOF 5
ENDMDL
MODEL 5
REMARK VINA RESULT:      -7.5      3.524      6.845
REMARK  Name = 
REMARK  5 active torsions:
REMARK  status: ('A' for Active; 'I' for Inactive)
REMARK    1  A    between atoms: N_1  and  C_2
REMARK    2  A    between atoms: N_5  and  C_6
REMARK    3  A    between atoms: C_13  and  C_14
REMARK    4  A    between atoms: C_14  and  O_16
REMARK    5  A    between atoms: N_18  and  C_19
REMARK                            x       y       z     vdW  Elec       q    Type
REMARK                         _______ _______ _______ _____ _____    ______ ____
ROOT
ATOM      1  C   UNL     1       4.477   5.729  17.030  0.00  0.00    +0.000 A 
ATOM      2  C   UNL     1       4.177   7.080  16.761  0.00  0.00    +0.000 A 
ATOM      3  F   UNL     1       4.712   7.714  15.707  0.00  0.00    +0.000 F 
ATOM      4  C   UNL     1       3.330   7.832  17.554  0.00  0.00    +0.000 A 
ATOM      5  C   UNL     1       2.750   7.256  18.685  0.00  0.00    +0.000 A 
ATOM      6  C   UNL     1       1.875   8.096  19.524  0.00  0.00    +0.000 A 
ATOM      7  O   UNL     1       1.638   9.266  19.234  0.00  0.00    +0.000 OA
ATOM      8  C   UNL     1       1.285   7.501  20.734  0.00  0.00    +0.000 A 
ATOM      9  C   UNL     1       1.585   6.218  20.994  0.00  0.00    +0.000 A 
ATOM     10  N   UNL     1       2.379   5.391  20.217  0.00  0.00    +0.000 N 
ATOM     11  C   UNL     1       2.990   5.915  19.032  0.00  0.00    +0.000 A 
ATOM     12  C   UNL     1       3.834   5.176  18.175  0.00  0.00    +0.000 A 
ATOM     13  F   UNL     1       4.045   3.880  18.459  0.00  0.00    +0.000 F 
ENDROOT
BRANCH   1  17
ATOM     14  C   UNL     1       6.176   3.567  14.524  0.00  0.00    +0.000 C 
ATOM     15  C   UNL     1       7.308   4.408  15.101  0.00  0.00    +0.000 C 
ATOM     16  C   UNL     1       6.771   4.836  16.463  0.00  0.00    +0.000 C 
ATOM     17  N   UNL     1       5.338   4.999  16.231  0.00  0.00    +0.000 N 
ATOM     18  C   UNL     1       4.904   4.270  15.038  0.00  0.00    +0.000 C 
BRANCH  14  19
ATOM     19  N   UNL     1       6.247   3.461  13.067  0.00  0.00    +0.000 NA
ATOM     20  H   UNL     1       6.726   2.597  12.813  0.00  0.00    +0.000 HD
ATOM     21  H   UNL     1       6.825   4.217  12.699  0.00  0.00    +0.000 HD
ENDBRANCH  14  19
ENDBRANCH   1  17
BRANCH  10  22
ATOM     22  C   UNL     1       2.586   3.992  20.653  0.00  0.00    +0.000 C 
ATOM     23  C   UNL     1       1.862   3.294  21.781  0.00  0.00    +0.000 C 
ATOM     24  C   UNL     1       1.494   2.986  20.366  0.00  0.00    +0.000 C 
ENDBRANCH  10  22
BRANCH   8  25
ATOM     25  C   UNL     1       0.376   8.225  21.641  0.00  0.00    +0.000 C 
ATOM     26  O   UNL     1      -0.816   7.987  21.725  0.00  0.00    +0.000 OA
BRANCH  25  27
ATOM     27  O   UNL     1       0.969   9.190  22.383  0.00  0.00    +0.000 OA
ATOM     28  H   UNL     1       1.297   9.963  21.856  0.00  0.00    +0.000 HD
ENDBRANCH  25  27
ENDBRANCH   8  25
TORSDOF 5
ENDMDL
MODEL 6
REMARK VINA RESULT:      -7.5      2.068      3.510
REMARK  Name = 
REMARK  5 active torsions:
REMARK  status: ('A' for Active; 'I' for Inactive)
REMARK    1  A    between atoms: N_1  and  C_2
REMARK    2  A    between atoms: N_5  and  C_6
REMARK    3  A    between atoms: C_13  and  C_14
REMARK    4  A    between atoms: C_14  and  O_16
REMARK    5  A    between atoms: N_18  and  C_19
REMARK                            x       y       z     vdW  Elec       q    Type
REMARK                         _______ _______ _______ _____ _____    ______ ____
ROOT
ATOM      1  C   UNL     1       1.496   8.306  19.895  0.00  0.00    +0.000 A 
ATOM      2  C   UNL     1       0.931   7.407  20.823  0.00  0.00    +0.000 A 
ATOM      3  F   UNL     1       0.004   7.810  21.704  0.00  0.00    +0.000 F 
ATOM      4  C   UNL     1       1.291   6.073  20.888  0.00  0.00    +0.000 A 
ATOM      5  C   UNL     1       2.266   5.578  20.022  0.00  0.00    +0.000 A 
ATOM      6  C   UNL     1       2.646   4.158  20.140  0.00  0.00    +0.000 A 
ATOM      7  O   UNL     1       2.110   3.416  20.959  0.00  0.00    +0.000 OA
ATOM      8  C   UNL     1       3.695   3.638  19.248  0.00  0.00    +0.000 A 
ATOM      9  C   UNL     1       4.240   4.502  18.377  0.00  0.00    +0.000 A 
ATOM     10  N   UNL     1       3.892   5.833  18.218  0.00  0.00    +0.000 N 
ATOM     11  C   UNL     1       2.884   6.400  19.063  0.00  0.00    +0.000 A 
ATOM     12  C   UNL     1       2.461   7.745  19.009  0.00  0.00    +0.000 A 
ATOM     13  F   UNL     1       3.004   8.542  18.073  0.00  0.00    +0.000 F 
ENDROOT
BRANCH   1  17
ATOM     14  C   UNL     1       0.630  11.870  20.521  0.00  0.00    +0.000 C 
ATOM     15  C   UNL     1       0.863  11.814  19.016  0.00  0.00    +0.000 C 
ATOM     16  C   UNL     1       0.634  10.345  18.677  0.00  0.00    +0.000 C 
ATOM     17  N   UNL     1       1.131   9.640  19.856  0.00  0.00    +0.000 N 
ATOM     18  C   UNL     1       1.184  10.522  21.023  0.00  0.00    +0.000 C 
BRANCH  14  19
ATOM     19  N   UNL     1       1.258  13.037  21.139  0.00  0.00    +0.000 NA
ATOM     20  H   UNL     1       1.643  13.640  20.412  0.00  0.00    +0.000 HD
ATOM     21  H   UNL     1       2.055  12.736  21.701  0.00  0.00    +0.000 HD
ENDBRANCH  14  19
ENDBRANCH   1  17
BRANCH  10  22
ATOM     22  C   UNL     1       4.592   6.632  17.188  0.00  0.00    +0.000 C 
ATOM     23  C   UNL     1       6.074   6.603  16.894  0.00  0.00    +0.000 C 
ATOM     24  C   UNL     1       5.124   5.915  15.967  0.00  0.00    +0.000 C 
ENDBRANCH  10  22
BRANCH   8  25
ATOM     25  C   UNL     1       4.147   2.235  19.249  0.00  0.00    +0.000 C 
ATOM     26  O   UNL     1       3.642   1.368  18.559  0.00  0.00    +0.000 OA
BRANCH  25  27
ATOM     27  O   UNL     1       5.179   1.974  20.086  0.00  0.00    +0.000 OA
ATOM     28  H   UNL     1       4.938   1.999  21.048  0.00  0.00    +0.000 HD
ENDBRANCH  25  27
ENDBRANCH   8  25
TORSDOF 5
ENDMDL
MODEL 7
REMARK VINA RESULT:      -7.3      3.078      6.714
REMARK  Name = 
REMARK  5 active torsions:
REMARK  status: ('A' for Active; 'I' for Inactive)
REMARK    1  A    between atoms: N_1  and  C_2
REMARK    2  A    between atoms: N_5  and  C_6
REMARK    3  A    between atoms: C_13  and  C_14
REMARK    4  A    between atoms: C_14  and  O_16
REMARK    5  A    between atoms: N_18  and  C_19
REMARK                            x       y       z     vdW  Elec       q    Type
REMARK                         _______ _______ _______ _____ _____    ______ ____
ROOT
ATOM      1  C   UNL     1       2.692   6.333  19.020  0.00  0.00    +0.000 A 
ATOM      2  C   UNL     1       3.072   6.989  17.831  0.00  0.00    +0.000 A 
ATOM      3  F   UNL     1       3.717   6.336  16.853  0.00  0.00    +0.000 F 
ATOM      4  C   UNL     1       2.814   8.327  17.598  0.00  0.00    +0.000 A 
ATOM      5  C   UNL     1       2.168   9.086  18.575  0.00  0.00    +0.000 A 
ATOM      6  C   UNL     1       1.935  10.517  18.305  0.00  0.00    +0.000 A 
ATOM      7  O   UNL     1       2.276  11.034  17.243  0.00  0.00    +0.000 OA
ATOM      8  C   UNL     1       1.280  11.327  19.344  0.00  0.00    +0.000 A 
ATOM      9  C   UNL     1       0.933  10.701  20.480  0.00  0.00    +0.000 A 
ATOM     10  N   UNL     1       1.110   9.357  20.760  0.00  0.00    +0.000 N 
ATOM     11  C   UNL     1       1.751   8.517  19.792  0.00  0.00    +0.000 A 
ATOM     12  C   UNL     1       2.005   7.140  19.971  0.00  0.00    +0.000 A 
ATOM     13  F   UNL     1       1.578   6.562  21.106  0.00  0.00    +0.000 F 
ENDROOT
BRANCH   1  17
ATOM     14  C   UNL     1       2.720   2.643  19.497  0.00  0.00    +0.000 C 
ATOM     15  C   UNL     1       4.187   2.988  19.266  0.00  0.00    +0.000 C 
ATOM     16  C   UNL     1       4.268   4.461  19.651  0.00  0.00    +0.000 C 
ATOM     17  N   UNL     1       2.973   4.996  19.238  0.00  0.00    +0.000 N 
ATOM     18  C   UNL     1       1.978   3.932  19.094  0.00  0.00    +0.000 C 
BRANCH  14  19
ATOM     19  N   UNL     1       2.302   1.458  18.748  0.00  0.00    +0.000 NA
ATOM     20  H   UNL     1       1.505   1.026  19.215  0.00  0.00    +0.000 HD
ATOM     21  H   UNL     1       3.047   0.762  18.769  0.00  0.00    +0.000 HD
ENDBRANCH  14  19
ENDBRANCH   1  17
BRANCH  10  22
ATOM     22  C   UNL     1       0.647   8.836  22.065  0.00  0.00    +0.000 C 
ATOM     23  C   UNL     1      -0.086   9.620  23.127  0.00  0.00    +0.000 C 
ATOM     24  C   UNL     1      -0.839   8.652  22.274  0.00  0.00    +0.000 C 
ENDBRANCH  10  22
BRANCH   8  25
ATOM     25  C   UNL     1       0.969  12.760  19.188  0.00  0.00    +0.000 C 
ATOM     26  O   UNL     1       1.285  13.607  20.005  0.00  0.00    +0.000 OA
BRANCH  25  27
ATOM     27  O   UNL     1       0.294  13.072  18.057  0.00  0.00    +0.000 OA
ATOM     28  H   UNL     1       0.297  14.038  17.835  0.00  0.00    +0.000 HD
ENDBRANCH  25  27
ENDBRANCH   8  25
TORSDOF 5
ENDMDL
MODEL 8
REMARK VINA RESULT:      -7.3      0.897      1.224
REMARK  Name = 
REMARK  5 active torsions:
REMARK  status: ('A' for Active; 'I' for Inactive)
REMARK    1  A    between atoms: N_1  and  C_2
REMARK    2  A    between atoms: N_5  and  C_6
REMARK    3  A    between atoms: C_13  and  C_14
REMARK    4  A    between atoms: C_14  and  O_16
REMARK    5  A    between atoms: N_18  and  C_19
REMARK                            x       y       z     vdW  Elec       q    Type
REMARK                         _______ _______ _______ _____ _____    ______ ____
ROOT
ATOM      1  C   UNL     1       1.582   8.808  19.492  0.00  0.00    +0.000 A 
ATOM      2  C   UNL     1       2.364   9.107  18.358  0.00  0.00    +0.000 A 
ATOM      3  F   UNL     1       2.413  10.349  17.855  0.00  0.00    +0.000 F 
ATOM      4  C   UNL     1       3.118   8.155  17.695  0.00  0.00    +0.000 A 
ATOM      5  C   UNL     1       3.103   6.832  18.138  0.00  0.00    +0.000 A 
ATOM      6  C   UNL     1       3.895   5.838  17.390  0.00  0.00    +0.000 A 
ATOM      7  O   UNL     1       4.570   6.158  16.414  0.00  0.00    +0.000 OA
ATOM      8  C   UNL     1       3.860   4.436  17.836  0.00  0.00    +0.000 A 
ATOM      9  C   UNL     1       3.102   4.154  18.907  0.00  0.00    +0.000 A 
ATOM     10  N   UNL     1       2.367   5.062  19.652  0.00  0.00    +0.000 N 
ATOM     11  C   UNL     1       2.353   6.441  19.261  0.00  0.00    +0.000 A 
ATOM     12  C   UNL     1       1.627   7.452  19.927  0.00  0.00    +0.000 A 
ATOM     13  F   UNL     1       0.938   7.114  21.029  0.00  0.00    +0.000 F 
ENDROOT
BRANCH   1  17
ATOM     14  C   UNL     1      -0.681  11.573  20.529  0.00  0.00    +0.000 C 
ATOM     15  C   UNL     1      -0.429  10.809  21.823  0.00  0.00    +0.000 C 
ATOM     16  C   UNL     1       0.888  10.088  21.557  0.00  0.00    +0.000 C 
ATOM     17  N   UNL     1       0.825   9.773  20.132  0.00  0.00    +0.000 N 
ATOM     18  C   UNL     1      -0.141  10.626  19.439  0.00  0.00    +0.000 C 
BRANCH  14  19
ATOM     19  N   UNL     1      -2.089  11.932  20.359  0.00  0.00    +0.000 NA
ATOM     20  H   UNL     1      -2.602  11.128  19.998  0.00  0.00    +0.000 HD
ATOM     21  H   UNL     1      -2.171  12.656  19.645  0.00  0.00    +0.000 HD
ENDBRANCH  14  19
ENDBRANCH   1  17
BRANCH  10  22
ATOM     22  C   UNL     1       1.602   4.570  20.818  0.00  0.00    +0.000 C 
ATOM     23  C   UNL     1       1.139   3.150  21.045  0.00  0.00    +0.000 C 
ATOM     24  C   UNL     1       2.309   3.676  21.811  0.00  0.00    +0.000 C 
ENDBRANCH  10  22
BRANCH   8  25
ATOM     25  C   UNL     1       4.624   3.353  17.190  0.00  0.00    +0.000 C 
ATOM     26  O   UNL     1       4.252   2.194  17.165  0.00  0.00    +0.000 OA
BRANCH  25  27
ATOM     27  O   UNL     1       5.788   3.745  16.620  0.00  0.00    +0.000 OA
ATOM     28  H   UNL     1       5.839   3.578  15.644  0.00  0.00    +0.000 HD
ENDBRANCH  25  27
ENDBRANCH   8  25
TORSDOF 5
ENDMDL
MODEL 9
REMARK VINA RESULT:      -7.0      2.266      3.708
REMARK  Name = 
REMARK  5 active torsions:
REMARK  status: ('A' for Active; 'I' for Inactive)
REMARK    1  A    between atoms: N_1  and  C_2
REMARK    2  A    between atoms: N_5  and  C_6
REMARK    3  A    between atoms: C_13  and  C_14
REMARK    4  A    between atoms: C_14  and  O_16
REMARK    5  A    between atoms: N_18  and  C_19
REMARK                            x       y       z     vdW  Elec       q    Type
REMARK                         _______ _______ _______ _____ _____    ______ ____
ROOT
ATOM      1  C   UNL     1       1.492   8.411  19.574  0.00  0.00    +0.000 A 
ATOM      2  C   UNL     1       1.048   7.694  20.704  0.00  0.00    +0.000 A 
ATOM      3  F   UNL     1       0.210   8.246  21.593  0.00  0.00    +0.000 F 
ATOM      4  C   UNL     1       1.441   6.395  20.968  0.00  0.00    +0.000 A 
ATOM      5  C   UNL     1       2.332   5.754  20.106  0.00  0.00    +0.000 A 
ATOM      6  C   UNL     1       2.753   4.379  20.435  0.00  0.00    +0.000 A 
ATOM      7  O   UNL     1       2.322   3.796  21.427  0.00  0.00    +0.000 OA
ATOM      8  C   UNL     1       3.713   3.709  19.544  0.00  0.00    +0.000 A 
ATOM      9  C   UNL     1       4.145   4.403  18.478  0.00  0.00    +0.000 A 
ATOM     10  N   UNL     1       3.753   5.682  18.121  0.00  0.00    +0.000 N 
ATOM     11  C   UNL     1       2.827   6.390  18.954  0.00  0.00    +0.000 A 
ATOM     12  C   UNL     1       2.371   7.702  18.706  0.00  0.00    +0.000 A 
ATOM     13  F   UNL     1       2.795   8.318  17.589  0.00  0.00    +0.000 F 
ENDROOT
BRANCH   1  17
ATOM     14  C   UNL     1       1.154  12.055  18.897  0.00  0.00    +0.000 C 
ATOM     15  C   UNL     1      -0.232  11.500  18.591  0.00  0.00    +0.000 C 
ATOM     16  C   UNL     1      -0.279  10.204  19.392  0.00  0.00    +0.000 C 
ATOM     17  N   UNL     1       1.096   9.715  19.336  0.00  0.00    +0.000 N 
ATOM     18  C   UNL     1       2.032  10.792  19.007  0.00  0.00    +0.000 C 
BRANCH  14  19
ATOM     19  N   UNL     1       1.610  13.007  17.885  0.00  0.00    +0.000 NA
ATOM     20  H   UNL     1       2.569  12.784  17.617  0.00  0.00    +0.000 HD
ATOM     21  H   UNL     1       1.646  13.942  18.290  0.00  0.00    +0.000 HD
ENDBRANCH  14  19
ENDBRANCH   1  17
BRANCH  10  22
ATOM     22  C   UNL     1       4.323   6.284  16.896  0.00  0.00    +0.000 C 
ATOM     23  C   UNL     1       5.768   6.672  16.684  0.00  0.00    +0.000 C 
ATOM     24  C   UNL     1       5.235   5.433  16.040  0.00  0.00    +0.000 C 
ENDBRANCH  10  22
BRANCH   8  25
ATOM     25  C   UNL     1       4.194   2.331  19.748  0.00  0.00    +0.000 C 
ATOM     26  O   UNL     1       4.025   1.436  18.939  0.00  0.00    +0.000 OA
BRANCH  25  27
ATOM     27  O   UNL     1       4.844   2.126  20.918  0.00  0.00    +0.000 OA
ATOM     28  H   UNL     1       4.705   1.226  21.308  0.00  0.00    +0.000 HD
ENDBRANCH  25  27
ENDBRANCH   8  25
TORSDOF 5
ENDMDL
