MODEL 1
REMARK VINA RESULT:      -8.5      0.000      0.000
REMARK  Name = 
REMARK  6 active torsions:
REMARK  status: ('A' for Active; 'I' for Inactive)
REMARK    1  A    between atoms: C_2  and  C_3
REMARK    2  A    between atoms: C_2  and  C_20
REMARK    3  A    between atoms: C_3  and  C_4
REMARK    4  A    between atoms: C_4  and  C_5
REMARK    5  A    between atoms: C_10  and  C_11
REMARK    6  A    between atoms: C_16  and  O_17
REMARK                            x       y       z     vdW  Elec       q    Type
REMARK                         _______ _______ _______ _____ _____    ______ ____
ROOT
ATOM      1  C   UNL     1       5.510   4.627  19.097  0.00  0.00    +0.000 A 
ATOM      2  N   UNL     1       5.224   3.346  18.887  0.00  0.00    +0.000 NA
ATOM      3  N   UNL     1       3.859   3.232  18.629  0.00  0.00    +0.000 NA
ATOM      4  C   UNL     1       3.391   4.438  18.703  0.00  0.00    +0.000 A 
ATOM      5  S   UNL     1       1.875   5.206  18.554  0.00  0.00    +0.000 S 
ATOM      6  C   UNL     1       2.741   6.727  18.943  0.00  0.00    +0.000 A 
ATOM      7  N   UNL     1       4.029   6.643  19.154  0.00  0.00    +0.000 NA
ATOM      8  N   UNL     1       4.349   5.342  19.000  0.00  0.00    +0.000 N 
ENDROOT
BRANCH   6   9
ATOM      9  C   UNL     1       1.972   7.985  19.040  0.00  0.00    +0.000 A 
ATOM     10  C   UNL     1       1.656   8.711  17.884  0.00  0.00    +0.000 A 
ATOM     11  C   UNL     1       0.855   9.850  17.969  0.00  0.00    +0.000 A 
ATOM     12  C   UNL     1       0.365  10.265  19.206  0.00  0.00    +0.000 A 
ATOM     13  C   UNL     1       0.680   9.558  20.364  0.00  0.00    +0.000 A 
ATOM     14  C   UNL     1       1.487   8.424  20.282  0.00  0.00    +0.000 A 
BRANCH  14  15
ATOM     15  O   UNL     1       1.819   7.757  21.429  0.00  0.00    +0.000 OA
ATOM     16  H   UNL     1       2.450   7.047  21.234  0.00  0.00    +0.000 HD
ENDBRANCH  14  15
ENDBRANCH   6   9
BRANCH   1  17
ATOM     17  C   UNL     1       6.834   5.229  19.414  0.00  0.00    +0.000 C 
BRANCH  17  18
ATOM     18  C   UNL     1       7.745   5.319  18.191  0.00  0.00    +0.000 C 
BRANCH  18  20
ATOM     19  O   UNL     1       6.926   7.394  17.271  0.00  0.00    +0.000 OA
ATOM     20  C   UNL     1       7.143   6.192  17.104  0.00  0.00    +0.000 C 
BRANCH  20  21
ATOM     21  C   UNL     1       6.864   5.537  15.843  0.00  0.00    +0.000 A 
ATOM     22  N   UNL     1       5.787   4.823  15.570  0.00  0.00    +0.000 NA
ATOM     23  C   UNL     1       5.960   4.372  14.283  0.00  0.00    +0.000 A 
ATOM     24  C   UNL     1       5.117   3.585  13.482  0.00  0.00    +0.000 A 
ATOM     25  C   UNL     1       5.543   3.247  12.190  0.00  0.00    +0.000 A 
ATOM     26  C   UNL     1       6.785   3.672  11.710  0.00  0.00    +0.000 A 
ATOM     27  C   UNL     1       7.633   4.465  12.491  0.00  0.00    +0.000 A 
ATOM     28  C   UNL     1       7.176   4.802  13.766  0.00  0.00    +0.000 A 
ATOM     29  N   UNL     1       7.714   5.568  14.765  0.00  0.00    +0.000 N 
ATOM     30  H   UNL     1       8.596   6.062  14.743  0.00  0.00    +0.000 HD
ENDBRANCH  20  21
ENDBRANCH  18  20
ENDBRANCH  17  18
ENDBRANCH   1  17
TORSDOF 6
ENDMDL
MODEL 2
REMARK VINA RESULT:      -8.5      2.645      4.616
REMARK  Name = 
REMARK  6 active torsions:
REMARK  status: ('A' for Active; 'I' for Inactive)
REMARK    1  A    between atoms: C_2  and  C_3
REMARK    2  A    between atoms: C_2  and  C_20
REMARK    3  A    between atoms: C_3  and  C_4
REMARK    4  A    between atoms: C_4  and  C_5
REMARK    5  A    between atoms: C_10  and  C_11
REMARK    6  A    between atoms: C_16  and  O_17
REMARK                            x       y       z     vdW  Elec       q    Type
REMARK                         _______ _______ _______ _____ _____    ______ ____
ROOT
ATOM      1  C   UNL     1       2.262   6.904  19.683  0.00  0.00    +0.000 A 
ATOM      2  N   UNL     1       2.890   6.888  18.512  0.00  0.00    +0.000 NA
ATOM      3  N   UNL     1       2.666   8.106  17.871  0.00  0.00    +0.000 NA
ATOM      4  C   UNL     1       1.914   8.787  18.676  0.00  0.00    +0.000 A 
ATOM      5  S   UNL     1       1.163  10.319  18.696  0.00  0.00    +0.000 S 
ATOM      6  C   UNL     1       0.489   9.836  20.286  0.00  0.00    +0.000 A 
ATOM      7  N   UNL     1       0.811   8.651  20.734  0.00  0.00    +0.000 NA
ATOM      8  N   UNL     1       1.617   8.104  19.802  0.00  0.00    +0.000 N 
ENDROOT
BRANCH   6   9
ATOM      9  C   UNL     1      -0.412  10.768  20.995  0.00  0.00    +0.000 A 
ATOM     10  C   UNL     1      -1.291  11.588  20.274  0.00  0.00    +0.000 A 
ATOM     11  C   UNL     1      -2.201  12.402  20.947  0.00  0.00    +0.000 A 
ATOM     12  C   UNL     1      -2.241  12.398  22.340  0.00  0.00    +0.000 A 
ATOM     13  C   UNL     1      -1.367  11.595  23.069  0.00  0.00    +0.000 A 
ATOM     14  C   UNL     1      -0.450  10.786  22.397  0.00  0.00    +0.000 A 
BRANCH  14  15
ATOM     15  O   UNL     1       0.428  10.028  23.122  0.00  0.00    +0.000 OA
ATOM     16  H   UNL     1       1.330  10.146  22.788  0.00  0.00    +0.000 HD
ENDBRANCH  14  15
ENDBRANCH   6   9
BRANCH   1  17
ATOM     17  C   UNL     1       2.210   5.826  20.709  0.00  0.00    +0.000 C 
BRANCH  17  18
ATOM     18  C   UNL     1       1.856   4.465  20.111  0.00  0.00    +0.000 C 
BRANCH  18  20
ATOM     19  O   UNL     1       3.175   2.592  20.865  0.00  0.00    +0.000 OA
ATOM     20  C   UNL     1       3.054   3.535  20.081  0.00  0.00    +0.000 C 
BRANCH  20  21
ATOM     21  C   UNL     1       4.040   3.799  19.052  0.00  0.00    +0.000 A 
ATOM     22  N   UNL     1       5.305   4.110  19.265  0.00  0.00    +0.000 NA
ATOM     23  C   UNL     1       5.852   4.303  18.018  0.00  0.00    +0.000 A 
ATOM     24  C   UNL     1       7.165   4.634  17.650  0.00  0.00    +0.000 A 
ATOM     25  C   UNL     1       7.461   4.790  16.289  0.00  0.00    +0.000 A 
ATOM     26  C   UNL     1       6.470   4.633  15.316  0.00  0.00    +0.000 A 
ATOM     27  C   UNL     1       5.158   4.293  15.665  0.00  0.00    +0.000 A 
ATOM     28  C   UNL     1       4.895   4.126  17.024  0.00  0.00    +0.000 A 
ATOM     29  N   UNL     1       3.763   3.773  17.708  0.00  0.00    +0.000 N 
ATOM     30  H   UNL     1       2.860   3.550  17.312  0.00  0.00    +0.000 HD
ENDBRANCH  20  21
ENDBRANCH  18  20
ENDBRANCH  17  18
ENDBRANCH   1  17
TORSDOF 6
ENDMDL
MODEL 3
REMARK VINA RESULT:      -8.4      0.277      1.132
REMARK  Name = 
REMARK  6 active torsions:
REMARK  status: ('A' for Active; 'I' for Inactive)
REMARK    1  A    between atoms: C_2  and  C_3
REMARK    2  A    between atoms: C_2  and  C_20
REMARK    3  A    between atoms: C_3  and  C_4
REMARK    4  A    between atoms: C_4  and  C_5
REMARK    5  A    between atoms: C_10  and  C_11
REMARK    6  A    between atoms: C_16  and  O_17
REMARK                            x       y       z     vdW  Elec       q    Type
REMARK                         _______ _______ _______ _____ _____    ______ ____
ROOT
ATOM      1  C   UNL     1       5.356   4.659  18.776  0.00  0.00    +0.000 A 
ATOM      2  N   UNL     1       5.079   3.436  18.337  0.00  0.00    +0.000 NA
ATOM      3  N   UNL     1       3.738   3.392  17.958  0.00  0.00    +0.000 NA
ATOM      4  C   UNL     1       3.273   4.578  18.194  0.00  0.00    +0.000 A 
ATOM      5  S   UNL     1       1.778   5.389  18.057  0.00  0.00    +0.000 S 
ATOM      6  C   UNL     1       2.620   6.809  18.757  0.00  0.00    +0.000 A 
ATOM      7  N   UNL     1       3.886   6.667  19.049  0.00  0.00    +0.000 NA
ATOM      8  N   UNL     1       4.209   5.403  18.709  0.00  0.00    +0.000 N 
ENDROOT
BRANCH   6   9
ATOM      9  C   UNL     1       1.853   8.048  19.000  0.00  0.00    +0.000 A 
ATOM     10  C   UNL     1       1.467   8.862  17.926  0.00  0.00    +0.000 A 
ATOM     11  C   UNL     1       0.668   9.984  18.149  0.00  0.00    +0.000 A 
ATOM     12  C   UNL     1       0.250  10.294  19.442  0.00  0.00    +0.000 A 
ATOM     13  C   UNL     1       0.634   9.498  20.518  0.00  0.00    +0.000 A 
ATOM     14  C   UNL     1       1.439   8.381  20.298  0.00  0.00    +0.000 A 
BRANCH  14  15
ATOM     15  O   UNL     1       1.840   7.627  21.366  0.00  0.00    +0.000 OA
ATOM     16  H   UNL     1       1.223   6.893  21.511  0.00  0.00    +0.000 HD
ENDBRANCH  14  15
ENDBRANCH   6   9
BRANCH   1  17
ATOM     17  C   UNL     1       6.654   5.176  19.289  0.00  0.00    +0.000 C 
BRANCH  17  18
ATOM     18  C   UNL     1       7.692   5.355  18.183  0.00  0.00    +0.000 C 
BRANCH  18  20
ATOM     19  O   UNL     1       6.940   7.409  17.164  0.00  0.00    +0.000 OA
ATOM     20  C   UNL     1       7.158   6.201  17.042  0.00  0.00    +0.000 C 
BRANCH  20  21
ATOM     21  C   UNL     1       6.946   5.514  15.784  0.00  0.00    +0.000 A 
ATOM     22  N   UNL     1       7.753   5.560  14.740  0.00  0.00    +0.000 NA
ATOM     23  C   UNL     1       7.147   4.796  13.771  0.00  0.00    +0.000 A 
ATOM     24  C   UNL     1       7.571   4.484  12.471  0.00  0.00    +0.000 A 
ATOM     25  C   UNL     1       6.745   3.684  11.668  0.00  0.00    +0.000 A 
ATOM     26  C   UNL     1       5.518   3.216  12.145  0.00  0.00    +0.000 A 
ATOM     27  C   UNL     1       5.084   3.508  13.443  0.00  0.00    +0.000 A 
ATOM     28  C   UNL     1       5.934   4.289  14.226  0.00  0.00    +0.000 A 
ATOM     29  N   UNL     1       5.848   4.733  15.518  0.00  0.00    +0.000 N 
ATOM     30  H   UNL     1       5.102   4.550  16.175  0.00  0.00    +0.000 HD
ENDBRANCH  20  21
ENDBRANCH  18  20
ENDBRANCH  17  18
ENDBRANCH   1  17
TORSDOF 6
ENDMDL
MODEL 4
REMARK VINA RESULT:      -8.3      5.099      7.177
REMARK  Name = 
REMARK  6 active torsions:
REMARK  status: ('A' for Active; 'I' for Inactive)
REMARK    1  A    between atoms: C_2  and  C_3
REMARK    2  A    between atoms: C_2  and  C_20
REMARK    3  A    between atoms: C_3  and  C_4
REMARK    4  A    between atoms: C_4  and  C_5
REMARK    5  A    between atoms: C_10  and  C_11
REMARK    6  A    between atoms: C_16  and  O_17
REMARK                            x       y       z     vdW  Elec       q    Type
REMARK                         _______ _______ _______ _____ _____    ______ ____
ROOT
ATOM      1  C   UNL     1       7.441   6.815  17.394  0.00  0.00    +0.000 A 
ATOM      2  N   UNL     1       7.731   6.620  16.112  0.00  0.00    +0.000 NA
ATOM      3  N   UNL     1       6.818   5.708  15.583  0.00  0.00    +0.000 NA
ATOM      4  C   UNL     1       6.035   5.394  16.566  0.00  0.00    +0.000 A 
ATOM      5  S   UNL     1       4.696   4.367  16.824  0.00  0.00    +0.000 S 
ATOM      6  C   UNL     1       4.752   4.922  18.529  0.00  0.00    +0.000 A 
ATOM      7  N   UNL     1       5.679   5.787  18.844  0.00  0.00    +0.000 NA
ATOM      8  N   UNL     1       6.368   6.027  17.711  0.00  0.00    +0.000 N 
ENDROOT
BRANCH   6   9
ATOM      9  C   UNL     1       3.784   4.363  19.495  0.00  0.00    +0.000 A 
ATOM     10  C   UNL     1       3.806   2.997  19.808  0.00  0.00    +0.000 A 
ATOM     11  C   UNL     1       2.950   2.488  20.785  0.00  0.00    +0.000 A 
ATOM     12  C   UNL     1       2.073   3.340  21.454  0.00  0.00    +0.000 A 
ATOM     13  C   UNL     1       2.035   4.698  21.145  0.00  0.00    +0.000 A 
ATOM     14  C   UNL     1       2.884   5.207  20.163  0.00  0.00    +0.000 A 
BRANCH  14  15
ATOM     15  O   UNL     1       2.813   6.535  19.843  0.00  0.00    +0.000 OA
ATOM     16  H   UNL     1       3.688   6.866  19.587  0.00  0.00    +0.000 HD
ENDBRANCH  14  15
ENDBRANCH   6   9
BRANCH   1  17
ATOM     17  C   UNL     1       8.142   7.697  18.367  0.00  0.00    +0.000 C 
BRANCH  17  18
ATOM     18  C   UNL     1       8.236   9.143  17.884  0.00  0.00    +0.000 C 
BRANCH  18  20
ATOM     19  O   UNL     1       9.133   9.684  20.058  0.00  0.00    +0.000 OA
ATOM     20  C   UNL     1       8.960  10.025  18.885  0.00  0.00    +0.000 C 
BRANCH  20  21
ATOM     21  C   UNL     1       9.467  11.283  18.377  0.00  0.00    +0.000 A 
ATOM     22  N   UNL     1      10.558  11.431  17.648  0.00  0.00    +0.000 NA
ATOM     23  C   UNL     1      10.670  12.783  17.423  0.00  0.00    +0.000 A 
ATOM     24  C   UNL     1      11.630  13.500  16.694  0.00  0.00    +0.000 A 
ATOM     25  C   UNL     1      11.522  14.896  16.633  0.00  0.00    +0.000 A 
ATOM     26  C   UNL     1      10.488  15.565  17.294  0.00  0.00    +0.000 A 
ATOM     27  C   UNL     1       9.516  14.866  18.017  0.00  0.00    +0.000 A 
ATOM     28  C   UNL     1       9.637  13.476  18.045  0.00  0.00    +0.000 A 
ATOM     29  N   UNL     1       8.870  12.496  18.614  0.00  0.00    +0.000 N 
ATOM     30  H   UNL     1       8.018  12.622  19.144  0.00  0.00    +0.000 HD
ENDBRANCH  20  21
ENDBRANCH  18  20
ENDBRANCH  17  18
ENDBRANCH   1  17
TORSDOF 6
ENDMDL
MODEL 5
REMARK VINA RESULT:      -8.2      0.935      1.299
REMARK  Name = 
REMARK  6 active torsions:
REMARK  status: ('A' for Active; 'I' for Inactive)
REMARK    1  A    between atoms: C_2  and  C_3
REMARK    2  A    between atoms: C_2  and  C_20
REMARK    3  A    between atoms: C_3  and  C_4
REMARK    4  A    between atoms: C_4  and  C_5
REMARK    5  A    between atoms: C_10  and  C_11
REMARK    6  A    between atoms: C_16  and  O_17
REMARK                            x       y       z     vdW  Elec       q    Type
REMARK                         _______ _______ _______ _____ _____    ______ ____
ROOT
ATOM      1  C   UNL     1       5.439   4.713  19.376  0.00  0.00    +0.000 A 
ATOM      2  N   UNL     1       5.201   3.406  19.389  0.00  0.00    +0.000 NA
ATOM      3  N   UNL     1       3.822   3.206  19.440  0.00  0.00    +0.000 NA
ATOM      4  C   UNL     1       3.301   4.391  19.463  0.00  0.00    +0.000 A 
ATOM      5  S   UNL     1       1.739   5.074  19.544  0.00  0.00    +0.000 S 
ATOM      6  C   UNL     1       2.564   6.665  19.553  0.00  0.00    +0.000 A 
ATOM      7  N   UNL     1       3.870   6.660  19.496  0.00  0.00    +0.000 NA
ATOM      8  N   UNL     1       4.237   5.364  19.439  0.00  0.00    +0.000 N 
ENDROOT
BRANCH   6   9
ATOM      9  C   UNL     1       1.750   7.894  19.655  0.00  0.00    +0.000 A 
ATOM     10  C   UNL     1       1.082   8.202  20.848  0.00  0.00    +0.000 A 
ATOM     11  C   UNL     1       0.386   9.404  20.971  0.00  0.00    +0.000 A 
ATOM     12  C   UNL     1       0.357  10.304  19.907  0.00  0.00    +0.000 A 
ATOM     13  C   UNL     1       1.009  10.005  18.713  0.00  0.00    +0.000 A 
ATOM     14  C   UNL     1       1.698   8.800  18.585  0.00  0.00    +0.000 A 
BRANCH  14  15
ATOM     15  O   UNL     1       2.304   8.500  17.396  0.00  0.00    +0.000 OA
ATOM     16  H   UNL     1       3.117   7.994  17.551  0.00  0.00    +0.000 HD
ENDBRANCH  14  15
ENDBRANCH   6   9
BRANCH   1  17
ATOM     17  C   UNL     1       6.757   5.403  19.331  0.00  0.00    +0.000 C 
BRANCH  17  18
ATOM     18  C   UNL     1       7.564   5.042  18.085  0.00  0.00    +0.000 C 
BRANCH  18  20
ATOM     19  O   UNL     1       7.365   7.217  17.060  0.00  0.00    +0.000 OA
ATOM     20  C   UNL     1       7.283   5.992  16.936  0.00  0.00    +0.000 C 
BRANCH  20  21
ATOM     21  C   UNL     1       6.940   5.378  15.670  0.00  0.00    +0.000 A 
ATOM     22  N   UNL     1       5.856   4.662  15.434  0.00  0.00    +0.000 NA
ATOM     23  C   UNL     1       5.960   4.256  14.124  0.00  0.00    +0.000 A 
ATOM     24  C   UNL     1       5.081   3.489  13.345  0.00  0.00    +0.000 A 
ATOM     25  C   UNL     1       5.437   3.199  12.020  0.00  0.00    +0.000 A 
ATOM     26  C   UNL     1       6.646   3.653  11.487  0.00  0.00    +0.000 A 
ATOM     27  C   UNL     1       7.529   4.429  12.246  0.00  0.00    +0.000 A 
ATOM     28  C   UNL     1       7.142   4.717  13.555  0.00  0.00    +0.000 A 
ATOM     29  N   UNL     1       7.728   5.455  14.548  0.00  0.00    +0.000 N 
ATOM     30  H   UNL     1       8.602   5.959  14.495  0.00  0.00    +0.000 HD
ENDBRANCH  20  21
ENDBRANCH  18  20
ENDBRANCH  17  18
ENDBRANCH   1  17
TORSDOF 6
ENDMDL
MODEL 6
REMARK VINA RESULT:      -8.1      5.074      7.069
REMARK  Name = 
REMARK  6 active torsions:
REMARK  status: ('A' for Active; 'I' for Inactive)
REMARK    1  A    between atoms: C_2  and  C_3
REMARK    2  A    between atoms: C_2  and  C_20
REMARK    3  A    between atoms: C_3  and  C_4
REMARK    4  A    between atoms: C_4  and  C_5
REMARK    5  A    between atoms: C_10  and  C_11
REMARK    6  A    between atoms: C_16  and  O_17
REMARK                            x       y       z     vdW  Elec       q    Type
REMARK                         _______ _______ _______ _____ _____    ______ ____
ROOT
ATOM      1  C   UNL     1       7.407   6.843  17.425  0.00  0.00    +0.000 A 
ATOM      2  N   UNL     1       7.833   6.625  16.185  0.00  0.00    +0.000 NA
ATOM      3  N   UNL     1       6.986   5.699  15.579  0.00  0.00    +0.000 NA
ATOM      4  C   UNL     1       6.102   5.400  16.477  0.00  0.00    +0.000 A 
ATOM      5  S   UNL     1       4.746   4.371  16.610  0.00  0.00    +0.000 S 
ATOM      6  C   UNL     1       4.616   4.958  18.299  0.00  0.00    +0.000 A 
ATOM      7  N   UNL     1       5.502   5.834  18.696  0.00  0.00    +0.000 NA
ATOM      8  N   UNL     1       6.308   6.056  17.639  0.00  0.00    +0.000 N 
ENDROOT
BRANCH   6   9
ATOM      9  C   UNL     1       3.552   4.412  19.166  0.00  0.00    +0.000 A 
ATOM     10  C   UNL     1       3.346   3.028  19.247  0.00  0.00    +0.000 A 
ATOM     11  C   UNL     1       2.400   2.511  20.132  0.00  0.00    +0.000 A 
ATOM     12  C   UNL     1       1.660   3.372  20.941  0.00  0.00    +0.000 A 
ATOM     13  C   UNL     1       1.848   4.749  20.863  0.00  0.00    +0.000 A 
ATOM     14  C   UNL     1       2.788   5.269  19.973  0.00  0.00    +0.000 A 
BRANCH  14  15
ATOM     15  O   UNL     1       2.940   6.625  19.879  0.00  0.00    +0.000 OA
ATOM     16  H   UNL     1       2.263   7.077  20.406  0.00  0.00    +0.000 HD
ENDBRANCH  14  15
ENDBRANCH   6   9
BRANCH   1  17
ATOM     17  C   UNL     1       7.995   7.746  18.451  0.00  0.00    +0.000 C 
BRANCH  17  18
ATOM     18  C   UNL     1       8.377   9.111  17.879  0.00  0.00    +0.000 C 
BRANCH  18  20
ATOM     19  O   UNL     1       9.073   9.675  20.119  0.00  0.00    +0.000 OA
ATOM     20  C   UNL     1       8.987  10.013  18.937  0.00  0.00    +0.000 C 
BRANCH  20  21
ATOM     21  C   UNL     1       9.495  11.287  18.471  0.00  0.00    +0.000 A 
ATOM     22  N   UNL     1       8.987  12.469  18.767  0.00  0.00    +0.000 NA
ATOM     23  C   UNL     1       9.759  13.383  18.089  0.00  0.00    +0.000 A 
ATOM     24  C   UNL     1       9.679  14.783  18.055  0.00  0.00    +0.000 A 
ATOM     25  C   UNL     1      10.591  15.489  17.258  0.00  0.00    +0.000 A 
ATOM     26  C   UNL     1      11.554  14.814  16.502  0.00  0.00    +0.000 A 
ATOM     27  C   UNL     1      11.655  13.419  16.532  0.00  0.00    +0.000 A 
ATOM     28  C   UNL     1      10.746  12.744  17.347  0.00  0.00    +0.000 A 
ATOM     29  N   UNL     1      10.577  11.416  17.636  0.00  0.00    +0.000 N 
ATOM     30  H   UNL     1      11.127  10.644  17.286  0.00  0.00    +0.000 HD
ENDBRANCH  20  21
ENDBRANCH  18  20
ENDBRANCH  17  18
ENDBRANCH   1  17
TORSDOF 6
ENDMDL
MODEL 7
REMARK VINA RESULT:      -8.1      2.723      4.626
REMARK  Name = 
REMARK  6 active torsions:
REMARK  status: ('A' for Active; 'I' for Inactive)
REMARK    1  A    between atoms: C_2  and  C_3
REMARK    2  A    between atoms: C_2  and  C_20
REMARK    3  A    between atoms: C_3  and  C_4
REMARK    4  A    between atoms: C_4  and  C_5
REMARK    5  A    between atoms: C_10  and  C_11
REMARK    6  A    between atoms: C_16  and  O_17
REMARK                            x       y       z     vdW  Elec       q    Type
REMARK                         _______ _______ _______ _____ _____    ______ ____
ROOT
ATOM      1  C   UNL     1       2.284   7.335  19.329  0.00  0.00    +0.000 A 
ATOM      2  N   UNL     1       2.817   7.423  18.114  0.00  0.00    +0.000 NA
ATOM      3  N   UNL     1       2.452   8.648  17.557  0.00  0.00    +0.000 NA
ATOM      4  C   UNL     1       1.718   9.230  18.451  0.00  0.00    +0.000 A 
ATOM      5  S   UNL     1       0.859  10.696  18.608  0.00  0.00    +0.000 S 
ATOM      6  C   UNL     1       0.352  10.088  20.217  0.00  0.00    +0.000 A 
ATOM      7  N   UNL     1       0.796   8.913  20.578  0.00  0.00    +0.000 NA
ATOM      8  N   UNL     1       1.564   8.474  19.559  0.00  0.00    +0.000 N 
ENDROOT
BRANCH   6   9
ATOM      9  C   UNL     1      -0.556  10.913  21.040  0.00  0.00    +0.000 A 
ATOM     10  C   UNL     1      -1.498  11.752  20.429  0.00  0.00    +0.000 A 
ATOM     11  C   UNL     1      -2.412  12.463  21.207  0.00  0.00    +0.000 A 
ATOM     12  C   UNL     1      -2.392  12.336  22.595  0.00  0.00    +0.000 A 
ATOM     13  C   UNL     1      -1.455  11.513  23.215  0.00  0.00    +0.000 A 
ATOM     14  C   UNL     1      -0.535  10.808  22.439  0.00  0.00    +0.000 A 
BRANCH  14  15
ATOM     15  O   UNL     1       0.403  10.030  23.060  0.00  0.00    +0.000 OA
ATOM     16  H   UNL     1       0.917  10.559  23.689  0.00  0.00    +0.000 HD
ENDBRANCH  14  15
ENDBRANCH   6   9
BRANCH   1  17
ATOM     17  C   UNL     1       2.395   6.210  20.298  0.00  0.00    +0.000 C 
BRANCH  17  18
ATOM     18  C   UNL     1       1.752   4.925  19.780  0.00  0.00    +0.000 C 
BRANCH  18  20
ATOM     19  O   UNL     1       2.727   2.770  20.256  0.00  0.00    +0.000 OA
ATOM     20  C   UNL     1       2.773   3.816  19.604  0.00  0.00    +0.000 C 
BRANCH  20  21
ATOM     21  C   UNL     1       3.792   4.042  18.600  0.00  0.00    +0.000 A 
ATOM     22  N   UNL     1       3.612   3.970  17.294  0.00  0.00    +0.000 NA
ATOM     23  C   UNL     1       4.843   4.222  16.737  0.00  0.00    +0.000 A 
ATOM     24  C   UNL     1       5.228   4.289  15.389  0.00  0.00    +0.000 A 
ATOM     25  C   UNL     1       6.571   4.551  15.086  0.00  0.00    +0.000 A 
ATOM     26  C   UNL     1       7.514   4.729  16.102  0.00  0.00    +0.000 A 
ATOM     27  C   UNL     1       7.147   4.676  17.452  0.00  0.00    +0.000 A 
ATOM     28  C   UNL     1       5.800   4.433  17.724  0.00  0.00    +0.000 A 
ATOM     29  N   UNL     1       5.098   4.346  18.896  0.00  0.00    +0.000 N 
ATOM     30  H   UNL     1       5.463   4.460  19.832  0.00  0.00    +0.000 HD
ENDBRANCH  20  21
ENDBRANCH  18  20
ENDBRANCH  17  18
ENDBRANCH   1  17
TORSDOF 6
ENDMDL
MODEL 8
REMARK VINA RESULT:      -8.1      0.923      1.701
REMARK  Name = 
REMARK  6 active torsions:
REMARK  status: ('A' for Active; 'I' for Inactive)
REMARK    1  A    between atoms: C_2  and  C_3
REMARK    2  A    between atoms: C_2  and  C_20
REMARK    3  A    between atoms: C_3  and  C_4
REMARK    4  A    between atoms: C_4  and  C_5
REMARK    5  A    between atoms: C_10  and  C_11
REMARK    6  A    between atoms: C_16  and  O_17
REMARK                            x       y       z     vdW  Elec       q    Type
REMARK                         _______ _______ _______ _____ _____    ______ ____
ROOT
ATOM      1  C   UNL     1       5.378   4.566  18.722  0.00  0.00    +0.000 A 
ATOM      2  N   UNL     1       5.097   3.392  18.167  0.00  0.00    +0.000 NA
ATOM      3  N   UNL     1       3.739   3.361  17.854  0.00  0.00    +0.000 NA
ATOM      4  C   UNL     1       3.269   4.505  18.240  0.00  0.00    +0.000 A 
ATOM      5  S   UNL     1       1.757   5.295  18.267  0.00  0.00    +0.000 S 
ATOM      6  C   UNL     1       2.613   6.648  19.074  0.00  0.00    +0.000 A 
ATOM      7  N   UNL     1       3.895   6.502  19.285  0.00  0.00    +0.000 NA
ATOM      8  N   UNL     1       4.218   5.289  18.794  0.00  0.00    +0.000 N 
ENDROOT
BRANCH   6   9
ATOM      9  C   UNL     1       1.841   7.838  19.489  0.00  0.00    +0.000 A 
ATOM     10  C   UNL     1       1.297   7.914  20.778  0.00  0.00    +0.000 A 
ATOM     11  C   UNL     1       0.645   9.073  21.196  0.00  0.00    +0.000 A 
ATOM     12  C   UNL     1       0.536  10.161  20.332  0.00  0.00    +0.000 A 
ATOM     13  C   UNL     1       1.064  10.095  19.044  0.00  0.00    +0.000 A 
ATOM     14  C   UNL     1       1.709   8.933  18.622  0.00  0.00    +0.000 A 
BRANCH  14  15
ATOM     15  O   UNL     1       2.192   8.865  17.344  0.00  0.00    +0.000 OA
ATOM     16  H   UNL     1       2.989   8.313  17.314  0.00  0.00    +0.000 HD
ENDBRANCH  14  15
ENDBRANCH   6   9
BRANCH   1  17
ATOM     17  C   UNL     1       6.693   5.051  19.222  0.00  0.00    +0.000 C 
BRANCH  17  18
ATOM     18  C   UNL     1       7.683   5.329  18.092  0.00  0.00    +0.000 C 
BRANCH  18  20
ATOM     19  O   UNL     1       6.728   7.326  17.132  0.00  0.00    +0.000 OA
ATOM     20  C   UNL     1       7.052   6.146  16.979  0.00  0.00    +0.000 C 
BRANCH  20  21
ATOM     21  C   UNL     1       6.880   5.469  15.710  0.00  0.00    +0.000 A 
ATOM     22  N   UNL     1       7.720   5.519  14.694  0.00  0.00    +0.000 NA
ATOM     23  C   UNL     1       7.144   4.764  13.700  0.00  0.00    +0.000 A 
ATOM     24  C   UNL     1       7.609   4.460  12.412  0.00  0.00    +0.000 A 
ATOM     25  C   UNL     1       6.808   3.668  11.578  0.00  0.00    +0.000 A 
ATOM     26  C   UNL     1       5.565   3.199  12.012  0.00  0.00    +0.000 A 
ATOM     27  C   UNL     1       5.090   3.483  13.297  0.00  0.00    +0.000 A 
ATOM     28  C   UNL     1       5.916   4.257  14.112  0.00  0.00    +0.000 A 
ATOM     29  N   UNL     1       5.789   4.692  15.404  0.00  0.00    +0.000 N 
ATOM     30  H   UNL     1       5.022   4.506  16.035  0.00  0.00    +0.000 HD
ENDBRANCH  20  21
ENDBRANCH  18  20
ENDBRANCH  17  18
ENDBRANCH   1  17
TORSDOF 6
ENDMDL
MODEL 9
REMARK VINA RESULT:      -8.0      2.532      4.202
REMARK  Name = 
REMARK  6 active torsions:
REMARK  status: ('A' for Active; 'I' for Inactive)
REMARK    1  A    between atoms: C_2  and  C_3
REMARK    2  A    between atoms: C_2  and  C_20
REMARK    3  A    between atoms: C_3  and  C_4
REMARK    4  A    between atoms: C_4  and  C_5
REMARK    5  A    between atoms: C_10  and  C_11
REMARK    6  A    between atoms: C_16  and  O_17
REMARK                            x       y       z     vdW  Elec       q    Type
REMARK                         _______ _______ _______ _____ _____    ______ ____
ROOT
ATOM      1  C   UNL     1       2.370   6.243  19.710  0.00  0.00    +0.000 A 
ATOM      2  N   UNL     1       2.796   6.188  18.452  0.00  0.00    +0.000 NA
ATOM      3  N   UNL     1       2.574   7.427  17.853  0.00  0.00    +0.000 NA
ATOM      4  C   UNL     1       2.022   8.160  18.768  0.00  0.00    +0.000 A 
ATOM      5  S   UNL     1       1.414   9.748  18.906  0.00  0.00    +0.000 S 
ATOM      6  C   UNL     1       0.970   9.305  20.586  0.00  0.00    +0.000 A 
ATOM      7  N   UNL     1       1.261   8.092  20.979  0.00  0.00    +0.000 NA
ATOM      8  N   UNL     1       1.856   7.491  19.929  0.00  0.00    +0.000 N 
ENDROOT
BRANCH   6   9
ATOM      9  C   UNL     1       0.277  10.300  21.430  0.00  0.00    +0.000 A 
ATOM     10  C   UNL     1       0.438  11.670  21.183  0.00  0.00    +0.000 A 
ATOM     11  C   UNL     1      -0.285  12.605  21.924  0.00  0.00    +0.000 A 
ATOM     12  C   UNL     1      -1.173  12.176  22.909  0.00  0.00    +0.000 A 
ATOM     13  C   UNL     1      -1.335  10.818  23.171  0.00  0.00    +0.000 A 
ATOM     14  C   UNL     1      -0.607   9.882  22.436  0.00  0.00    +0.000 A 
BRANCH  14  15
ATOM     15  O   UNL     1      -0.747   8.552  22.725  0.00  0.00    +0.000 OA
ATOM     16  H   UNL     1      -1.312   8.435  23.504  0.00  0.00    +0.000 HD
ENDBRANCH  14  15
ENDBRANCH   6   9
BRANCH   1  17
ATOM     17  C   UNL     1       2.396   5.162  20.733  0.00  0.00    +0.000 C 
BRANCH  17  18
ATOM     18  C   UNL     1       2.259   3.770  20.119  0.00  0.00    +0.000 C 
BRANCH  18  20
ATOM     19  O   UNL     1       4.024   2.244  20.733  0.00  0.00    +0.000 OA
ATOM     20  C   UNL     1       3.608   3.096  19.945  0.00  0.00    +0.000 C 
BRANCH  20  21
ATOM     21  C   UNL     1       4.371   3.489  18.777  0.00  0.00    +0.000 A 
ATOM     22  N   UNL     1       4.009   3.291  17.523  0.00  0.00    +0.000 NA
ATOM     23  C   UNL     1       5.038   3.788  16.760  0.00  0.00    +0.000 A 
ATOM     24  C   UNL     1       5.177   3.856  15.365  0.00  0.00    +0.000 A 
ATOM     25  C   UNL     1       6.351   4.404  14.832  0.00  0.00    +0.000 A 
ATOM     26  C   UNL     1       7.372   4.864  15.669  0.00  0.00    +0.000 A 
ATOM     27  C   UNL     1       7.247   4.814  17.062  0.00  0.00    +0.000 A 
ATOM     28  C   UNL     1       6.060   4.281  17.565  0.00  0.00    +0.000 A 
ATOM     29  N   UNL     1       5.594   4.109  18.841  0.00  0.00    +0.000 N 
ATOM     30  H   UNL     1       6.064   4.366  19.698  0.00  0.00    +0.000 HD
ENDBRANCH  20  21
ENDBRANCH  18  20
ENDBRANCH  17  18
ENDBRANCH   1  17
TORSDOF 6
ENDMDL
