MODEL 1
REMARK VINA RESULT:      -7.6      0.000      0.000
REMARK  Name = 
REMARK  10 active torsions:
REMARK  status: ('A' for Active; 'I' for Inactive)
REMARK    1  A    between atoms: N_1  and  C_2
REMARK    2  A    between atoms: C_7  and  N_8
REMARK    3  A    between atoms: C_9  and  C_11
REMARK    4  A    between atoms: C_11  and  C_12
REMARK    5  A    between atoms: C_12  and  C_13
REMARK    6  A    between atoms: C_13  and  C_14
REMARK    7  A    between atoms: C_14  and  C_15
REMARK    8  A    between atoms: C_15  and  C_16
REMARK    9  A    between atoms: N_18  and  C_19
REMARK   10  A    between atoms: C_22  and  O_23
REMARK                            x       y       z     vdW  Elec       q    Type
REMARK                         _______ _______ _______ _____ _____    ______ ____
ROOT
ATOM      1  C   UNL     1       2.430   2.119  18.041  0.00  0.00    +0.000 C 
ENDROOT
BRANCH   1   2
ATOM      2  C   UNL     1       2.588   3.373  17.192  0.00  0.00    +0.000 C 
BRANCH   2   4
ATOM      3  N   UNL     1       4.307   4.951  17.900  0.00  0.00    +0.000 N 
ATOM      4  C   UNL     1       4.045   3.787  17.193  0.00  0.00    +0.000 C 
ATOM      5  O   UNL     1       4.871   3.058  16.645  0.00  0.00    +0.000 OA
ATOM      6  H   UNL     1       3.557   5.340  18.452  0.00  0.00    +0.000 HD
BRANCH   3  12
ATOM      7  C   UNL     1       6.037   6.496  17.080  0.00  0.00    +0.000 A 
ATOM      8  C   UNL     1       7.261   7.156  17.305  0.00  0.00    +0.000 A 
ATOM      9  C   UNL     1       8.061   6.852  18.408  0.00  0.00    +0.000 A 
ATOM     10  C   UNL     1       7.633   5.905  19.324  0.00  0.00    +0.000 A 
ATOM     11  C   UNL     1       6.405   5.271  19.142  0.00  0.00    +0.000 A 
ATOM     12  C   UNL     1       5.578   5.571  18.049  0.00  0.00    +0.000 A 
BRANCH   7  13
ATOM     13  N   UNL     1       5.227   6.978  16.030  0.00  0.00    +0.000 N 
ATOM     14  H   UNL     1       5.752   7.171  15.183  0.00  0.00    +0.000 HD
ATOM     15  H   UNL     1       4.395   6.442  15.832  0.00  0.00    +0.000 HD
ENDBRANCH   7  13
ENDBRANCH   3  12
ENDBRANCH   2   4
ENDBRANCH   1   2
BRANCH   1  16
ATOM     16  C   UNL     1       1.755   2.392  19.385  0.00  0.00    +0.000 C 
BRANCH  16  17
ATOM     17  C   UNL     1       2.816   2.737  20.427  0.00  0.00    +0.000 C 
BRANCH  17  18
ATOM     18  C   UNL     1       2.357   3.802  21.424  0.00  0.00    +0.000 C 
BRANCH  18  19
ATOM     19  C   UNL     1       1.663   4.942  20.693  0.00  0.00    +0.000 C 
ATOM     20  O   UNL     1       0.458   4.892  20.458  0.00  0.00    +0.000 OA
ATOM     21  N   UNL     1       2.507   5.999  20.392  0.00  0.00    +0.000 N 
ATOM     22  H   UNL     1       3.487   5.884  20.583  0.00  0.00    +0.000 HD
BRANCH  21  23
ATOM     23  C   UNL     1       2.124   7.231  19.803  0.00  0.00    +0.000 A 
ATOM     24  C   UNL     1       2.392   7.561  18.470  0.00  0.00    +0.000 A 
ATOM     25  C   UNL     1       1.959   8.770  17.924  0.00  0.00    +0.000 A 
ATOM     26  C   UNL     1       1.253   9.665  18.717  0.00  0.00    +0.000 A 
ATOM     27  C   UNL     1       0.992   9.368  20.048  0.00  0.00    +0.000 A 
ATOM     28  C   UNL     1       1.427   8.151  20.592  0.00  0.00    +0.000 A 
BRANCH  26  29
ATOM     29  O   UNL     1       0.801  10.845  18.210  0.00  0.00    +0.000 OA
ATOM     30  H   UNL     1       0.435  11.371  18.942  0.00  0.00    +0.000 HD
ENDBRANCH  26  29
ENDBRANCH  21  23
ENDBRANCH  18  19
ENDBRANCH  17  18
ENDBRANCH  16  17
ENDBRANCH   1  16
TORSDOF 10
ENDMDL
MODEL 2
REMARK VINA RESULT:      -7.5      1.666      5.401
REMARK  Name = 
REMARK  10 active torsions:
REMARK  status: ('A' for Active; 'I' for Inactive)
REMARK    1  A    between atoms: N_1  and  C_2
REMARK    2  A    between atoms: C_7  and  N_8
REMARK    3  A    between atoms: C_9  and  C_11
REMARK    4  A    between atoms: C_11  and  C_12
REMARK    5  A    between atoms: C_12  and  C_13
REMARK    6  A    between atoms: C_13  and  C_14
REMARK    7  A    between atoms: C_14  and  C_15
REMARK    8  A    between atoms: C_15  and  C_16
REMARK    9  A    between atoms: N_18  and  C_19
REMARK   10  A    between atoms: C_22  and  O_23
REMARK                            x       y       z     vdW  Elec       q    Type
REMARK                         _______ _______ _______ _____ _____    ______ ____
ROOT
ATOM      1  C   UNL     1       1.804   2.774  20.991  0.00  0.00    +0.000 C 
ENDROOT
BRANCH   1   2
ATOM      2  C   UNL     1       2.695   4.008  20.998  0.00  0.00    +0.000 C 
BRANCH   2   4
ATOM      3  N   UNL     1       2.663   6.265  20.074  0.00  0.00    +0.000 N 
ATOM      4  C   UNL     1       1.893   5.197  20.511  0.00  0.00    +0.000 C 
ATOM      5  O   UNL     1       0.667   5.114  20.476  0.00  0.00    +0.000 OA
ATOM      6  H   UNL     1       3.659   6.118  19.989  0.00  0.00    +0.000 HD
BRANCH   3  12
ATOM      7  C   UNL     1       1.466   8.382  20.443  0.00  0.00    +0.000 A 
ATOM      8  C   UNL     1       1.070   9.639  19.946  0.00  0.00    +0.000 A 
ATOM      9  C   UNL     1       1.282   9.996  18.614  0.00  0.00    +0.000 A 
ATOM     10  C   UNL     1       1.924   9.111  17.762  0.00  0.00    +0.000 A 
ATOM     11  C   UNL     1       2.360   7.879  18.244  0.00  0.00    +0.000 A 
ATOM     12  C   UNL     1       2.172   7.506  19.583  0.00  0.00    +0.000 A 
BRANCH   7  13
ATOM     13  N   UNL     1       1.353   8.172  21.834  0.00  0.00    +0.000 N 
ATOM     14  H   UNL     1       0.484   7.717  22.095  0.00  0.00    +0.000 HD
ATOM     15  H   UNL     1       2.145   7.736  22.281  0.00  0.00    +0.000 HD
ENDBRANCH   7  13
ENDBRANCH   3  12
ENDBRANCH   2   4
ENDBRANCH   1   2
BRANCH   1  16
ATOM     16  C   UNL     1       1.817   2.039  19.651  0.00  0.00    +0.000 C 
BRANCH  16  17
ATOM     17  C   UNL     1       3.250   1.954  19.130  0.00  0.00    +0.000 C 
BRANCH  17  18
ATOM     18  C   UNL     1       3.386   2.379  17.668  0.00  0.00    +0.000 C 
BRANCH  18  19
ATOM     19  C   UNL     1       3.978   3.778  17.579  0.00  0.00    +0.000 C 
ATOM     20  O   UNL     1       3.251   4.755  17.424  0.00  0.00    +0.000 OA
ATOM     21  N   UNL     1       5.354   3.806  17.737  0.00  0.00    +0.000 N 
ATOM     22  H   UNL     1       5.837   2.925  17.792  0.00  0.00    +0.000 HD
BRANCH  21  23
ATOM     23  C   UNL     1       6.165   4.968  17.796  0.00  0.00    +0.000 A 
ATOM     24  C   UNL     1       6.117   5.987  16.840  0.00  0.00    +0.000 A 
ATOM     25  C   UNL     1       6.905   7.132  16.963  0.00  0.00    +0.000 A 
ATOM     26  C   UNL     1       7.756   7.263  18.053  0.00  0.00    +0.000 A 
ATOM     27  C   UNL     1       7.834   6.255  19.006  0.00  0.00    +0.000 A 
ATOM     28  C   UNL     1       7.039   5.108  18.879  0.00  0.00    +0.000 A 
BRANCH  26  29
ATOM     29  O   UNL     1       8.524   8.375  18.213  0.00  0.00    +0.000 OA
ATOM     30  H   UNL     1       9.121   8.227  18.967  0.00  0.00    +0.000 HD
ENDBRANCH  26  29
ENDBRANCH  21  23
ENDBRANCH  18  19
ENDBRANCH  17  18
ENDBRANCH  16  17
ENDBRANCH   1  16
TORSDOF 10
ENDMDL
MODEL 3
REMARK VINA RESULT:      -7.2      1.942      5.735
REMARK  Name = 
REMARK  10 active torsions:
REMARK  status: ('A' for Active; 'I' for Inactive)
REMARK    1  A    between atoms: N_1  and  C_2
REMARK    2  A    between atoms: C_7  and  N_8
REMARK    3  A    between atoms: C_9  and  C_11
REMARK    4  A    between atoms: C_11  and  C_12
REMARK    5  A    between atoms: C_12  and  C_13
REMARK    6  A    between atoms: C_13  and  C_14
REMARK    7  A    between atoms: C_14  and  C_15
REMARK    8  A    between atoms: C_15  and  C_16
REMARK    9  A    between atoms: N_18  and  C_19
REMARK   10  A    between atoms: C_22  and  O_23
REMARK                            x       y       z     vdW  Elec       q    Type
REMARK                         _______ _______ _______ _____ _____    ______ ____
ROOT
ATOM      1  C   UNL     1       1.015   4.178  20.458  0.00  0.00    +0.000 C 
ENDROOT
BRANCH   1   2
ATOM      2  C   UNL     1       2.307   4.903  20.808  0.00  0.00    +0.000 C 
BRANCH   2   4
ATOM      3  N   UNL     1       1.506   7.205  20.721  0.00  0.00    +0.000 N 
ATOM      4  C   UNL     1       2.316   6.252  20.120  0.00  0.00    +0.000 C 
ATOM      5  O   UNL     1       3.059   6.423  19.156  0.00  0.00    +0.000 OA
ATOM      6  H   UNL     1       1.096   6.973  21.614  0.00  0.00    +0.000 HD
BRANCH   3  12
ATOM      7  C   UNL     1       0.964   9.557  21.199  0.00  0.00    +0.000 A 
ATOM      8  C   UNL     1       0.869  10.884  20.736  0.00  0.00    +0.000 A 
ATOM      9  C   UNL     1       1.026  11.198  19.386  0.00  0.00    +0.000 A 
ATOM     10  C   UNL     1       1.314  10.192  18.478  0.00  0.00    +0.000 A 
ATOM     11  C   UNL     1       1.453   8.878  18.921  0.00  0.00    +0.000 A 
ATOM     12  C   UNL     1       1.315   8.542  20.275  0.00  0.00    +0.000 A 
BRANCH   7  13
ATOM     13  N   UNL     1       0.947   9.356  22.596  0.00  0.00    +0.000 N 
ATOM     14  H   UNL     1       0.665  10.184  23.110  0.00  0.00    +0.000 HD
ATOM     15  H   UNL     1       0.455   8.536  22.919  0.00  0.00    +0.000 HD
ENDBRANCH   7  13
ENDBRANCH   3  12
ENDBRANCH   2   4
ENDBRANCH   1   2
BRANCH   1  16
ATOM     16  C   UNL     1       1.168   2.657  20.458  0.00  0.00    +0.000 C 
BRANCH  16  17
ATOM     17  C   UNL     1       1.224   2.151  19.018  0.00  0.00    +0.000 C 
BRANCH  17  18
ATOM     18  C   UNL     1       2.638   1.788  18.562  0.00  0.00    +0.000 C 
BRANCH  18  19
ATOM     19  C   UNL     1       3.291   2.979  17.874  0.00  0.00    +0.000 C 
ATOM     20  O   UNL     1       2.623   3.747  17.187  0.00  0.00    +0.000 OA
ATOM     21  N   UNL     1       4.643   3.101  18.150  0.00  0.00    +0.000 N 
ATOM     22  H   UNL     1       5.081   2.366  18.677  0.00  0.00    +0.000 HD
BRANCH  21  23
ATOM     23  C   UNL     1       5.488   4.160  17.730  0.00  0.00    +0.000 A 
ATOM     24  C   UNL     1       5.643   4.534  16.391  0.00  0.00    +0.000 A 
ATOM     25  C   UNL     1       6.455   5.610  16.031  0.00  0.00    +0.000 A 
ATOM     26  C   UNL     1       7.126   6.321  17.016  0.00  0.00    +0.000 A 
ATOM     27  C   UNL     1       7.003   5.956  18.351  0.00  0.00    +0.000 A 
ATOM     28  C   UNL     1       6.184   4.876  18.709  0.00  0.00    +0.000 A 
BRANCH  26  29
ATOM     29  O   UNL     1       7.911   7.387  16.701  0.00  0.00    +0.000 OA
ATOM     30  H   UNL     1       7.342   8.171  16.617  0.00  0.00    +0.000 HD
ENDBRANCH  26  29
ENDBRANCH  21  23
ENDBRANCH  18  19
ENDBRANCH  17  18
ENDBRANCH  16  17
ENDBRANCH   1  16
TORSDOF 10
ENDMDL
MODEL 4
REMARK VINA RESULT:      -7.1      3.907      6.806
REMARK  Name = 
REMARK  10 active torsions:
REMARK  status: ('A' for Active; 'I' for Inactive)
REMARK    1  A    between atoms: N_1  and  C_2
REMARK    2  A    between atoms: C_7  and  N_8
REMARK    3  A    between atoms: C_9  and  C_11
REMARK    4  A    between atoms: C_11  and  C_12
REMARK    5  A    between atoms: C_12  and  C_13
REMARK    6  A    between atoms: C_13  and  C_14
REMARK    7  A    between atoms: C_14  and  C_15
REMARK    8  A    between atoms: C_15  and  C_16
REMARK    9  A    between atoms: N_18  and  C_19
REMARK   10  A    between atoms: C_22  and  O_23
REMARK                            x       y       z     vdW  Elec       q    Type
REMARK                         _______ _______ _______ _____ _____    ______ ____
ROOT
ATOM      1  C   UNL     1       6.697   4.160  16.218  0.00  0.00    +0.000 C 
ENDROOT
BRANCH   1   2
ATOM      2  C   UNL     1       5.261   4.653  16.105  0.00  0.00    +0.000 C 
BRANCH   2   4
ATOM      3  N   UNL     1       3.939   4.599  18.153  0.00  0.00    +0.000 N 
ATOM      4  C   UNL     1       4.394   3.867  17.066  0.00  0.00    +0.000 C 
ATOM      5  O   UNL     1       4.111   2.702  16.795  0.00  0.00    +0.000 OA
ATOM      6  H   UNL     1       4.102   5.596  18.146  0.00  0.00    +0.000 HD
BRANCH   3  12
ATOM      7  C   UNL     1       3.571   3.026  20.008  0.00  0.00    +0.000 A 
ATOM      8  C   UNL     1       2.779   2.623  21.101  0.00  0.00    +0.000 A 
ATOM      9  C   UNL     1       1.538   3.207  21.356  0.00  0.00    +0.000 A 
ATOM     10  C   UNL     1       1.081   4.229  20.539  0.00  0.00    +0.000 A 
ATOM     11  C   UNL     1       1.868   4.671  19.477  0.00  0.00    +0.000 A 
ATOM     12  C   UNL     1       3.126   4.108  19.211  0.00  0.00    +0.000 A 
BRANCH   7  13
ATOM     13  N   UNL     1       4.874   2.490  19.922  0.00  0.00    +0.000 N 
ATOM     14  H   UNL     1       5.316   2.381  20.829  0.00  0.00    +0.000 HD
ATOM     15  H   UNL     1       4.974   1.657  19.361  0.00  0.00    +0.000 HD
ENDBRANCH   7  13
ENDBRANCH   3  12
ENDBRANCH   2   4
ENDBRANCH   1   2
BRANCH   1  16
ATOM     16  C   UNL     1       7.408   4.678  17.468  0.00  0.00    +0.000 C 
BRANCH  16  17
ATOM     17  C   UNL     1       7.163   6.178  17.608  0.00  0.00    +0.000 C 
BRANCH  17  18
ATOM     18  C   UNL     1       8.091   6.848  18.622  0.00  0.00    +0.000 C 
BRANCH  18  19
ATOM     19  C   UNL     1       8.313   8.307  18.248  0.00  0.00    +0.000 C 
ATOM     20  O   UNL     1       7.881   8.753  17.189  0.00  0.00    +0.000 OA
ATOM     21  N   UNL     1       8.982   9.029  19.222  0.00  0.00    +0.000 N 
ATOM     22  H   UNL     1       9.339   8.526  20.017  0.00  0.00    +0.000 HD
BRANCH  21  23
ATOM     23  C   UNL     1       9.245  10.423  19.195  0.00  0.00    +0.000 A 
ATOM     24  C   UNL     1       8.985  11.232  18.084  0.00  0.00    +0.000 A 
ATOM     25  C   UNL     1       9.222  12.606  18.119  0.00  0.00    +0.000 A 
ATOM     26  C   UNL     1       9.729  13.184  19.276  0.00  0.00    +0.000 A 
ATOM     27  C   UNL     1      10.013  12.398  20.386  0.00  0.00    +0.000 A 
ATOM     28  C   UNL     1       9.771  11.018  20.347  0.00  0.00    +0.000 A 
BRANCH  26  29
ATOM     29  O   UNL     1       9.955  14.524  19.350  0.00  0.00    +0.000 OA
ATOM     30  H   UNL     1       9.189  14.939  19.781  0.00  0.00    +0.000 HD
ENDBRANCH  26  29
ENDBRANCH  21  23
ENDBRANCH  18  19
ENDBRANCH  17  18
ENDBRANCH  16  17
ENDBRANCH   1  16
TORSDOF 10
ENDMDL
MODEL 5
REMARK VINA RESULT:      -7.0      4.623      7.504
REMARK  Name = 
REMARK  10 active torsions:
REMARK  status: ('A' for Active; 'I' for Inactive)
REMARK    1  A    between atoms: N_1  and  C_2
REMARK    2  A    between atoms: C_7  and  N_8
REMARK    3  A    between atoms: C_9  and  C_11
REMARK    4  A    between atoms: C_11  and  C_12
REMARK    5  A    between atoms: C_12  and  C_13
REMARK    6  A    between atoms: C_13  and  C_14
REMARK    7  A    between atoms: C_14  and  C_15
REMARK    8  A    between atoms: C_15  and  C_16
REMARK    9  A    between atoms: N_18  and  C_19
REMARK   10  A    between atoms: C_22  and  O_23
REMARK                            x       y       z     vdW  Elec       q    Type
REMARK                         _______ _______ _______ _____ _____    ______ ____
ROOT
ATOM      1  C   UNL     1       6.328   5.749  16.231  0.00  0.00    +0.000 C 
ENDROOT
BRANCH   1   2
ATOM      2  C   UNL     1       4.960   6.400  16.093  0.00  0.00    +0.000 C 
BRANCH   2   4
ATOM      3  N   UNL     1       3.930   4.673  17.472  0.00  0.00    +0.000 N 
ATOM      4  C   UNL     1       4.117   6.036  17.298  0.00  0.00    +0.000 C 
ATOM      5  O   UNL     1       3.729   6.932  18.045  0.00  0.00    +0.000 OA
ATOM      6  H   UNL     1       4.463   4.050  16.883  0.00  0.00    +0.000 HD
BRANCH   3  12
ATOM      7  C   UNL     1       3.800   3.182  19.425  0.00  0.00    +0.000 A 
ATOM      8  C   UNL     1       3.037   2.660  20.487  0.00  0.00    +0.000 A 
ATOM      9  C   UNL     1       1.670   2.919  20.598  0.00  0.00    +0.000 A 
ATOM     10  C   UNL     1       1.049   3.732  19.665  0.00  0.00    +0.000 A 
ATOM     11  C   UNL     1       1.795   4.292  18.629  0.00  0.00    +0.000 A 
ATOM     12  C   UNL     1       3.172   4.058  18.506  0.00  0.00    +0.000 A 
BRANCH   7  13
ATOM     13  N   UNL     1       5.198   2.997  19.481  0.00  0.00    +0.000 N 
ATOM     14  H   UNL     1       5.485   2.388  20.241  0.00  0.00    +0.000 HD
ATOM     15  H   UNL     1       5.646   2.740  18.614  0.00  0.00    +0.000 HD
ENDBRANCH   7  13
ENDBRANCH   3  12
ENDBRANCH   2   4
ENDBRANCH   1   2
BRANCH   1  16
ATOM     16  C   UNL     1       7.033   6.117  17.536  0.00  0.00    +0.000 C 
BRANCH  16  17
ATOM     17  C   UNL     1       7.574   7.542  17.438  0.00  0.00    +0.000 C 
BRANCH  17  18
ATOM     18  C   UNL     1       8.439   7.941  18.635  0.00  0.00    +0.000 C 
BRANCH  18  19
ATOM     19  C   UNL     1       8.694   9.442  18.622  0.00  0.00    +0.000 C 
ATOM     20  O   UNL     1       8.143  10.162  17.793  0.00  0.00    +0.000 OA
ATOM     21  N   UNL     1       9.538   9.866  19.635  0.00  0.00    +0.000 N 
ATOM     22  H   UNL     1       9.973   9.163  20.207  0.00  0.00    +0.000 HD
BRANCH  21  23
ATOM     23  C   UNL     1       9.878  11.211  19.930  0.00  0.00    +0.000 A 
ATOM     24  C   UNL     1       9.066  12.060  20.688  0.00  0.00    +0.000 A 
ATOM     25  C   UNL     1       9.463  13.364  20.986  0.00  0.00    +0.000 A 
ATOM     26  C   UNL     1      10.684  13.831  20.520  0.00  0.00    +0.000 A 
ATOM     27  C   UNL     1      11.500  13.012  19.749  0.00  0.00    +0.000 A 
ATOM     28  C   UNL     1      11.098  11.702  19.454  0.00  0.00    +0.000 A 
BRANCH  26  29
ATOM     29  O   UNL     1      11.110  15.091  20.808  0.00  0.00    +0.000 OA
ATOM     30  H   UNL     1      10.667  15.384  21.623  0.00  0.00    +0.000 HD
ENDBRANCH  26  29
ENDBRANCH  21  23
ENDBRANCH  18  19
ENDBRANCH  17  18
ENDBRANCH  16  17
ENDBRANCH   1  16
TORSDOF 10
ENDMDL
MODEL 6
REMARK VINA RESULT:      -7.0      2.465      3.247
REMARK  Name = 
REMARK  10 active torsions:
REMARK  status: ('A' for Active; 'I' for Inactive)
REMARK    1  A    between atoms: N_1  and  C_2
REMARK    2  A    between atoms: C_7  and  N_8
REMARK    3  A    between atoms: C_9  and  C_11
REMARK    4  A    between atoms: C_11  and  C_12
REMARK    5  A    between atoms: C_12  and  C_13
REMARK    6  A    between atoms: C_13  and  C_14
REMARK    7  A    between atoms: C_14  and  C_15
REMARK    8  A    between atoms: C_15  and  C_16
REMARK    9  A    between atoms: N_18  and  C_19
REMARK   10  A    between atoms: C_22  and  O_23
REMARK                            x       y       z     vdW  Elec       q    Type
REMARK                         _______ _______ _______ _____ _____    ______ ____
ROOT
ATOM      1  C   UNL     1       4.132   3.272  18.309  0.00  0.00    +0.000 C 
ENDROOT
BRANCH   1   2
ATOM      2  C   UNL     1       4.950   4.554  18.249  0.00  0.00    +0.000 C 
BRANCH   2   4
ATOM      3  N   UNL     1       5.797   3.934  16.048  0.00  0.00    +0.000 N 
ATOM      4  C   UNL     1       5.180   4.924  16.798  0.00  0.00    +0.000 C 
ATOM      5  O   UNL     1       4.762   6.004  16.386  0.00  0.00    +0.000 OA
ATOM      6  H   UNL     1       5.915   3.028  16.478  0.00  0.00    +0.000 HD
BRANCH   3  12
ATOM      7  C   UNL     1       7.126   4.947  14.242  0.00  0.00    +0.000 A 
ATOM      8  C   UNL     1       7.506   4.945  12.886  0.00  0.00    +0.000 A 
ATOM      9  C   UNL     1       6.879   4.117  11.955  0.00  0.00    +0.000 A 
ATOM     10  C   UNL     1       5.881   3.252  12.371  0.00  0.00    +0.000 A 
ATOM     11  C   UNL     1       5.517   3.208  13.716  0.00  0.00    +0.000 A 
ATOM     12  C   UNL     1       6.145   4.021  14.672  0.00  0.00    +0.000 A 
BRANCH   7  13
ATOM     13  N   UNL     1       7.918   5.700  15.135  0.00  0.00    +0.000 N 
ATOM     14  H   UNL     1       8.726   5.187  15.474  0.00  0.00    +0.000 HD
ATOM     15  H   UNL     1       8.173   6.627  14.828  0.00  0.00    +0.000 HD
ENDBRANCH   7  13
ENDBRANCH   3  12
ENDBRANCH   2   4
ENDBRANCH   1   2
BRANCH   1  16
ATOM     16  C   UNL     1       4.200   2.586  19.673  0.00  0.00    +0.000 C 
BRANCH  16  17
ATOM     17  C   UNL     1       2.800   2.515  20.277  0.00  0.00    +0.000 C 
BRANCH  17  18
ATOM     18  C   UNL     1       2.522   3.629  21.287  0.00  0.00    +0.000 C 
BRANCH  18  19
ATOM     19  C   UNL     1       1.768   4.769  20.618  0.00  0.00    +0.000 C 
ATOM     20  O   UNL     1       0.564   4.676  20.394  0.00  0.00    +0.000 OA
ATOM     21  N   UNL     1       2.560   5.875  20.357  0.00  0.00    +0.000 N 
ATOM     22  H   UNL     1       3.547   5.796  20.532  0.00  0.00    +0.000 HD
BRANCH  21  23
ATOM     23  C   UNL     1       2.116   7.115  19.831  0.00  0.00    +0.000 A 
ATOM     24  C   UNL     1       1.495   8.100  20.606  0.00  0.00    +0.000 A 
ATOM     25  C   UNL     1       1.112   9.322  20.051  0.00  0.00    +0.000 A 
ATOM     26  C   UNL     1       1.347   9.565  18.705  0.00  0.00    +0.000 A 
ATOM     27  C   UNL     1       1.944   8.595  17.910  0.00  0.00    +0.000 A 
ATOM     28  C   UNL     1       2.330   7.370  18.472  0.00  0.00    +0.000 A 
BRANCH  26  29
ATOM     29  O   UNL     1       1.002  10.753  18.136  0.00  0.00    +0.000 OA
ATOM     30  H   UNL     1       0.208  10.612  17.592  0.00  0.00    +0.000 HD
ENDBRANCH  26  29
ENDBRANCH  21  23
ENDBRANCH  18  19
ENDBRANCH  17  18
ENDBRANCH  16  17
ENDBRANCH   1  16
TORSDOF 10
ENDMDL
MODEL 7
REMARK VINA RESULT:      -6.9      4.403      7.281
REMARK  Name = 
REMARK  10 active torsions:
REMARK  status: ('A' for Active; 'I' for Inactive)
REMARK    1  A    between atoms: N_1  and  C_2
REMARK    2  A    between atoms: C_7  and  N_8
REMARK    3  A    between atoms: C_9  and  C_11
REMARK    4  A    between atoms: C_11  and  C_12
REMARK    5  A    between atoms: C_12  and  C_13
REMARK    6  A    between atoms: C_13  and  C_14
REMARK    7  A    between atoms: C_14  and  C_15
REMARK    8  A    between atoms: C_15  and  C_16
REMARK    9  A    between atoms: N_18  and  C_19
REMARK   10  A    between atoms: C_22  and  O_23
REMARK                            x       y       z     vdW  Elec       q    Type
REMARK                         _______ _______ _______ _____ _____    ______ ____
ROOT
ATOM      1  C   UNL     1       5.840   5.738  16.307  0.00  0.00    +0.000 C 
ENDROOT
BRANCH   1   2
ATOM      2  C   UNL     1       6.260   4.452  17.005  0.00  0.00    +0.000 C 
BRANCH   2   4
ATOM      3  N   UNL     1       4.192   3.761  18.098  0.00  0.00    +0.000 N 
ATOM      4  C   UNL     1       5.457   4.301  18.281  0.00  0.00    +0.000 C 
ATOM      5  O   UNL     1       5.984   4.592  19.353  0.00  0.00    +0.000 OA
ATOM      6  H   UNL     1       3.967   3.399  17.183  0.00  0.00    +0.000 HD
BRANCH   3  12
ATOM      7  C   UNL     1       1.882   3.927  18.929  0.00  0.00    +0.000 A 
ATOM      8  C   UNL     1       0.938   3.600  19.922  0.00  0.00    +0.000 A 
ATOM      9  C   UNL     1       1.317   2.975  21.111  0.00  0.00    +0.000 A 
ATOM     10  C   UNL     1       2.645   2.636  21.313  0.00  0.00    +0.000 A 
ATOM     11  C   UNL     1       3.589   2.913  20.325  0.00  0.00    +0.000 A 
ATOM     12  C   UNL     1       3.228   3.527  19.117  0.00  0.00    +0.000 A 
BRANCH   7  13
ATOM     13  N   UNL     1       1.387   4.413  17.700  0.00  0.00    +0.000 N 
ATOM     14  H   UNL     1       1.977   4.167  16.912  0.00  0.00    +0.000 HD
ATOM     15  H   UNL     1       0.416   4.220  17.507  0.00  0.00    +0.000 HD
ENDBRANCH   7  13
ENDBRANCH   3  12
ENDBRANCH   2   4
ENDBRANCH   1   2
BRANCH   1  16
ATOM     16  C   UNL     1       6.051   6.981  17.171  0.00  0.00    +0.000 C 
BRANCH  16  17
ATOM     17  C   UNL     1       7.494   7.460  17.030  0.00  0.00    +0.000 C 
BRANCH  17  18
ATOM     18  C   UNL     1       8.160   7.769  18.371  0.00  0.00    +0.000 C 
BRANCH  18  19
ATOM     19  C   UNL     1       8.519   9.246  18.452  0.00  0.00    +0.000 C 
ATOM     20  O   UNL     1       8.068  10.044  17.635  0.00  0.00    +0.000 OA
ATOM     21  N   UNL     1       9.332   9.558  19.530  0.00  0.00    +0.000 N 
ATOM     22  H   UNL     1       9.683   8.797  20.086  0.00  0.00    +0.000 HD
BRANCH  21  23
ATOM     23  C   UNL     1       9.748  10.858  19.913  0.00  0.00    +0.000 A 
ATOM     24  C   UNL     1      10.690  11.605  19.197  0.00  0.00    +0.000 A 
ATOM     25  C   UNL     1      11.038  12.898  19.590  0.00  0.00    +0.000 A 
ATOM     26  C   UNL     1      10.442  13.454  20.715  0.00  0.00    +0.000 A 
ATOM     27  C   UNL     1       9.519  12.725  21.453  0.00  0.00    +0.000 A 
ATOM     28  C   UNL     1       9.171  11.427  21.052  0.00  0.00    +0.000 A 
BRANCH  26  29
ATOM     29  O   UNL     1      10.745  14.719  21.116  0.00  0.00    +0.000 OA
ATOM     30  H   UNL     1      10.904  14.705  22.075  0.00  0.00    +0.000 HD
ENDBRANCH  26  29
ENDBRANCH  21  23
ENDBRANCH  18  19
ENDBRANCH  17  18
ENDBRANCH  16  17
ENDBRANCH   1  16
TORSDOF 10
ENDMDL
MODEL 8
REMARK VINA RESULT:      -6.9      1.650      2.186
REMARK  Name = 
REMARK  10 active torsions:
REMARK  status: ('A' for Active; 'I' for Inactive)
REMARK    1  A    between atoms: N_1  and  C_2
REMARK    2  A    between atoms: C_7  and  N_8
REMARK    3  A    between atoms: C_9  and  C_11
REMARK    4  A    between atoms: C_11  and  C_12
REMARK    5  A    between atoms: C_12  and  C_13
REMARK    6  A    between atoms: C_13  and  C_14
REMARK    7  A    between atoms: C_14  and  C_15
REMARK    8  A    between atoms: C_15  and  C_16
REMARK    9  A    between atoms: N_18  and  C_19
REMARK   10  A    between atoms: C_22  and  O_23
REMARK                            x       y       z     vdW  Elec       q    Type
REMARK                         _______ _______ _______ _____ _____    ______ ____
ROOT
ATOM      1  C   UNL     1       1.033   2.260  19.041  0.00  0.00    +0.000 C 
ENDROOT
BRANCH   1   2
ATOM      2  C   UNL     1       1.666   3.081  17.926  0.00  0.00    +0.000 C 
BRANCH   2   4
ATOM      3  N   UNL     1       3.759   4.332  17.977  0.00  0.00    +0.000 N 
ATOM      4  C   UNL     1       3.170   3.083  18.110  0.00  0.00    +0.000 C 
ATOM      5  O   UNL     1       3.733   2.034  18.415  0.00  0.00    +0.000 OA
ATOM      6  H   UNL     1       3.147   5.132  17.908  0.00  0.00    +0.000 HD
BRANCH   3  12
ATOM      7  C   UNL     1       6.018   4.331  17.003  0.00  0.00    +0.000 A 
ATOM      8  C   UNL     1       7.371   4.707  17.111  0.00  0.00    +0.000 A 
ATOM      9  C   UNL     1       7.881   5.268  18.282  0.00  0.00    +0.000 A 
ATOM     10  C   UNL     1       7.036   5.494  19.357  0.00  0.00    +0.000 A 
ATOM     11  C   UNL     1       5.684   5.168  19.256  0.00  0.00    +0.000 A 
ATOM     12  C   UNL     1       5.148   4.617  18.083  0.00  0.00    +0.000 A 
BRANCH   7  13
ATOM     13  N   UNL     1       5.561   3.919  15.733  0.00  0.00    +0.000 N 
ATOM     14  H   UNL     1       6.315   3.775  15.070  0.00  0.00    +0.000 HD
ATOM     15  H   UNL     1       4.912   3.146  15.726  0.00  0.00    +0.000 HD
ENDBRANCH   7  13
ENDBRANCH   3  12
ENDBRANCH   2   4
ENDBRANCH   1   2
BRANCH   1  16
ATOM     16  C   UNL     1       1.225   2.884  20.423  0.00  0.00    +0.000 C 
BRANCH  16  17
ATOM     17  C   UNL     1       0.924   4.380  20.353  0.00  0.00    +0.000 C 
BRANCH  17  18
ATOM     18  C   UNL     1       2.053   5.248  20.908  0.00  0.00    +0.000 C 
BRANCH  18  19
ATOM     19  C   UNL     1       2.046   6.614  20.236  0.00  0.00    +0.000 C 
ATOM     20  O   UNL     1       2.545   6.766  19.124  0.00  0.00    +0.000 OA
ATOM     21  N   UNL     1       1.398   7.589  20.977  0.00  0.00    +0.000 N 
ATOM     22  H   UNL     1       1.090   7.346  21.903  0.00  0.00    +0.000 HD
BRANCH  21  23
ATOM     23  C   UNL     1       1.152   8.924  20.566  0.00  0.00    +0.000 A 
ATOM     24  C   UNL     1       0.874   9.964  21.459  0.00  0.00    +0.000 A 
ATOM     25  C   UNL     1       0.679  11.270  21.009  0.00  0.00    +0.000 A 
ATOM     26  C   UNL     1       0.758  11.545  19.651  0.00  0.00    +0.000 A 
ATOM     27  C   UNL     1       1.014  10.526  18.742  0.00  0.00    +0.000 A 
ATOM     28  C   UNL     1       1.211   9.215  19.199  0.00  0.00    +0.000 A 
BRANCH  26  29
ATOM     29  O   UNL     1       0.590  12.811  19.180  0.00  0.00    +0.000 OA
ATOM     30  H   UNL     1      -0.229  13.173  19.560  0.00  0.00    +0.000 HD
ENDBRANCH  26  29
ENDBRANCH  21  23
ENDBRANCH  18  19
ENDBRANCH  17  18
ENDBRANCH  16  17
ENDBRANCH   1  16
TORSDOF 10
ENDMDL
MODEL 9
REMARK VINA RESULT:      -6.8      5.377      8.199
REMARK  Name = 
REMARK  10 active torsions:
REMARK  status: ('A' for Active; 'I' for Inactive)
REMARK    1  A    between atoms: N_1  and  C_2
REMARK    2  A    between atoms: C_7  and  N_8
REMARK    3  A    between atoms: C_9  and  C_11
REMARK    4  A    between atoms: C_11  and  C_12
REMARK    5  A    between atoms: C_12  and  C_13
REMARK    6  A    between atoms: C_13  and  C_14
REMARK    7  A    between atoms: C_14  and  C_15
REMARK    8  A    between atoms: C_15  and  C_16
REMARK    9  A    between atoms: N_18  and  C_19
REMARK   10  A    between atoms: C_22  and  O_23
REMARK                            x       y       z     vdW  Elec       q    Type
REMARK                         _______ _______ _______ _____ _____    ______ ____
ROOT
ATOM      1  C   UNL     1       6.762   7.317  17.424  0.00  0.00    +0.000 C 
ENDROOT
BRANCH   1   2
ATOM      2  C   UNL     1       6.809   5.845  17.809  0.00  0.00    +0.000 C 
BRANCH   2   4
ATOM      3  N   UNL     1       5.037   5.054  19.288  0.00  0.00    +0.000 N 
ATOM      4  C   UNL     1       5.392   5.335  17.976  0.00  0.00    +0.000 C 
ATOM      5  O   UNL     1       4.663   5.271  16.988  0.00  0.00    +0.000 OA
ATOM      6  H   UNL     1       5.681   5.331  20.014  0.00  0.00    +0.000 HD
BRANCH   3  12
ATOM      7  C   UNL     1       3.583   3.154  19.859  0.00  0.00    +0.000 A 
ATOM      8  C   UNL     1       2.356   2.696  20.377  0.00  0.00    +0.000 A 
ATOM      9  C   UNL     1       1.316   3.576  20.674  0.00  0.00    +0.000 A 
ATOM     10  C   UNL     1       1.496   4.937  20.488  0.00  0.00    +0.000 A 
ATOM     11  C   UNL     1       2.717   5.416  20.016  0.00  0.00    +0.000 A 
ATOM     12  C   UNL     1       3.782   4.550  19.725  0.00  0.00    +0.000 A 
BRANCH   7  13
ATOM     13  N   UNL     1       4.626   2.211  19.737  0.00  0.00    +0.000 N 
ATOM     14  H   UNL     1       4.519   1.607  18.928  0.00  0.00    +0.000 HD
ATOM     15  H   UNL     1       5.564   2.579  19.801  0.00  0.00    +0.000 HD
ENDBRANCH   7  13
ENDBRANCH   3  12
ENDBRANCH   2   4
ENDBRANCH   1   2
BRANCH   1  16
ATOM     16  C   UNL     1       8.136   7.986  17.463  0.00  0.00    +0.000 C 
BRANCH  16  17
ATOM     17  C   UNL     1       8.005   9.383  18.064  0.00  0.00    +0.000 C 
BRANCH  17  18
ATOM     18  C   UNL     1       9.209   9.788  18.916  0.00  0.00    +0.000 C 
BRANCH  18  19
ATOM     19  C   UNL     1       9.255  11.301  19.077  0.00  0.00    +0.000 C 
ATOM     20  O   UNL     1       9.214  11.811  20.193  0.00  0.00    +0.000 OA
ATOM     21  N   UNL     1       9.390  11.979  17.877  0.00  0.00    +0.000 N 
ATOM     22  H   UNL     1       9.346  11.442  17.028  0.00  0.00    +0.000 HD
BRANCH  21  23
ATOM     23  C   UNL     1       9.555  13.379  17.724  0.00  0.00    +0.000 A 
ATOM     24  C   UNL     1       8.539  14.305  17.984  0.00  0.00    +0.000 A 
ATOM     25  C   UNL     1       8.762  15.677  17.858  0.00  0.00    +0.000 A 
ATOM     26  C   UNL     1      10.012  16.133  17.463  0.00  0.00    +0.000 A 
ATOM     27  C   UNL     1      11.031  15.232  17.180  0.00  0.00    +0.000 A 
ATOM     28  C   UNL     1      10.803  13.855  17.310  0.00  0.00    +0.000 A 
BRANCH  26  29
ATOM     29  O   UNL     1      10.268  17.466  17.348  0.00  0.00    +0.000 OA
ATOM     30  H   UNL     1      10.379  17.833  18.241  0.00  0.00    +0.000 HD
ENDBRANCH  26  29
ENDBRANCH  21  23
ENDBRANCH  18  19
ENDBRANCH  17  18
ENDBRANCH  16  17
ENDBRANCH   1  16
TORSDOF 10
ENDMDL
