MODEL 1
REMARK VINA RESULT:      -6.4      0.000      0.000
REMARK  Name = 
REMARK  5 active torsions:
REMARK  status: ('A' for Active; 'I' for Inactive)
REMARK    1  A    between atoms: C_1  and  C_2
REMARK    2  A    between atoms: C_3  and  O_4
REMARK    3  A    between atoms: N_9  and  C_10
REMARK    4  A    between atoms: C_13  and  C_14
REMARK    5  A    between atoms: C_14  and  O_15
REMARK                            x       y       z     vdW  Elec       q    Type
REMARK                         _______ _______ _______ _____ _____    ______ ____
ROOT
ATOM      1  C   UNL     1       3.831   6.776  17.816  0.00  0.00    +0.000 C 
ATOM      2  C   UNL     1       4.709   5.790  17.066  0.00  0.00    +0.000 A 
ATOM      3  C   UNL     1       5.873   6.194  16.501  0.00  0.00    +0.000 A 
ATOM      4  C   UNL     1       6.620   5.228  15.624  0.00  0.00    +0.000 A 
ATOM      5  O   UNL     1       7.716   5.487  15.137  0.00  0.00    +0.000 OA
ATOM      6  C   UNL     1       5.984   3.911  15.381  0.00  0.00    +0.000 A 
ATOM      7  C   UNL     1       4.874   3.609  16.059  0.00  0.00    +0.000 A 
ATOM      8  N   UNL     1       4.235   4.457  16.958  0.00  0.00    +0.000 N 
ENDROOT
BRANCH   8   9
ATOM      9  C   UNL     1       3.424   3.894  18.068  0.00  0.00    +0.000 C 
ATOM     10  C   UNL     1       4.319   3.642  19.287  0.00  0.00    +0.000 C 
ATOM     11  S   UNL     1       3.288   2.639  20.365  0.00  0.00    +0.000 S 
ATOM     12  C   UNL     1       2.199   2.158  18.984  0.00  0.00    +0.000 C 
ATOM     13  O   UNL     1       2.780   2.647  17.755  0.00  0.00    +0.000 OA
BRANCH  12  14
ATOM     14  C   UNL     1       0.779   2.739  19.170  0.00  0.00    +0.000 C 
BRANCH  14  15
ATOM     15  O   UNL     1       0.565   3.325  20.449  0.00  0.00    +0.000 OA
ATOM     16  H   UNL     1       0.915   4.233  20.416  0.00  0.00    +0.000 HD
ENDBRANCH  14  15
ENDBRANCH  12  14
ENDBRANCH   8   9
BRANCH   3  17
ATOM     17  O   UNL     1       6.435   7.442  16.692  0.00  0.00    +0.000 OA
ATOM     18  H   UNL     1       5.730   8.108  16.680  0.00  0.00    +0.000 HD
ENDBRANCH   3  17
TORSDOF 4
ENDMDL
MODEL 2
REMARK VINA RESULT:      -6.4      2.330      5.527
REMARK  Name = 
REMARK  5 active torsions:
REMARK  status: ('A' for Active; 'I' for Inactive)
REMARK    1  A    between atoms: C_1  and  C_2
REMARK    2  A    between atoms: C_3  and  O_4
REMARK    3  A    between atoms: N_9  and  C_10
REMARK    4  A    between atoms: C_13  and  C_14
REMARK    5  A    between atoms: C_14  and  O_15
REMARK                            x       y       z     vdW  Elec       q    Type
REMARK                         _______ _______ _______ _____ _____    ______ ____
ROOT
ATOM      1  C   UNL     1       3.569   5.476  19.967  0.00  0.00    +0.000 C 
ATOM      2  C   UNL     1       3.090   4.280  19.163  0.00  0.00    +0.000 A 
ATOM      3  C   UNL     1       1.804   3.859  19.254  0.00  0.00    +0.000 A 
ATOM      4  C   UNL     1       1.420   2.573  18.577  0.00  0.00    +0.000 A 
ATOM      5  O   UNL     1       0.265   2.161  18.547  0.00  0.00    +0.000 OA
ATOM      6  C   UNL     1       2.506   1.812  17.914  0.00  0.00    +0.000 A 
ATOM      7  C   UNL     1       3.714   2.375  17.830  0.00  0.00    +0.000 A 
ATOM      8  N   UNL     1       4.051   3.618  18.358  0.00  0.00    +0.000 N 
ENDROOT
BRANCH   8   9
ATOM      9  C   UNL     1       5.147   4.415  17.749  0.00  0.00    +0.000 C 
ATOM     10  C   UNL     1       5.334   4.004  16.284  0.00  0.00    +0.000 C 
ATOM     11  S   UNL     1       6.897   4.767  15.829  0.00  0.00    +0.000 S 
ATOM     12  C   UNL     1       7.393   4.942  17.576  0.00  0.00    +0.000 C 
ATOM     13  O   UNL     1       6.422   4.256  18.396  0.00  0.00    +0.000 OA
BRANCH  12  14
ATOM     14  C   UNL     1       7.476   6.431  17.980  0.00  0.00    +0.000 C 
BRANCH  14  15
ATOM     15  O   UNL     1       7.433   7.327  16.876  0.00  0.00    +0.000 OA
ATOM     16  H   UNL     1       8.352   7.503  16.607  0.00  0.00    +0.000 HD
ENDBRANCH  14  15
ENDBRANCH  12  14
ENDBRANCH   8   9
BRANCH   3  17
ATOM     17  O   UNL     1       0.807   4.550  19.917  0.00  0.00    +0.000 OA
ATOM     18  H   UNL     1       1.213   5.105  20.601  0.00  0.00    +0.000 HD
ENDBRANCH   3  17
TORSDOF 4
ENDMDL
MODEL 3
REMARK VINA RESULT:      -6.4      2.635      5.507
REMARK  Name = 
REMARK  5 active torsions:
REMARK  status: ('A' for Active; 'I' for Inactive)
REMARK    1  A    between atoms: C_1  and  C_2
REMARK    2  A    between atoms: C_3  and  O_4
REMARK    3  A    between atoms: N_9  and  C_10
REMARK    4  A    between atoms: C_13  and  C_14
REMARK    5  A    between atoms: C_14  and  O_15
REMARK                            x       y       z     vdW  Elec       q    Type
REMARK                         _______ _______ _______ _____ _____    ______ ____
ROOT
ATOM      1  C   UNL     1       3.067   5.252  20.666  0.00  0.00    +0.000 C 
ATOM      2  C   UNL     1       2.784   4.168  19.641  0.00  0.00    +0.000 A 
ATOM      3  C   UNL     1       1.539   3.645  19.517  0.00  0.00    +0.000 A 
ATOM      4  C   UNL     1       1.344   2.459  18.615  0.00  0.00    +0.000 A 
ATOM      5  O   UNL     1       0.240   1.973  18.389  0.00  0.00    +0.000 OA
ATOM      6  C   UNL     1       2.557   1.894  17.975  0.00  0.00    +0.000 A 
ATOM      7  C   UNL     1       3.712   2.549  18.118  0.00  0.00    +0.000 A 
ATOM      8  N   UNL     1       3.879   3.713  18.863  0.00  0.00    +0.000 N 
ENDROOT
BRANCH   8   9
ATOM      9  C   UNL     1       4.955   4.675  18.512  0.00  0.00    +0.000 C 
ATOM     10  C   UNL     1       4.718   5.227  17.101  0.00  0.00    +0.000 C 
ATOM     11  S   UNL     1       6.266   6.051  16.707  0.00  0.00    +0.000 S 
ATOM     12  C   UNL     1       7.166   5.117  17.989  0.00  0.00    +0.000 C 
ATOM     13  O   UNL     1       6.279   4.111  18.525  0.00  0.00    +0.000 OA
BRANCH  12  14
ATOM     14  C   UNL     1       7.653   6.054  19.116  0.00  0.00    +0.000 C 
BRANCH  14  15
ATOM     15  O   UNL     1       7.957   5.377  20.331  0.00  0.00    +0.000 OA
ATOM     16  H   UNL     1       7.425   4.562  20.351  0.00  0.00    +0.000 HD
ENDBRANCH  14  15
ENDBRANCH  12  14
ENDBRANCH   8   9
BRANCH   3  17
ATOM     17  O   UNL     1       0.420   4.146  20.157  0.00  0.00    +0.000 OA
ATOM     18  H   UNL     1       0.030   4.841  19.604  0.00  0.00    +0.000 HD
ENDBRANCH   3  17
TORSDOF 4
ENDMDL
MODEL 4
REMARK VINA RESULT:      -6.3      2.144      5.905
REMARK  Name = 
REMARK  5 active torsions:
REMARK  status: ('A' for Active; 'I' for Inactive)
REMARK    1  A    between atoms: C_1  and  C_2
REMARK    2  A    between atoms: C_3  and  O_4
REMARK    3  A    between atoms: N_9  and  C_10
REMARK    4  A    between atoms: C_13  and  C_14
REMARK    5  A    between atoms: C_14  and  O_15
REMARK                            x       y       z     vdW  Elec       q    Type
REMARK                         _______ _______ _______ _____ _____    ______ ____
ROOT
ATOM      1  C   UNL     1       3.075   2.916  17.005  0.00  0.00    +0.000 C 
ATOM      2  C   UNL     1       2.867   3.402  18.429  0.00  0.00    +0.000 A 
ATOM      3  C   UNL     1       2.040   2.735  19.271  0.00  0.00    +0.000 A 
ATOM      4  C   UNL     1       1.731   3.346  20.609  0.00  0.00    +0.000 A 
ATOM      5  O   UNL     1       1.054   2.774  21.457  0.00  0.00    +0.000 OA
ATOM      6  C   UNL     1       2.302   4.687  20.883  0.00  0.00    +0.000 A 
ATOM      7  C   UNL     1       3.163   5.201  20.001  0.00  0.00    +0.000 A 
ATOM      8  N   UNL     1       3.542   4.590  18.810  0.00  0.00    +0.000 N 
ENDROOT
BRANCH   8   9
ATOM      9  C   UNL     1       4.867   4.884  18.209  0.00  0.00    +0.000 C 
ATOM     10  C   UNL     1       5.862   5.269  19.311  0.00  0.00    +0.000 C 
ATOM     11  S   UNL     1       7.259   5.940  18.400  0.00  0.00    +0.000 S 
ATOM     12  C   UNL     1       6.237   6.231  16.918  0.00  0.00    +0.000 C 
ATOM     13  O   UNL     1       4.858   5.962  17.257  0.00  0.00    +0.000 OA
BRANCH  12  14
ATOM     14  C   UNL     1       6.685   5.325  15.750  0.00  0.00    +0.000 C 
BRANCH  14  15
ATOM     15  O   UNL     1       7.815   4.515  16.055  0.00  0.00    +0.000 OA
ATOM     16  H   UNL     1       7.886   4.468  17.026  0.00  0.00    +0.000 HD
ENDBRANCH  14  15
ENDBRANCH  12  14
ENDBRANCH   8   9
BRANCH   3  17
ATOM     17  O   UNL     1       1.470   1.508  18.987  0.00  0.00    +0.000 OA
ATOM     18  H   UNL     1       2.164   0.830  19.001  0.00  0.00    +0.000 HD
ENDBRANCH   3  17
TORSDOF 4
ENDMDL
MODEL 5
REMARK VINA RESULT:      -6.3      1.722      2.472
REMARK  Name = 
REMARK  5 active torsions:
REMARK  status: ('A' for Active; 'I' for Inactive)
REMARK    1  A    between atoms: C_1  and  C_2
REMARK    2  A    between atoms: C_3  and  O_4
REMARK    3  A    between atoms: N_9  and  C_10
REMARK    4  A    between atoms: C_13  and  C_14
REMARK    5  A    between atoms: C_14  and  O_15
REMARK                            x       y       z     vdW  Elec       q    Type
REMARK                         _______ _______ _______ _____ _____    ______ ____
ROOT
ATOM      1  C   UNL     1       4.603   3.821  16.123  0.00  0.00    +0.000 C 
ATOM      2  C   UNL     1       5.447   4.770  16.953  0.00  0.00    +0.000 A 
ATOM      3  C   UNL     1       6.288   5.649  16.354  0.00  0.00    +0.000 A 
ATOM      4  C   UNL     1       7.228   6.446  17.214  0.00  0.00    +0.000 A 
ATOM      5  O   UNL     1       7.966   7.314  16.760  0.00  0.00    +0.000 OA
ATOM      6  C   UNL     1       7.217   6.156  18.669  0.00  0.00    +0.000 A 
ATOM      7  C   UNL     1       6.287   5.323  19.142  0.00  0.00    +0.000 A 
ATOM      8  N   UNL     1       5.339   4.665  18.364  0.00  0.00    +0.000 N 
ENDROOT
BRANCH   8   9
ATOM      9  C   UNL     1       4.035   4.267  18.953  0.00  0.00    +0.000 C 
ATOM     10  C   UNL     1       3.498   5.402  19.834  0.00  0.00    +0.000 C 
ATOM     11  S   UNL     1       2.151   4.629  20.740  0.00  0.00    +0.000 S 
ATOM     12  C   UNL     1       2.801   2.957  20.408  0.00  0.00    +0.000 C 
ATOM     13  O   UNL     1       4.093   3.089  19.776  0.00  0.00    +0.000 OA
BRANCH  12  14
ATOM     14  C   UNL     1       1.840   2.162  19.496  0.00  0.00    +0.000 C 
BRANCH  14  15
ATOM     15  O   UNL     1       2.506   1.331  18.551  0.00  0.00    +0.000 OA
ATOM     16  H   UNL     1       3.440   1.272  18.821  0.00  0.00    +0.000 HD
ENDBRANCH  14  15
ENDBRANCH  12  14
ENDBRANCH   8   9
BRANCH   3  17
ATOM     17  O   UNL     1       6.327   5.878  14.991  0.00  0.00    +0.000 OA
ATOM     18  H   UNL     1       5.516   5.528  14.591  0.00  0.00    +0.000 HD
ENDBRANCH   3  17
TORSDOF 4
ENDMDL
MODEL 6
REMARK VINA RESULT:      -6.1      2.742      5.863
REMARK  Name = 
REMARK  5 active torsions:
REMARK  status: ('A' for Active; 'I' for Inactive)
REMARK    1  A    between atoms: C_1  and  C_2
REMARK    2  A    between atoms: C_3  and  O_4
REMARK    3  A    between atoms: N_9  and  C_10
REMARK    4  A    between atoms: C_13  and  C_14
REMARK    5  A    between atoms: C_14  and  O_15
REMARK                            x       y       z     vdW  Elec       q    Type
REMARK                         _______ _______ _______ _____ _____    ______ ____
ROOT
ATOM      1  C   UNL     1       3.663   3.078  17.240  0.00  0.00    +0.000 C 
ATOM      2  C   UNL     1       3.149   3.576  18.579  0.00  0.00    +0.000 A 
ATOM      3  C   UNL     1       2.308   2.814  19.321  0.00  0.00    +0.000 A 
ATOM      4  C   UNL     1       1.691   3.415  20.552  0.00  0.00    +0.000 A 
ATOM      5  O   UNL     1       0.981   2.772  21.318  0.00  0.00    +0.000 OA
ATOM      6  C   UNL     1       1.993   4.841  20.828  0.00  0.00    +0.000 A 
ATOM      7  C   UNL     1       2.897   5.456  20.062  0.00  0.00    +0.000 A 
ATOM      8  N   UNL     1       3.558   4.872  18.986  0.00  0.00    +0.000 N 
ENDROOT
BRANCH   8   9
ATOM      9  C   UNL     1       4.903   5.357  18.583  0.00  0.00    +0.000 C 
ATOM     10  C   UNL     1       4.907   5.688  17.086  0.00  0.00    +0.000 C 
ATOM     11  S   UNL     1       6.653   5.886  16.704  0.00  0.00    +0.000 S 
ATOM     12  C   UNL     1       7.150   4.963  18.197  0.00  0.00    +0.000 C 
ATOM     13  O   UNL     1       5.963   4.411  18.807  0.00  0.00    +0.000 OA
BRANCH  12  14
ATOM     14  C   UNL     1       7.884   5.884  19.197  0.00  0.00    +0.000 C 
BRANCH  14  15
ATOM     15  O   UNL     1       8.005   5.330  20.502  0.00  0.00    +0.000 OA
ATOM     16  H   UNL     1       8.124   6.070  21.124  0.00  0.00    +0.000 HD
ENDBRANCH  14  15
ENDBRANCH  12  14
ENDBRANCH   8   9
BRANCH   3  17
ATOM     17  O   UNL     1       1.991   1.500  19.030  0.00  0.00    +0.000 OA
ATOM     18  H   UNL     1       2.796   1.041  18.742  0.00  0.00    +0.000 HD
ENDBRANCH   3  17
TORSDOF 4
ENDMDL
MODEL 7
REMARK VINA RESULT:      -6.1      0.999      1.091
REMARK  Name = 
REMARK  5 active torsions:
REMARK  status: ('A' for Active; 'I' for Inactive)
REMARK    1  A    between atoms: C_1  and  C_2
REMARK    2  A    between atoms: C_3  and  O_4
REMARK    3  A    between atoms: N_9  and  C_10
REMARK    4  A    between atoms: C_13  and  C_14
REMARK    5  A    between atoms: C_14  and  O_15
REMARK                            x       y       z     vdW  Elec       q    Type
REMARK                         _______ _______ _______ _____ _____    ______ ____
ROOT
ATOM      1  C   UNL     1       3.860   6.911  17.846  0.00  0.00    +0.000 C 
ATOM      2  C   UNL     1       4.700   5.884  17.107  0.00  0.00    +0.000 A 
ATOM      3  C   UNL     1       5.888   6.235  16.554  0.00  0.00    +0.000 A 
ATOM      4  C   UNL     1       6.600   5.233  15.688  0.00  0.00    +0.000 A 
ATOM      5  O   UNL     1       7.711   5.442  15.212  0.00  0.00    +0.000 OA
ATOM      6  C   UNL     1       5.907   3.946  15.440  0.00  0.00    +0.000 A 
ATOM      7  C   UNL     1       4.777   3.696  16.106  0.00  0.00    +0.000 A 
ATOM      8  N   UNL     1       4.168   4.574  16.997  0.00  0.00    +0.000 N 
ENDROOT
BRANCH   8   9
ATOM      9  C   UNL     1       3.320   4.051  18.098  0.00  0.00    +0.000 C 
ATOM     10  C   UNL     1       3.516   2.536  18.229  0.00  0.00    +0.000 C 
ATOM     11  S   UNL     1       2.176   2.030  19.314  0.00  0.00    +0.000 S 
ATOM     12  C   UNL     1       1.234   3.553  18.968  0.00  0.00    +0.000 C 
ATOM     13  O   UNL     1       1.911   4.278  17.917  0.00  0.00    +0.000 OA
BRANCH  12  14
ATOM     14  C   UNL     1       1.120   4.433  20.233  0.00  0.00    +0.000 C 
BRANCH  14  15
ATOM     15  O   UNL     1       1.830   3.917  21.354  0.00  0.00    +0.000 OA
ATOM     16  H   UNL     1       2.526   3.328  21.012  0.00  0.00    +0.000 HD
ENDBRANCH  14  15
ENDBRANCH  12  14
ENDBRANCH   8   9
BRANCH   3  17
ATOM     17  O   UNL     1       6.504   7.456  16.750  0.00  0.00    +0.000 OA
ATOM     18  H   UNL     1       7.465   7.322  16.768  0.00  0.00    +0.000 HD
ENDBRANCH   3  17
TORSDOF 4
ENDMDL
MODEL 8
REMARK VINA RESULT:      -5.8      1.501      1.602
REMARK  Name = 
REMARK  5 active torsions:
REMARK  status: ('A' for Active; 'I' for Inactive)
REMARK    1  A    between atoms: C_1  and  C_2
REMARK    2  A    between atoms: C_3  and  O_4
REMARK    3  A    between atoms: N_9  and  C_10
REMARK    4  A    between atoms: C_13  and  C_14
REMARK    5  A    between atoms: C_14  and  O_15
REMARK                            x       y       z     vdW  Elec       q    Type
REMARK                         _______ _______ _______ _____ _____    ______ ____
ROOT
ATOM      1  C   UNL     1       5.527   5.549  19.370  0.00  0.00    +0.000 C 
ATOM      2  C   UNL     1       5.612   5.063  17.934  0.00  0.00    +0.000 A 
ATOM      3  C   UNL     1       6.781   5.133  17.252  0.00  0.00    +0.000 A 
ATOM      4  C   UNL     1       6.778   4.803  15.785  0.00  0.00    +0.000 A 
ATOM      5  O   UNL     1       7.803   4.768  15.112  0.00  0.00    +0.000 OA
ATOM      6  C   UNL     1       5.465   4.494  15.169  0.00  0.00    +0.000 A 
ATOM      7  C   UNL     1       4.400   4.384  15.967  0.00  0.00    +0.000 A 
ATOM      8  N   UNL     1       4.416   4.578  17.345  0.00  0.00    +0.000 N 
ENDROOT
BRANCH   8   9
ATOM      9  C   UNL     1       3.422   3.890  18.207  0.00  0.00    +0.000 C 
ATOM     10  C   UNL     1       3.401   2.392  17.880  0.00  0.00    +0.000 C 
ATOM     11  S   UNL     1       1.923   1.800  18.715  0.00  0.00    +0.000 S 
ATOM     12  C   UNL     1       1.226   3.482  18.814  0.00  0.00    +0.000 C 
ATOM     13  O   UNL     1       2.075   4.372  18.055  0.00  0.00    +0.000 OA
BRANCH  12  14
ATOM     14  C   UNL     1       1.133   3.957  20.281  0.00  0.00    +0.000 C 
BRANCH  14  15
ATOM     15  O   UNL     1       0.821   2.916  21.200  0.00  0.00    +0.000 OA
ATOM     16  H   UNL     1       0.541   3.337  22.033  0.00  0.00    +0.000 HD
ENDBRANCH  14  15
ENDBRANCH  12  14
ENDBRANCH   8   9
BRANCH   3  17
ATOM     17  O   UNL     1       7.994   5.471  17.823  0.00  0.00    +0.000 OA
ATOM     18  H   UNL     1       8.480   6.042  17.208  0.00  0.00    +0.000 HD
ENDBRANCH   3  17
TORSDOF 4
ENDMDL
MODEL 9
REMARK VINA RESULT:      -5.8      2.043      5.863
REMARK  Name = 
REMARK  5 active torsions:
REMARK  status: ('A' for Active; 'I' for Inactive)
REMARK    1  A    between atoms: C_1  and  C_2
REMARK    2  A    between atoms: C_3  and  O_4
REMARK    3  A    between atoms: N_9  and  C_10
REMARK    4  A    between atoms: C_13  and  C_14
REMARK    5  A    between atoms: C_14  and  O_15
REMARK                            x       y       z     vdW  Elec       q    Type
REMARK                         _______ _______ _______ _____ _____    ______ ____
ROOT
ATOM      1  C   UNL     1       3.517   1.967  17.578  0.00  0.00    +0.000 C 
ATOM      2  C   UNL     1       3.046   3.240  18.259  0.00  0.00    +0.000 A 
ATOM      3  C   UNL     1       2.118   3.191  19.246  0.00  0.00    +0.000 A 
ATOM      4  C   UNL     1       1.556   4.483  19.770  0.00  0.00    +0.000 A 
ATOM      5  O   UNL     1       0.771   4.530  20.711  0.00  0.00    +0.000 OA
ATOM      6  C   UNL     1       2.011   5.730  19.109  0.00  0.00    +0.000 A 
ATOM      7  C   UNL     1       2.987   5.647  18.201  0.00  0.00    +0.000 A 
ATOM      8  N   UNL     1       3.591   4.463  17.790  0.00  0.00    +0.000 N 
ENDROOT
BRANCH   8   9
ATOM      9  C   UNL     1       4.986   4.475  17.279  0.00  0.00    +0.000 C 
ATOM     10  C   UNL     1       5.969   4.428  18.456  0.00  0.00    +0.000 C 
ATOM     11  S   UNL     1       7.550   4.824  17.699  0.00  0.00    +0.000 S 
ATOM     12  C   UNL     1       6.741   5.575  16.247  0.00  0.00    +0.000 C 
ATOM     13  O   UNL     1       5.320   5.637  16.500  0.00  0.00    +0.000 OA
BRANCH  12  14
ATOM     14  C   UNL     1       7.019   4.752  14.970  0.00  0.00    +0.000 C 
BRANCH  14  15
ATOM     15  O   UNL     1       7.803   5.443  14.004  0.00  0.00    +0.000 OA
ATOM     16  H   UNL     1       7.188   5.894  13.398  0.00  0.00    +0.000 HD
ENDBRANCH  14  15
ENDBRANCH  12  14
ENDBRANCH   8   9
BRANCH   3  17
ATOM     17  O   UNL     1       1.661   2.021  19.823  0.00  0.00    +0.000 OA
ATOM     18  H   UNL     1       1.819   2.062  20.780  0.00  0.00    +0.000 HD
ENDBRANCH   3  17
TORSDOF 4
ENDMDL
