MODEL 1
REMARK VINA RESULT:      -7.5      0.000      0.000
REMARK  Name = 
REMARK  12 active torsions:
REMARK  status: ('A' for Active; 'I' for Inactive)
REMARK    1  A    between atoms: C_1  and  C_2
REMARK    2  A    between atoms: C_2  and  C_3
REMARK    3  A    between atoms: C_3  and  N_4
REMARK    4  A    between atoms: C_5  and  C_7
REMARK    5  A    between atoms: C_12  and  O_13
REMARK    6  A    between atoms: O_13  and  C_14
REMARK    7  A    between atoms: C_14  and  C_15
REMARK    8  A    between atoms: C_19  and  C_20
REMARK    9  A    between atoms: C_21  and  O_22
REMARK   10  A    between atoms: O_22  and  C_23
REMARK   11  A    between atoms: C_23  and  C_24
REMARK   12  A    between atoms: C_24  and  O_26
REMARK                            x       y       z     vdW  Elec       q    Type
REMARK                         _______ _______ _______ _____ _____    ______ ____
ROOT
ATOM      1  O   UNL     1       5.122   3.369  16.884  0.00  0.00    +0.000 OA
ENDROOT
BRANCH   1   7
ATOM      2  C   UNL     1       6.774   5.060  16.396  0.00  0.00    +0.000 A 
ATOM      3  C   UNL     1       7.636   6.078  16.868  0.00  0.00    +0.000 A 
ATOM      4  C   UNL     1       7.703   6.412  18.216  0.00  0.00    +0.000 A 
ATOM      5  C   UNL     1       6.920   5.725  19.120  0.00  0.00    +0.000 A 
ATOM      6  C   UNL     1       6.069   4.727  18.668  0.00  0.00    +0.000 A 
ATOM      7  C   UNL     1       5.947   4.385  17.307  0.00  0.00    +0.000 A 
BRANCH   2   9
ATOM      8  N   UNL     1       6.193   3.760  14.385  0.00  0.00    +0.000 N 
ATOM      9  C   UNL     1       6.898   4.805  14.931  0.00  0.00    +0.000 C 
ATOM     10  O   UNL     1       7.570   5.572  14.246  0.00  0.00    +0.000 OA
ATOM     11  H   UNL     1       5.701   3.120  14.994  0.00  0.00    +0.000 HD
BRANCH   8  12
ATOM     12  C   UNL     1       6.239   3.497  12.955  0.00  0.00    +0.000 C 
BRANCH  12  14
ATOM     13  C   UNL     1       4.485   2.834  11.263  0.00  0.00    +0.000 C 
ATOM     14  C   UNL     1       4.947   3.899  12.243  0.00  0.00    +0.000 C 
ENDBRANCH  12  14
ENDBRANCH   8  12
ENDBRANCH   2   9
ENDBRANCH   1   7
BRANCH   1  15
ATOM     15  C   UNL     1       3.718   3.673  16.705  0.00  0.00    +0.000 C 
BRANCH  15  16
ATOM     16  C   UNL     1       2.842   3.559  17.951  0.00  0.00    +0.000 A 
ATOM     17  C   UNL     1       2.247   2.285  18.158  0.00  0.00    +0.000 A 
ATOM     18  C   UNL     1       1.232   2.083  19.088  0.00  0.00    +0.000 A 
ATOM     19  C   UNL     1       0.844   3.128  19.906  0.00  0.00    +0.000 A 
ATOM     20  C   UNL     1       1.491   4.370  19.819  0.00  0.00    +0.000 A 
ATOM     21  C   UNL     1       1.070   5.457  20.776  0.00  0.00    +0.000 C 
ATOM     22  C   UNL     1       2.501   4.595  18.844  0.00  0.00    +0.000 A 
BRANCH  22  23
ATOM     23  O   UNL     1       2.999   5.874  18.880  0.00  0.00    +0.000 OA
BRANCH  23  24
ATOM     24  C   UNL     1       2.661   6.759  17.820  0.00  0.00    +0.000 C 
BRANCH  24  25
ATOM     25  C   UNL     1       2.239   8.118  18.347  0.00  0.00    +0.000 C 
ATOM     26  O   UNL     1       1.878   8.327  19.503  0.00  0.00    +0.000 OA
BRANCH  25  27
ATOM     27  O   UNL     1       2.302   9.101  17.409  0.00  0.00    +0.000 OA
ATOM     28  H   UNL     1       2.079   9.968  17.821  0.00  0.00    +0.000 HD
ENDBRANCH  25  27
ENDBRANCH  24  25
ENDBRANCH  23  24
ENDBRANCH  22  23
ENDBRANCH  15  16
ENDBRANCH   1  15
TORSDOF 10
ENDMDL
MODEL 2
REMARK VINA RESULT:      -7.4      1.642      3.984
REMARK  Name = 
REMARK  12 active torsions:
REMARK  status: ('A' for Active; 'I' for Inactive)
REMARK    1  A    between atoms: C_1  and  C_2
REMARK    2  A    between atoms: C_2  and  C_3
REMARK    3  A    between atoms: C_3  and  N_4
REMARK    4  A    between atoms: C_5  and  C_7
REMARK    5  A    between atoms: C_12  and  O_13
REMARK    6  A    between atoms: O_13  and  C_14
REMARK    7  A    between atoms: C_14  and  C_15
REMARK    8  A    between atoms: C_19  and  C_20
REMARK    9  A    between atoms: C_21  and  O_22
REMARK   10  A    between atoms: O_22  and  C_23
REMARK   11  A    between atoms: C_23  and  C_24
REMARK   12  A    between atoms: C_24  and  O_26
REMARK                            x       y       z     vdW  Elec       q    Type
REMARK                         _______ _______ _______ _____ _____    ______ ____
ROOT
ATOM      1  O   UNL     1       5.321   3.330  15.811  0.00  0.00    +0.000 OA
ENDROOT
BRANCH   1   7
ATOM      2  C   UNL     1       7.063   4.791  14.999  0.00  0.00    +0.000 A 
ATOM      3  C   UNL     1       7.778   5.322  13.899  0.00  0.00    +0.000 A 
ATOM      4  C   UNL     1       7.494   4.945  12.592  0.00  0.00    +0.000 A 
ATOM      5  C   UNL     1       6.479   4.041  12.356  0.00  0.00    +0.000 A 
ATOM      6  C   UNL     1       5.773   3.512  13.427  0.00  0.00    +0.000 A 
ATOM      7  C   UNL     1       6.055   3.841  14.767  0.00  0.00    +0.000 A 
BRANCH   2   9
ATOM      8  N   UNL     1       7.358   6.728  16.494  0.00  0.00    +0.000 N 
ATOM      9  C   UNL     1       7.470   5.370  16.312  0.00  0.00    +0.000 C 
ATOM     10  O   UNL     1       7.831   4.616  17.212  0.00  0.00    +0.000 OA
ATOM     11  H   UNL     1       7.114   7.316  15.708  0.00  0.00    +0.000 HD
BRANCH   8  12
ATOM     12  C   UNL     1       7.696   7.339  17.770  0.00  0.00    +0.000 C 
BRANCH  12  14
ATOM     13  C   UNL     1       8.790   9.399  18.736  0.00  0.00    +0.000 C 
ATOM     14  C   UNL     1       7.855   8.856  17.669  0.00  0.00    +0.000 C 
ENDBRANCH  12  14
ENDBRANCH   8  12
ENDBRANCH   2   9
ENDBRANCH   1   7
BRANCH   1  15
ATOM     15  C   UNL     1       4.329   4.191  16.420  0.00  0.00    +0.000 C 
BRANCH  15  16
ATOM     16  C   UNL     1       3.567   3.603  17.606  0.00  0.00    +0.000 A 
ATOM     17  C   UNL     1       3.807   2.226  17.858  0.00  0.00    +0.000 A 
ATOM     18  C   UNL     1       3.015   1.481  18.727  0.00  0.00    +0.000 A 
ATOM     19  C   UNL     1       2.014   2.114  19.442  0.00  0.00    +0.000 A 
ATOM     20  C   UNL     1       1.824   3.498  19.315  0.00  0.00    +0.000 A 
ATOM     21  C   UNL     1       0.758   4.146  20.163  0.00  0.00    +0.000 C 
ATOM     22  C   UNL     1       2.603   4.257  18.400  0.00  0.00    +0.000 A 
BRANCH  22  23
ATOM     23  O   UNL     1       2.257   5.587  18.382  0.00  0.00    +0.000 OA
BRANCH  23  24
ATOM     24  C   UNL     1       3.031   6.494  19.156  0.00  0.00    +0.000 C 
BRANCH  24  25
ATOM     25  C   UNL     1       2.179   7.633  19.687  0.00  0.00    +0.000 C 
ATOM     26  O   UNL     1       1.776   8.570  19.002  0.00  0.00    +0.000 OA
BRANCH  25  27
ATOM     27  O   UNL     1       1.894   7.516  21.013  0.00  0.00    +0.000 OA
ATOM     28  H   UNL     1       2.139   8.349  21.479  0.00  0.00    +0.000 HD
ENDBRANCH  25  27
ENDBRANCH  24  25
ENDBRANCH  23  24
ENDBRANCH  22  23
ENDBRANCH  15  16
ENDBRANCH   1  15
TORSDOF 10
ENDMDL
MODEL 3
REMARK VINA RESULT:      -7.4      2.469      5.083
REMARK  Name = 
REMARK  12 active torsions:
REMARK  status: ('A' for Active; 'I' for Inactive)
REMARK    1  A    between atoms: C_1  and  C_2
REMARK    2  A    between atoms: C_2  and  C_3
REMARK    3  A    between atoms: C_3  and  N_4
REMARK    4  A    between atoms: C_5  and  C_7
REMARK    5  A    between atoms: C_12  and  O_13
REMARK    6  A    between atoms: O_13  and  C_14
REMARK    7  A    between atoms: C_14  and  C_15
REMARK    8  A    between atoms: C_19  and  C_20
REMARK    9  A    between atoms: C_21  and  O_22
REMARK   10  A    between atoms: O_22  and  C_23
REMARK   11  A    between atoms: C_23  and  C_24
REMARK   12  A    between atoms: C_24  and  O_26
REMARK                            x       y       z     vdW  Elec       q    Type
REMARK                         _______ _______ _______ _____ _____    ______ ____
ROOT
ATOM      1  O   UNL     1       5.030   4.718  18.077  0.00  0.00    +0.000 OA
ENDROOT
BRANCH   1   7
ATOM      2  C   UNL     1       6.812   5.465  16.630  0.00  0.00    +0.000 A 
ATOM      3  C   UNL     1       7.397   5.476  15.341  0.00  0.00    +0.000 A 
ATOM      4  C   UNL     1       6.830   4.787  14.276  0.00  0.00    +0.000 A 
ATOM      5  C   UNL     1       5.658   4.086  14.473  0.00  0.00    +0.000 A 
ATOM      6  C   UNL     1       5.077   4.067  15.733  0.00  0.00    +0.000 A 
ATOM      7  C   UNL     1       5.641   4.722  16.845  0.00  0.00    +0.000 A 
BRANCH   2   9
ATOM      8  N   UNL     1       7.664   7.661  17.356  0.00  0.00    +0.000 N 
ATOM      9  C   UNL     1       7.532   6.318  17.619  0.00  0.00    +0.000 C 
ATOM     10  O   UNL     1       7.929   5.813  18.667  0.00  0.00    +0.000 OA
ATOM     11  H   UNL     1       7.376   8.021  16.456  0.00  0.00    +0.000 HD
BRANCH   8  12
ATOM     12  C   UNL     1       8.315   8.546  18.309  0.00  0.00    +0.000 C 
BRANCH  12  14
ATOM     13  C   UNL     1       9.300  10.842  18.681  0.00  0.00    +0.000 C 
ATOM     14  C   UNL     1       8.398   9.988  17.806  0.00  0.00    +0.000 C 
ENDBRANCH  12  14
ENDBRANCH   8  12
ENDBRANCH   2   9
ENDBRANCH   1   7
BRANCH   1  15
ATOM     15  C   UNL     1       3.588   4.607  18.113  0.00  0.00    +0.000 C 
BRANCH  15  16
ATOM     16  C   UNL     1       2.825   5.881  18.471  0.00  0.00    +0.000 A 
ATOM     17  C   UNL     1       2.818   6.885  17.465  0.00  0.00    +0.000 A 
ATOM     18  C   UNL     1       2.394   8.186  17.719  0.00  0.00    +0.000 A 
ATOM     19  C   UNL     1       1.875   8.500  18.962  0.00  0.00    +0.000 A 
ATOM     20  C   UNL     1       1.750   7.507  19.945  0.00  0.00    +0.000 A 
ATOM     21  C   UNL     1       1.123   7.889  21.262  0.00  0.00    +0.000 C 
ATOM     22  C   UNL     1       2.218   6.186  19.706  0.00  0.00    +0.000 A 
BRANCH  22  23
ATOM     23  O   UNL     1       2.046   5.357  20.787  0.00  0.00    +0.000 OA
BRANCH  23  24
ATOM     24  C   UNL     1       1.153   4.258  20.660  0.00  0.00    +0.000 C 
BRANCH  24  25
ATOM     25  C   UNL     1       1.808   2.960  21.094  0.00  0.00    +0.000 C 
ATOM     26  O   UNL     1       2.360   2.796  22.180  0.00  0.00    +0.000 OA
BRANCH  25  27
ATOM     27  O   UNL     1       1.721   1.976  20.158  0.00  0.00    +0.000 OA
ATOM     28  H   UNL     1       1.900   2.353  19.264  0.00  0.00    +0.000 HD
ENDBRANCH  25  27
ENDBRANCH  24  25
ENDBRANCH  23  24
ENDBRANCH  22  23
ENDBRANCH  15  16
ENDBRANCH   1  15
TORSDOF 10
ENDMDL
MODEL 4
REMARK VINA RESULT:      -7.2      2.589      5.317
REMARK  Name = 
REMARK  12 active torsions:
REMARK  status: ('A' for Active; 'I' for Inactive)
REMARK    1  A    between atoms: C_1  and  C_2
REMARK    2  A    between atoms: C_2  and  C_3
REMARK    3  A    between atoms: C_3  and  N_4
REMARK    4  A    between atoms: C_5  and  C_7
REMARK    5  A    between atoms: C_12  and  O_13
REMARK    6  A    between atoms: O_13  and  C_14
REMARK    7  A    between atoms: C_14  and  C_15
REMARK    8  A    between atoms: C_19  and  C_20
REMARK    9  A    between atoms: C_21  and  O_22
REMARK   10  A    between atoms: O_22  and  C_23
REMARK   11  A    between atoms: C_23  and  C_24
REMARK   12  A    between atoms: C_24  and  O_26
REMARK                            x       y       z     vdW  Elec       q    Type
REMARK                         _______ _______ _______ _____ _____    ______ ____
ROOT
ATOM      1  O   UNL     1       4.849   7.401  17.419  0.00  0.00    +0.000 OA
ENDROOT
BRANCH   1   7
ATOM      2  C   UNL     1       6.878   6.124  17.130  0.00  0.00    +0.000 A 
ATOM      3  C   UNL     1       7.557   5.067  16.479  0.00  0.00    +0.000 A 
ATOM      4  C   UNL     1       6.928   4.270  15.529  0.00  0.00    +0.000 A 
ATOM      5  C   UNL     1       5.612   4.524  15.200  0.00  0.00    +0.000 A 
ATOM      6  C   UNL     1       4.936   5.556  15.835  0.00  0.00    +0.000 A 
ATOM      7  C   UNL     1       5.527   6.361  16.827  0.00  0.00    +0.000 A 
BRANCH   2   9
ATOM      8  N   UNL     1       7.921   8.245  17.828  0.00  0.00    +0.000 N 
ATOM      9  C   UNL     1       7.742   6.903  18.064  0.00  0.00    +0.000 C 
ATOM     10  O   UNL     1       8.215   6.341  19.049  0.00  0.00    +0.000 OA
ATOM     11  H   UNL     1       7.563   8.651  16.973  0.00  0.00    +0.000 HD
BRANCH   8  12
ATOM     12  C   UNL     1       8.715   9.061  18.733  0.00  0.00    +0.000 C 
BRANCH  12  14
ATOM     13  C   UNL     1      10.075  11.174  18.979  0.00  0.00    +0.000 C 
ATOM     14  C   UNL     1       9.036  10.437  18.151  0.00  0.00    +0.000 C 
ENDBRANCH  12  14
ENDBRANCH   8  12
ENDBRANCH   2   9
ENDBRANCH   1   7
BRANCH   1  15
ATOM     15  C   UNL     1       3.408   7.424  17.290  0.00  0.00    +0.000 C 
BRANCH  15  16
ATOM     16  C   UNL     1       2.614   7.079  18.549  0.00  0.00    +0.000 A 
ATOM     17  C   UNL     1       1.953   8.174  19.166  0.00  0.00    +0.000 A 
ATOM     18  C   UNL     1       1.405   8.085  20.443  0.00  0.00    +0.000 A 
ATOM     19  C   UNL     1       1.420   6.870  21.104  0.00  0.00    +0.000 A 
ATOM     20  C   UNL     1       1.953   5.733  20.478  0.00  0.00    +0.000 A 
ATOM     21  C   UNL     1       1.890   4.422  21.220  0.00  0.00    +0.000 C 
ATOM     22  C   UNL     1       2.551   5.826  19.192  0.00  0.00    +0.000 A 
BRANCH  22  23
ATOM     23  O   UNL     1       3.050   4.625  18.750  0.00  0.00    +0.000 OA
BRANCH  23  24
ATOM     24  C   UNL     1       4.345   4.232  19.185  0.00  0.00    +0.000 C 
BRANCH  24  25
ATOM     25  C   UNL     1       4.469   2.721  19.257  0.00  0.00    +0.000 C 
ATOM     26  O   UNL     1       4.851   2.108  20.252  0.00  0.00    +0.000 OA
BRANCH  25  27
ATOM     27  O   UNL     1       4.109   2.098  18.103  0.00  0.00    +0.000 OA
ATOM     28  H   UNL     1       4.730   2.352  17.381  0.00  0.00    +0.000 HD
ENDBRANCH  25  27
ENDBRANCH  24  25
ENDBRANCH  23  24
ENDBRANCH  22  23
ENDBRANCH  15  16
ENDBRANCH   1  15
TORSDOF 10
ENDMDL
MODEL 5
REMARK VINA RESULT:      -7.2      2.566      5.651
REMARK  Name = 
REMARK  12 active torsions:
REMARK  status: ('A' for Active; 'I' for Inactive)
REMARK    1  A    between atoms: C_1  and  C_2
REMARK    2  A    between atoms: C_2  and  C_3
REMARK    3  A    between atoms: C_3  and  N_4
REMARK    4  A    between atoms: C_5  and  C_7
REMARK    5  A    between atoms: C_12  and  O_13
REMARK    6  A    between atoms: O_13  and  C_14
REMARK    7  A    between atoms: C_14  and  C_15
REMARK    8  A    between atoms: C_19  and  C_20
REMARK    9  A    between atoms: C_21  and  O_22
REMARK   10  A    between atoms: O_22  and  C_23
REMARK   11  A    between atoms: C_23  and  C_24
REMARK   12  A    between atoms: C_24  and  O_26
REMARK                            x       y       z     vdW  Elec       q    Type
REMARK                         _______ _______ _______ _____ _____    ______ ____
ROOT
ATOM      1  O   UNL     1       2.957   5.505  20.429  0.00  0.00    +0.000 OA
ENDROOT
BRANCH   1   7
ATOM      2  C   UNL     1       3.289   3.649  18.921  0.00  0.00    +0.000 A 
ATOM      3  C   UNL     1       2.774   2.478  18.316  0.00  0.00    +0.000 A 
ATOM      4  C   UNL     1       1.495   2.011  18.599  0.00  0.00    +0.000 A 
ATOM      5  C   UNL     1       0.700   2.714  19.480  0.00  0.00    +0.000 A 
ATOM      6  C   UNL     1       1.196   3.862  20.081  0.00  0.00    +0.000 A 
ATOM      7  C   UNL     1       2.498   4.346  19.849  0.00  0.00    +0.000 A 
BRANCH   2   9
ATOM      8  N   UNL     1       4.769   4.620  17.206  0.00  0.00    +0.000 N 
ATOM      9  C   UNL     1       4.650   4.021  18.438  0.00  0.00    +0.000 C 
ATOM     10  O   UNL     1       5.616   3.843  19.176  0.00  0.00    +0.000 OA
ATOM     11  H   UNL     1       3.956   4.692  16.609  0.00  0.00    +0.000 HD
BRANCH   8  12
ATOM     12  C   UNL     1       6.066   5.047  16.707  0.00  0.00    +0.000 C 
BRANCH  12  14
ATOM     13  C   UNL     1       7.505   6.688  17.978  0.00  0.00    +0.000 C 
ATOM     14  C   UNL     1       6.352   6.519  17.003  0.00  0.00    +0.000 C 
ENDBRANCH  12  14
ENDBRANCH   8  12
ENDBRANCH   2   9
ENDBRANCH   1   7
BRANCH   1  15
ATOM     15  C   UNL     1       1.986   6.530  20.744  0.00  0.00    +0.000 C 
BRANCH  15  16
ATOM     16  C   UNL     1       1.808   7.631  19.699  0.00  0.00    +0.000 A 
ATOM     17  C   UNL     1       2.542   7.448  18.496  0.00  0.00    +0.000 A 
ATOM     18  C   UNL     1       2.694   8.465  17.558  0.00  0.00    +0.000 A 
ATOM     19  C   UNL     1       2.038   9.667  17.750  0.00  0.00    +0.000 A 
ATOM     20  C   UNL     1       1.204   9.846  18.863  0.00  0.00    +0.000 A 
ATOM     21  C   UNL     1       0.466  11.155  18.992  0.00  0.00    +0.000 C 
ATOM     22  C   UNL     1       1.076   8.827  19.846  0.00  0.00    +0.000 A 
BRANCH  22  23
ATOM     23  O   UNL     1       0.248   9.186  20.881  0.00  0.00    +0.000 OA
BRANCH  23  24
ATOM     24  C   UNL     1       0.838   9.668  22.081  0.00  0.00    +0.000 C 
BRANCH  24  25
ATOM     25  C   UNL     1      -0.208   9.911  23.153  0.00  0.00    +0.000 C 
ATOM     26  O   UNL     1      -1.239  10.555  22.976  0.00  0.00    +0.000 OA
BRANCH  25  27
ATOM     27  O   UNL     1       0.104   9.336  24.346  0.00  0.00    +0.000 OA
ATOM     28  H   UNL     1      -0.131   9.950  25.081  0.00  0.00    +0.000 HD
ENDBRANCH  25  27
ENDBRANCH  24  25
ENDBRANCH  23  24
ENDBRANCH  22  23
ENDBRANCH  15  16
ENDBRANCH   1  15
TORSDOF 10
ENDMDL
MODEL 6
REMARK VINA RESULT:      -7.2      2.881      5.980
REMARK  Name = 
REMARK  12 active torsions:
REMARK  status: ('A' for Active; 'I' for Inactive)
REMARK    1  A    between atoms: C_1  and  C_2
REMARK    2  A    between atoms: C_2  and  C_3
REMARK    3  A    between atoms: C_3  and  N_4
REMARK    4  A    between atoms: C_5  and  C_7
REMARK    5  A    between atoms: C_12  and  O_13
REMARK    6  A    between atoms: O_13  and  C_14
REMARK    7  A    between atoms: C_14  and  C_15
REMARK    8  A    between atoms: C_19  and  C_20
REMARK    9  A    between atoms: C_21  and  O_22
REMARK   10  A    between atoms: O_22  and  C_23
REMARK   11  A    between atoms: C_23  and  C_24
REMARK   12  A    between atoms: C_24  and  O_26
REMARK                            x       y       z     vdW  Elec       q    Type
REMARK                         _______ _______ _______ _____ _____    ______ ____
ROOT
ATOM      1  O   UNL     1       3.012   7.379  18.296  0.00  0.00    +0.000 OA
ENDROOT
BRANCH   1   7
ATOM      2  C   UNL     1       4.152   5.558  17.194  0.00  0.00    +0.000 A 
ATOM      3  C   UNL     1       4.163   4.196  16.811  0.00  0.00    +0.000 A 
ATOM      4  C   UNL     1       3.117   3.338  17.131  0.00  0.00    +0.000 A 
ATOM      5  C   UNL     1       2.032   3.829  17.827  0.00  0.00    +0.000 A 
ATOM      6  C   UNL     1       2.011   5.162  18.210  0.00  0.00    +0.000 A 
ATOM      7  C   UNL     1       3.067   6.052  17.936  0.00  0.00    +0.000 A 
BRANCH   2   9
ATOM      8  N   UNL     1       6.239   6.798  17.616  0.00  0.00    +0.000 N 
ATOM      9  C   UNL     1       5.330   6.327  16.699  0.00  0.00    +0.000 C 
ATOM     10  O   UNL     1       5.490   6.462  15.488  0.00  0.00    +0.000 OA
ATOM     11  H   UNL     1       6.036   6.716  18.603  0.00  0.00    +0.000 HD
BRANCH   8  12
ATOM     12  C   UNL     1       7.431   7.512  17.184  0.00  0.00    +0.000 C 
BRANCH  12  14
ATOM     13  C   UNL     1       8.512   9.526  18.257  0.00  0.00    +0.000 C 
ATOM     14  C   UNL     1       8.259   8.031  18.359  0.00  0.00    +0.000 C 
ENDBRANCH  12  14
ENDBRANCH   8  12
ENDBRANCH   2   9
ENDBRANCH   1   7
BRANCH   1  15
ATOM     15  C   UNL     1       1.901   7.806  19.118  0.00  0.00    +0.000 C 
BRANCH  15  16
ATOM     16  C   UNL     1       1.478   9.267  18.971  0.00  0.00    +0.000 A 
ATOM     17  C   UNL     1       2.259  10.034  18.065  0.00  0.00    +0.000 A 
ATOM     18  C   UNL     1       2.174  11.422  18.003  0.00  0.00    +0.000 A 
ATOM     19  C   UNL     1       1.237  12.079  18.781  0.00  0.00    +0.000 A 
ATOM     20  C   UNL     1       0.362  11.348  19.599  0.00  0.00    +0.000 A 
ATOM     21  C   UNL     1      -0.679  12.110  20.380  0.00  0.00    +0.000 C 
ATOM     22  C   UNL     1       0.470   9.934  19.696  0.00  0.00    +0.000 A 
BRANCH  22  23
ATOM     23  O   UNL     1      -0.442   9.389  20.567  0.00  0.00    +0.000 OA
BRANCH  23  24
ATOM     24  C   UNL     1       0.040   8.574  21.626  0.00  0.00    +0.000 C 
BRANCH  24  25
ATOM     25  C   UNL     1       0.670   9.410  22.725  0.00  0.00    +0.000 C 
ATOM     26  O   UNL     1       0.032  10.104  23.514  0.00  0.00    +0.000 OA
BRANCH  25  27
ATOM     27  O   UNL     1       2.027   9.316  22.760  0.00  0.00    +0.000 OA
ATOM     28  H   UNL     1       2.348   9.505  23.673  0.00  0.00    +0.000 HD
ENDBRANCH  25  27
ENDBRANCH  24  25
ENDBRANCH  23  24
ENDBRANCH  22  23
ENDBRANCH  15  16
ENDBRANCH   1  15
TORSDOF 10
ENDMDL
MODEL 7
REMARK VINA RESULT:      -7.1      2.684      6.464
REMARK  Name = 
REMARK  12 active torsions:
REMARK  status: ('A' for Active; 'I' for Inactive)
REMARK    1  A    between atoms: C_1  and  C_2
REMARK    2  A    between atoms: C_2  and  C_3
REMARK    3  A    between atoms: C_3  and  N_4
REMARK    4  A    between atoms: C_5  and  C_7
REMARK    5  A    between atoms: C_12  and  O_13
REMARK    6  A    between atoms: O_13  and  C_14
REMARK    7  A    between atoms: C_14  and  C_15
REMARK    8  A    between atoms: C_19  and  C_20
REMARK    9  A    between atoms: C_21  and  O_22
REMARK   10  A    between atoms: O_22  and  C_23
REMARK   11  A    between atoms: C_23  and  C_24
REMARK   12  A    between atoms: C_24  and  O_26
REMARK                            x       y       z     vdW  Elec       q    Type
REMARK                         _______ _______ _______ _____ _____    ______ ____
ROOT
ATOM      1  O   UNL     1       2.556   4.143  16.847  0.00  0.00    +0.000 OA
ENDROOT
BRANCH   1   7
ATOM      2  C   UNL     1       1.831   4.838  19.042  0.00  0.00    +0.000 A 
ATOM      3  C   UNL     1       1.213   4.507  20.271  0.00  0.00    +0.000 A 
ATOM      4  C   UNL     1       0.722   3.230  20.521  0.00  0.00    +0.000 A 
ATOM      5  C   UNL     1       0.854   2.256  19.554  0.00  0.00    +0.000 A 
ATOM      6  C   UNL     1       1.456   2.571  18.344  0.00  0.00    +0.000 A 
ATOM      7  C   UNL     1       1.932   3.861  18.040  0.00  0.00    +0.000 A 
BRANCH   2   9
ATOM      8  N   UNL     1       2.073   7.002  17.886  0.00  0.00    +0.000 N 
ATOM      9  C   UNL     1       2.350   6.236  18.994  0.00  0.00    +0.000 C 
ATOM     10  O   UNL     1       2.952   6.684  19.966  0.00  0.00    +0.000 OA
ATOM     11  H   UNL     1       1.627   6.573  17.086  0.00  0.00    +0.000 HD
BRANCH   8  12
ATOM     12  C   UNL     1       2.513   8.386  17.808  0.00  0.00    +0.000 C 
BRANCH  12  14
ATOM     13  C   UNL     1       0.950   9.647  19.339  0.00  0.00    +0.000 C 
ATOM     14  C   UNL     1       1.352   9.375  17.899  0.00  0.00    +0.000 C 
ENDBRANCH  12  14
ENDBRANCH   8  12
ENDBRANCH   2   9
ENDBRANCH   1   7
BRANCH   1  15
ATOM     15  C   UNL     1       3.950   3.779  16.716  0.00  0.00    +0.000 C 
BRANCH  15  16
ATOM     16  C   UNL     1       4.964   4.833  17.158  0.00  0.00    +0.000 A 
ATOM     17  C   UNL     1       5.073   5.964  16.305  0.00  0.00    +0.000 A 
ATOM     18  C   UNL     1       6.113   6.882  16.420  0.00  0.00    +0.000 A 
ATOM     19  C   UNL     1       7.024   6.749  17.452  0.00  0.00    +0.000 A 
ATOM     20  C   UNL     1       6.881   5.716  18.391  0.00  0.00    +0.000 A 
ATOM     21  C   UNL     1       7.867   5.653  19.529  0.00  0.00    +0.000 C 
ATOM     22  C   UNL     1       5.845   4.751  18.256  0.00  0.00    +0.000 A 
BRANCH  22  23
ATOM     23  O   UNL     1       5.876   3.796  19.242  0.00  0.00    +0.000 OA
BRANCH  23  24
ATOM     24  C   UNL     1       4.737   3.654  20.080  0.00  0.00    +0.000 C 
BRANCH  24  25
ATOM     25  C   UNL     1       4.562   2.217  20.537  0.00  0.00    +0.000 C 
ATOM     26  O   UNL     1       5.125   1.256  20.018  0.00  0.00    +0.000 OA
BRANCH  25  27
ATOM     27  O   UNL     1       3.715   2.090  21.594  0.00  0.00    +0.000 OA
ATOM     28  H   UNL     1       3.537   2.978  21.984  0.00  0.00    +0.000 HD
ENDBRANCH  25  27
ENDBRANCH  24  25
ENDBRANCH  23  24
ENDBRANCH  22  23
ENDBRANCH  15  16
ENDBRANCH   1  15
TORSDOF 10
ENDMDL
MODEL 8
REMARK VINA RESULT:      -7.1      3.285      6.022
REMARK  Name = 
REMARK  12 active torsions:
REMARK  status: ('A' for Active; 'I' for Inactive)
REMARK    1  A    between atoms: C_1  and  C_2
REMARK    2  A    between atoms: C_2  and  C_3
REMARK    3  A    between atoms: C_3  and  N_4
REMARK    4  A    between atoms: C_5  and  C_7
REMARK    5  A    between atoms: C_12  and  O_13
REMARK    6  A    between atoms: O_13  and  C_14
REMARK    7  A    between atoms: C_14  and  C_15
REMARK    8  A    between atoms: C_19  and  C_20
REMARK    9  A    between atoms: C_21  and  O_22
REMARK   10  A    between atoms: O_22  and  C_23
REMARK   11  A    between atoms: C_23  and  C_24
REMARK   12  A    between atoms: C_24  and  O_26
REMARK                            x       y       z     vdW  Elec       q    Type
REMARK                         _______ _______ _______ _____ _____    ______ ____
ROOT
ATOM      1  O   UNL     1       2.653   7.163  19.713  0.00  0.00    +0.000 OA
ENDROOT
BRANCH   1   7
ATOM      2  C   UNL     1       2.924   4.998  18.679  0.00  0.00    +0.000 A 
ATOM      3  C   UNL     1       2.532   3.641  18.598  0.00  0.00    +0.000 A 
ATOM      4  C   UNL     1       1.544   3.116  19.422  0.00  0.00    +0.000 A 
ATOM      5  C   UNL     1       0.917   3.941  20.333  0.00  0.00    +0.000 A 
ATOM      6  C   UNL     1       1.295   5.272  20.423  0.00  0.00    +0.000 A 
ATOM      7  C   UNL     1       2.317   5.832  19.631  0.00  0.00    +0.000 A 
BRANCH   2   9
ATOM      8  N   UNL     1       4.739   6.481  17.917  0.00  0.00    +0.000 N 
ATOM      9  C   UNL     1       3.950   5.384  17.667  0.00  0.00    +0.000 C 
ATOM     10  O   UNL     1       4.105   4.678  16.674  0.00  0.00    +0.000 OA
ATOM     11  H   UNL     1       4.536   7.067  18.717  0.00  0.00    +0.000 HD
BRANCH   8  12
ATOM     12  C   UNL     1       5.787   6.874  16.987  0.00  0.00    +0.000 C 
BRANCH  12  14
ATOM     13  C   UNL     1       7.559   5.564  18.221  0.00  0.00    +0.000 C 
ATOM     14  C   UNL     1       7.167   6.914  17.643  0.00  0.00    +0.000 C 
ENDBRANCH  12  14
ENDBRANCH   8  12
ENDBRANCH   2   9
ENDBRANCH   1   7
BRANCH   1  15
ATOM     15  C   UNL     1       1.705   8.128  19.200  0.00  0.00    +0.000 C 
BRANCH  15  16
ATOM     16  C   UNL     1       1.065   9.056  20.232  0.00  0.00    +0.000 A 
ATOM     17  C   UNL     1       1.294   8.701  21.589  0.00  0.00    +0.000 A 
ATOM     18  C   UNL     1       0.584   9.280  22.636  0.00  0.00    +0.000 A 
ATOM     19  C   UNL     1      -0.311  10.300  22.367  0.00  0.00    +0.000 A 
ATOM     20  C   UNL     1      -0.476  10.765  21.054  0.00  0.00    +0.000 A 
ATOM     21  C   UNL     1      -1.420  11.918  20.825  0.00  0.00    +0.000 C 
ATOM     22  C   UNL     1       0.215  10.151  19.974  0.00  0.00    +0.000 A 
BRANCH  22  23
ATOM     23  O   UNL     1      -0.092  10.710  18.758  0.00  0.00    +0.000 OA
BRANCH  23  24
ATOM     24  C   UNL     1      -1.155  10.144  18.004  0.00  0.00    +0.000 C 
BRANCH  24  25
ATOM     25  C   UNL     1      -1.890  11.202  17.202  0.00  0.00    +0.000 C 
ATOM     26  O   UNL     1      -2.855  10.970  16.477  0.00  0.00    +0.000 OA
BRANCH  25  27
ATOM     27  O   UNL     1      -1.378  12.452  17.367  0.00  0.00    +0.000 OA
ATOM     28  H   UNL     1      -2.014  13.005  17.877  0.00  0.00    +0.000 HD
ENDBRANCH  25  27
ENDBRANCH  24  25
ENDBRANCH  23  24
ENDBRANCH  22  23
ENDBRANCH  15  16
ENDBRANCH   1  15
TORSDOF 10
ENDMDL
MODEL 9
REMARK VINA RESULT:      -7.1      0.955      1.395
REMARK  Name = 
REMARK  12 active torsions:
REMARK  status: ('A' for Active; 'I' for Inactive)
REMARK    1  A    between atoms: C_1  and  C_2
REMARK    2  A    between atoms: C_2  and  C_3
REMARK    3  A    between atoms: C_3  and  N_4
REMARK    4  A    between atoms: C_5  and  C_7
REMARK    5  A    between atoms: C_12  and  O_13
REMARK    6  A    between atoms: O_13  and  C_14
REMARK    7  A    between atoms: C_14  and  C_15
REMARK    8  A    between atoms: C_19  and  C_20
REMARK    9  A    between atoms: C_21  and  O_22
REMARK   10  A    between atoms: O_22  and  C_23
REMARK   11  A    between atoms: C_23  and  C_24
REMARK   12  A    between atoms: C_24  and  O_26
REMARK                            x       y       z     vdW  Elec       q    Type
REMARK                         _______ _______ _______ _____ _____    ______ ____
ROOT
ATOM      1  O   UNL     1       5.094   3.465  17.425  0.00  0.00    +0.000 OA
ENDROOT
BRANCH   1   7
ATOM      2  C   UNL     1       6.321   5.394  16.647  0.00  0.00    +0.000 A 
ATOM      3  C   UNL     1       7.201   6.463  16.938  0.00  0.00    +0.000 A 
ATOM      4  C   UNL     1       7.700   6.671  18.218  0.00  0.00    +0.000 A 
ATOM      5  C   UNL     1       7.341   5.805  19.230  0.00  0.00    +0.000 A 
ATOM      6  C   UNL     1       6.477   4.754  18.957  0.00  0.00    +0.000 A 
ATOM      7  C   UNL     1       5.923   4.533  17.682  0.00  0.00    +0.000 A 
BRANCH   2   9
ATOM      8  N   UNL     1       6.266   4.151  14.519  0.00  0.00    +0.000 N 
ATOM      9  C   UNL     1       5.952   5.300  15.204  0.00  0.00    +0.000 C 
ATOM     10  O   UNL     1       5.322   6.220  14.688  0.00  0.00    +0.000 OA
ATOM     11  H   UNL     1       6.837   3.446  14.967  0.00  0.00    +0.000 HD
BRANCH   8  12
ATOM     12  C   UNL     1       5.887   3.988  13.124  0.00  0.00    +0.000 C 
BRANCH  12  14
ATOM     13  C   UNL     1       7.962   5.294  12.522  0.00  0.00    +0.000 C 
ATOM     14  C   UNL     1       7.079   4.107  12.176  0.00  0.00    +0.000 C 
ENDBRANCH  12  14
ENDBRANCH   8  12
ENDBRANCH   2   9
ENDBRANCH   1   7
BRANCH   1  15
ATOM     15  C   UNL     1       3.678   3.731  17.288  0.00  0.00    +0.000 C 
BRANCH  15  16
ATOM     16  C   UNL     1       2.889   3.853  18.591  0.00  0.00    +0.000 A 
ATOM     17  C   UNL     1       2.331   2.640  19.076  0.00  0.00    +0.000 A 
ATOM     18  C   UNL     1       1.383   2.615  20.096  0.00  0.00    +0.000 A 
ATOM     19  C   UNL     1       1.034   3.796  20.726  0.00  0.00    +0.000 A 
ATOM     20  C   UNL     1       1.654   5.000  20.360  0.00  0.00    +0.000 A 
ATOM     21  C   UNL     1       1.280   6.248  21.119  0.00  0.00    +0.000 C 
ATOM     22  C   UNL     1       2.592   5.039  19.292  0.00  0.00    +0.000 A 
BRANCH  22  23
ATOM     23  O   UNL     1       3.071   6.303  19.050  0.00  0.00    +0.000 OA
BRANCH  23  24
ATOM     24  C   UNL     1       2.702   6.942  17.835  0.00  0.00    +0.000 C 
BRANCH  24  25
ATOM     25  C   UNL     1       2.274   8.379  18.073  0.00  0.00    +0.000 C 
ATOM     26  O   UNL     1       2.354   9.270  17.231  0.00  0.00    +0.000 OA
BRANCH  25  27
ATOM     27  O   UNL     1       1.779   8.591  19.323  0.00  0.00    +0.000 OA
ATOM     28  H   UNL     1       0.794   8.551  19.300  0.00  0.00    +0.000 HD
ENDBRANCH  25  27
ENDBRANCH  24  25
ENDBRANCH  23  24
ENDBRANCH  22  23
ENDBRANCH  15  16
ENDBRANCH   1  15
TORSDOF 10
ENDMDL
