MODEL 1
REMARK VINA RESULT:      -7.2      0.000      0.000
REMARK  Name = 
REMARK  7 active torsions:
REMARK  status: ('A' for Active; 'I' for Inactive)
REMARK    1  A    between atoms: C_1  and  N_2
REMARK    2  A    between atoms: N_2  and  C_3
REMARK    3  A    between atoms: C_5  and  C_6
REMARK    4  A    between atoms: C_7  and  C_8
REMARK    5  A    between atoms: C_15  and  S_16
REMARK    6  A    between atoms: S_16  and  C_17
REMARK    7  A    between atoms: C_19  and  N_20
REMARK                            x       y       z     vdW  Elec       q    Type
REMARK                         _______ _______ _______ _____ _____    ______ ____
ROOT
ATOM      1  C   UNL     1       2.252   4.058  20.019  0.00  0.00    +0.000 A 
ATOM      2  N   UNL     1       1.742   5.262  20.332  0.00  0.00    +0.000 NA
ATOM      3  C   UNL     1       2.374   6.355  19.884  0.00  0.00    +0.000 A 
ATOM      4  N   UNL     1       3.508   6.348  19.177  0.00  0.00    +0.000 NA
ATOM      5  C   UNL     1       4.062   5.150  18.898  0.00  0.00    +0.000 A 
ATOM      6  C   UNL     1       3.428   3.979  19.287  0.00  0.00    +0.000 A 
ENDROOT
BRANCH   1   8
ATOM      7  C   UNL     1       1.791   2.628  21.926  0.00  0.00    +0.000 C 
ATOM      8  N   UNL     1       1.588   2.920  20.511  0.00  0.00    +0.000 N 
ATOM      9  H   UNL     1       0.593   2.954  20.278  0.00  0.00    +0.000 HD
ENDBRANCH   1   8
BRANCH   6  10
ATOM     10  N   UNL     1       3.932   2.691  18.903  0.00  0.00    +0.000 N 
ATOM     11  O   UNL     1       4.739   2.157  19.679  0.00  0.00    +0.000 OA
ATOM     12  O   UNL     1       3.530   2.207  17.842  0.00  0.00    +0.000 OA
ENDBRANCH   6  10
BRANCH   3  13
ATOM     13  C   UNL     1       1.751   7.633  20.207  0.00  0.00    +0.000 C 
ATOM     14  C   UNL     1       0.954   7.852  21.265  0.00  0.00    +0.000 C 
BRANCH  14  15
ATOM     15  C   UNL     1       0.281   9.134  21.533  0.00  0.00    +0.000 A 
ATOM     16  C   UNL     1      -0.218   9.377  22.819  0.00  0.00    +0.000 A 
ATOM     17  C   UNL     1      -0.894  10.565  23.110  0.00  0.00    +0.000 A 
ATOM     18  C   UNL     1      -1.063  11.532  22.121  0.00  0.00    +0.000 A 
ATOM     19  C   UNL     1      -0.545  11.316  20.846  0.00  0.00    +0.000 A 
ATOM     20  C   UNL     1       0.129  10.128  20.557  0.00  0.00    +0.000 A 
ENDBRANCH  14  15
ENDBRANCH   3  13
BRANCH   5  21
ATOM     21  S   UNL     1       5.573   5.235  17.938  0.00  0.00    +0.000 S 
BRANCH  21  22
ATOM     22  C   UNL     1       6.696   5.378  19.204  0.00  0.00    +0.000 C 
ATOM     23  N   UNL     1       7.489   5.449  20.050  0.00  0.00    +0.000 NA
ENDBRANCH  21  22
ENDBRANCH   5  21
TORSDOF 6
ENDMDL
MODEL 2
REMARK VINA RESULT:      -7.2      0.063      1.028
REMARK  Name = 
REMARK  7 active torsions:
REMARK  status: ('A' for Active; 'I' for Inactive)
REMARK    1  A    between atoms: C_1  and  N_2
REMARK    2  A    between atoms: N_2  and  C_3
REMARK    3  A    between atoms: C_5  and  C_6
REMARK    4  A    between atoms: C_7  and  C_8
REMARK    5  A    between atoms: C_15  and  S_16
REMARK    6  A    between atoms: S_16  and  C_17
REMARK    7  A    between atoms: C_19  and  N_20
REMARK                            x       y       z     vdW  Elec       q    Type
REMARK                         _______ _______ _______ _____ _____    ______ ____
ROOT
ATOM      1  C   UNL     1       2.257   4.026  20.009  0.00  0.00    +0.000 A 
ATOM      2  N   UNL     1       1.738   5.223  20.332  0.00  0.00    +0.000 NA
ATOM      3  C   UNL     1       2.360   6.324  19.890  0.00  0.00    +0.000 A 
ATOM      4  N   UNL     1       3.492   6.331  19.179  0.00  0.00    +0.000 NA
ATOM      5  C   UNL     1       4.055   5.140  18.889  0.00  0.00    +0.000 A 
ATOM      6  C   UNL     1       3.431   3.960  19.273  0.00  0.00    +0.000 A 
ENDROOT
BRANCH   1   8
ATOM      7  C   UNL     1       1.774   2.606  21.918  0.00  0.00    +0.000 C 
ATOM      8  N   UNL     1       1.604   2.878  20.495  0.00  0.00    +0.000 N 
ATOM      9  H   UNL     1       0.614   2.889  20.235  0.00  0.00    +0.000 HD
ENDBRANCH   1   8
BRANCH   6  10
ATOM     10  N   UNL     1       3.944   2.679  18.878  0.00  0.00    +0.000 N 
ATOM     11  O   UNL     1       4.751   2.143  19.653  0.00  0.00    +0.000 OA
ATOM     12  O   UNL     1       3.550   2.203  17.810  0.00  0.00    +0.000 OA
ENDBRANCH   6  10
BRANCH   3  13
ATOM     13  C   UNL     1       1.728   7.595  20.223  0.00  0.00    +0.000 C 
ATOM     14  C   UNL     1       0.990   7.819  21.322  0.00  0.00    +0.000 C 
BRANCH  14  15
ATOM     15  C   UNL     1       0.305   9.091  21.604  0.00  0.00    +0.000 A 
ATOM     16  C   UNL     1       0.193  10.037  20.576  0.00  0.00    +0.000 A 
ATOM     17  C   UNL     1      -0.419  11.272  20.807  0.00  0.00    +0.000 A 
ATOM     18  C   UNL     1      -0.941  11.569  22.064  0.00  0.00    +0.000 A 
ATOM     19  C   UNL     1      -0.864  10.626  23.085  0.00  0.00    +0.000 A 
ATOM     20  C   UNL     1      -0.251   9.392  22.854  0.00  0.00    +0.000 A 
ENDBRANCH  14  15
ENDBRANCH   3  13
BRANCH   5  21
ATOM     21  S   UNL     1       5.562   5.243  17.926  0.00  0.00    +0.000 S 
BRANCH  21  22
ATOM     22  C   UNL     1       6.690   5.358  19.190  0.00  0.00    +0.000 C 
ATOM     23  N   UNL     1       7.473   5.474  20.040  0.00  0.00    +0.000 NA
ENDBRANCH  21  22
ENDBRANCH   5  21
TORSDOF 6
ENDMDL
MODEL 3
REMARK VINA RESULT:      -7.0      1.014      1.175
REMARK  Name = 
REMARK  7 active torsions:
REMARK  status: ('A' for Active; 'I' for Inactive)
REMARK    1  A    between atoms: C_1  and  N_2
REMARK    2  A    between atoms: N_2  and  C_3
REMARK    3  A    between atoms: C_5  and  C_6
REMARK    4  A    between atoms: C_7  and  C_8
REMARK    5  A    between atoms: C_15  and  S_16
REMARK    6  A    between atoms: S_16  and  C_17
REMARK    7  A    between atoms: C_19  and  N_20
REMARK                            x       y       z     vdW  Elec       q    Type
REMARK                         _______ _______ _______ _____ _____    ______ ____
ROOT
ATOM      1  C   UNL     1       2.305   3.958  19.959  0.00  0.00    +0.000 A 
ATOM      2  N   UNL     1       1.785   5.167  20.232  0.00  0.00    +0.000 NA
ATOM      3  C   UNL     1       2.494   6.253  19.897  0.00  0.00    +0.000 A 
ATOM      4  N   UNL     1       3.711   6.233  19.344  0.00  0.00    +0.000 NA
ATOM      5  C   UNL     1       4.270   5.027  19.110  0.00  0.00    +0.000 A 
ATOM      6  C   UNL     1       3.564   3.864  19.384  0.00  0.00    +0.000 A 
ENDROOT
BRANCH   1   8
ATOM      7  C   UNL     1       1.522   2.531  21.760  0.00  0.00    +0.000 C 
ATOM      8  N   UNL     1       1.557   2.826  20.331  0.00  0.00    +0.000 N 
ATOM      9  H   UNL     1       0.613   2.872  19.939  0.00  0.00    +0.000 HD
ENDBRANCH   1   8
BRANCH   6  10
ATOM     10  N   UNL     1       4.085   2.573  19.038  0.00  0.00    +0.000 N 
ATOM     11  O   UNL     1       4.816   2.026  19.878  0.00  0.00    +0.000 OA
ATOM     12  O   UNL     1       3.771   2.098  17.943  0.00  0.00    +0.000 OA
ENDBRANCH   6  10
BRANCH   3  13
ATOM     13  C   UNL     1       1.864   7.539  20.167  0.00  0.00    +0.000 C 
ATOM     14  C   UNL     1       1.066   7.797  21.217  0.00  0.00    +0.000 C 
BRANCH  14  15
ATOM     15  C   UNL     1       0.386   9.084  21.431  0.00  0.00    +0.000 A 
ATOM     16  C   UNL     1      -0.104   9.382  22.710  0.00  0.00    +0.000 A 
ATOM     17  C   UNL     1      -0.787  10.577  22.952  0.00  0.00    +0.000 A 
ATOM     18  C   UNL     1      -0.973  11.496  21.922  0.00  0.00    +0.000 A 
ATOM     19  C   UNL     1      -0.465  11.226  20.654  0.00  0.00    +0.000 A 
ATOM     20  C   UNL     1       0.216  10.031  20.412  0.00  0.00    +0.000 A 
ENDBRANCH  14  15
ENDBRANCH   3  13
BRANCH   5  21
ATOM     21  S   UNL     1       5.895   5.094  18.358  0.00  0.00    +0.000 S 
BRANCH  21  22
ATOM     22  C   UNL     1       5.523   6.015  16.980  0.00  0.00    +0.000 C 
ATOM     23  N   UNL     1       5.248   6.671  16.062  0.00  0.00    +0.000 NA
ENDBRANCH  21  22
ENDBRANCH   5  21
TORSDOF 6
ENDMDL
MODEL 4
REMARK VINA RESULT:      -6.9      1.032      1.715
REMARK  Name = 
REMARK  7 active torsions:
REMARK  status: ('A' for Active; 'I' for Inactive)
REMARK    1  A    between atoms: C_1  and  N_2
REMARK    2  A    between atoms: N_2  and  C_3
REMARK    3  A    between atoms: C_5  and  C_6
REMARK    4  A    between atoms: C_7  and  C_8
REMARK    5  A    between atoms: C_15  and  S_16
REMARK    6  A    between atoms: S_16  and  C_17
REMARK    7  A    between atoms: C_19  and  N_20
REMARK                            x       y       z     vdW  Elec       q    Type
REMARK                         _______ _______ _______ _____ _____    ______ ____
ROOT
ATOM      1  C   UNL     1       2.301   4.069  19.977  0.00  0.00    +0.000 A 
ATOM      2  N   UNL     1       1.734   5.254  20.263  0.00  0.00    +0.000 NA
ATOM      3  C   UNL     1       2.401   6.370  19.943  0.00  0.00    +0.000 A 
ATOM      4  N   UNL     1       3.620   6.404  19.393  0.00  0.00    +0.000 NA
ATOM      5  C   UNL     1       4.225   5.224  19.146  0.00  0.00    +0.000 A 
ATOM      6  C   UNL     1       3.564   4.031  19.405  0.00  0.00    +0.000 A 
ENDROOT
BRANCH   1   8
ATOM      7  C   UNL     1       1.610   2.565  21.753  0.00  0.00    +0.000 C 
ATOM      8  N   UNL     1       1.597   2.905  20.334  0.00  0.00    +0.000 N 
ATOM      9  H   UNL     1       0.642   2.935  19.969  0.00  0.00    +0.000 HD
ENDBRANCH   1   8
BRANCH   6  10
ATOM     10  N   UNL     1       4.136   2.765  19.045  0.00  0.00    +0.000 N 
ATOM     11  O   UNL     1       3.862   2.335  17.914  0.00  0.00    +0.000 OA
ATOM     12  O   UNL     1       4.854   2.199  19.873  0.00  0.00    +0.000 OA
ENDBRANCH   6  10
BRANCH   3  13
ATOM     13  C   UNL     1       1.721   7.628  20.226  0.00  0.00    +0.000 C 
ATOM     14  C   UNL     1       1.015   7.884  21.340  0.00  0.00    +0.000 C 
BRANCH  14  15
ATOM     15  C   UNL     1       0.279   9.137  21.574  0.00  0.00    +0.000 A 
ATOM     16  C   UNL     1       0.106  10.025  20.504  0.00  0.00    +0.000 A 
ATOM     17  C   UNL     1      -0.556  11.243  20.688  0.00  0.00    +0.000 A 
ATOM     18  C   UNL     1      -1.068  11.577  21.939  0.00  0.00    +0.000 A 
ATOM     19  C   UNL     1      -0.929  10.690  23.003  0.00  0.00    +0.000 A 
ATOM     20  C   UNL     1      -0.267   9.474  22.819  0.00  0.00    +0.000 A 
ENDBRANCH  14  15
ENDBRANCH   3  13
BRANCH   5  21
ATOM     21  S   UNL     1       5.848   5.362  18.400  0.00  0.00    +0.000 S 
BRANCH  21  22
ATOM     22  C   UNL     1       5.422   6.153  16.958  0.00  0.00    +0.000 C 
ATOM     23  N   UNL     1       5.161   6.672  15.953  0.00  0.00    +0.000 NA
ENDBRANCH  21  22
ENDBRANCH   5  21
TORSDOF 6
ENDMDL
MODEL 5
REMARK VINA RESULT:      -6.9      2.374      2.754
REMARK  Name = 
REMARK  7 active torsions:
REMARK  status: ('A' for Active; 'I' for Inactive)
REMARK    1  A    between atoms: C_1  and  N_2
REMARK    2  A    between atoms: N_2  and  C_3
REMARK    3  A    between atoms: C_5  and  C_6
REMARK    4  A    between atoms: C_7  and  C_8
REMARK    5  A    between atoms: C_15  and  S_16
REMARK    6  A    between atoms: S_16  and  C_17
REMARK    7  A    between atoms: C_19  and  N_20
REMARK                            x       y       z     vdW  Elec       q    Type
REMARK                         _______ _______ _______ _____ _____    ______ ____
ROOT
ATOM      1  C   UNL     1       3.009   5.516  19.671  0.00  0.00    +0.000 A 
ATOM      2  N   UNL     1       2.485   6.735  19.458  0.00  0.00    +0.000 NA
ATOM      3  C   UNL     1       2.808   7.376  18.327  0.00  0.00    +0.000 A 
ATOM      4  N   UNL     1       3.654   6.915  17.400  0.00  0.00    +0.000 NA
ATOM      5  C   UNL     1       4.229   5.715  17.622  0.00  0.00    +0.000 A 
ATOM      6  C   UNL     1       3.894   4.977  18.748  0.00  0.00    +0.000 A 
ENDROOT
BRANCH   1   8
ATOM      7  C   UNL     1       1.441   4.082  20.845  0.00  0.00    +0.000 C 
ATOM      8  N   UNL     1       2.674   4.861  20.870  0.00  0.00    +0.000 N 
ATOM      9  H   UNL     1       3.461   4.301  21.207  0.00  0.00    +0.000 HD
ENDBRANCH   1   8
BRANCH   6  10
ATOM     10  N   UNL     1       4.400   3.649  18.951  0.00  0.00    +0.000 N 
ATOM     11  O   UNL     1       3.716   2.720  18.495  0.00  0.00    +0.000 OA
ATOM     12  O   UNL     1       5.468   3.524  19.555  0.00  0.00    +0.000 OA
ENDBRANCH   6  10
BRANCH   3  13
ATOM     13  C   UNL     1       2.172   8.672  18.120  0.00  0.00    +0.000 C 
ATOM     14  C   UNL     1       1.351   9.272  18.997  0.00  0.00    +0.000 C 
BRANCH  14  15
ATOM     15  C   UNL     1       0.666  10.548  18.737  0.00  0.00    +0.000 A 
ATOM     16  C   UNL     1       1.413  11.733  18.776  0.00  0.00    +0.000 A 
ATOM     17  C   UNL     1       0.799  12.971  18.568  0.00  0.00    +0.000 A 
ATOM     18  C   UNL     1      -0.567  13.037  18.303  0.00  0.00    +0.000 A 
ATOM     19  C   UNL     1      -1.316  11.865  18.232  0.00  0.00    +0.000 A 
ATOM     20  C   UNL     1      -0.701  10.628  18.440  0.00  0.00    +0.000 A 
ENDBRANCH  14  15
ENDBRANCH   3  13
BRANCH   5  21
ATOM     21  S   UNL     1       5.338   5.170  16.324  0.00  0.00    +0.000 S 
BRANCH  21  22
ATOM     22  C   UNL     1       6.651   6.202  16.632  0.00  0.00    +0.000 C 
ATOM     23  N   UNL     1       7.564   6.880  16.869  0.00  0.00    +0.000 NA
ENDBRANCH  21  22
ENDBRANCH   5  21
TORSDOF 6
ENDMDL
MODEL 6
REMARK VINA RESULT:      -6.8      2.394      2.760
REMARK  Name = 
REMARK  7 active torsions:
REMARK  status: ('A' for Active; 'I' for Inactive)
REMARK    1  A    between atoms: C_1  and  N_2
REMARK    2  A    between atoms: N_2  and  C_3
REMARK    3  A    between atoms: C_5  and  C_6
REMARK    4  A    between atoms: C_7  and  C_8
REMARK    5  A    between atoms: C_15  and  S_16
REMARK    6  A    between atoms: S_16  and  C_17
REMARK    7  A    between atoms: C_19  and  N_20
REMARK                            x       y       z     vdW  Elec       q    Type
REMARK                         _______ _______ _______ _____ _____    ______ ____
ROOT
ATOM      1  C   UNL     1       3.013   5.559  19.613  0.00  0.00    +0.000 A 
ATOM      2  N   UNL     1       2.507   6.791  19.433  0.00  0.00    +0.000 NA
ATOM      3  C   UNL     1       2.821   7.448  18.309  0.00  0.00    +0.000 A 
ATOM      4  N   UNL     1       3.641   6.989  17.358  0.00  0.00    +0.000 NA
ATOM      5  C   UNL     1       4.199   5.776  17.546  0.00  0.00    +0.000 A 
ATOM      6  C   UNL     1       3.871   5.022  18.665  0.00  0.00    +0.000 A 
ENDROOT
BRANCH   1   8
ATOM      7  C   UNL     1       1.425   4.156  20.799  0.00  0.00    +0.000 C 
ATOM      8  N   UNL     1       2.688   4.888  20.806  0.00  0.00    +0.000 N 
ATOM      9  H   UNL     1       3.461   4.289  21.106  0.00  0.00    +0.000 HD
ENDBRANCH   1   8
BRANCH   6  10
ATOM     10  N   UNL     1       4.356   3.682  18.833  0.00  0.00    +0.000 N 
ATOM     11  O   UNL     1       3.645   2.773  18.376  0.00  0.00    +0.000 OA
ATOM     12  O   UNL     1       5.434   3.526  19.411  0.00  0.00    +0.000 OA
ENDBRANCH   6  10
BRANCH   3  13
ATOM     13  C   UNL     1       2.205   8.758  18.138  0.00  0.00    +0.000 C 
ATOM     14  C   UNL     1       1.264   9.274  18.946  0.00  0.00    +0.000 C 
BRANCH  14  15
ATOM     15  C   UNL     1       0.608  10.571  18.714  0.00  0.00    +0.000 A 
ATOM     16  C   UNL     1      -0.756  10.587  18.390  0.00  0.00    +0.000 A 
ATOM     17  C   UNL     1      -1.412  11.793  18.128  0.00  0.00    +0.000 A 
ATOM     18  C   UNL     1      -0.717  12.998  18.203  0.00  0.00    +0.000 A 
ATOM     19  C   UNL     1       0.631  12.998  18.553  0.00  0.00    +0.000 A 
ATOM     20  C   UNL     1       1.287  11.793  18.814  0.00  0.00    +0.000 A 
ENDBRANCH  14  15
ENDBRANCH   3  13
BRANCH   5  21
ATOM     21  S   UNL     1       5.274   5.236  16.218  0.00  0.00    +0.000 S 
BRANCH  21  22
ATOM     22  C   UNL     1       6.658   6.143  16.599  0.00  0.00    +0.000 C 
ATOM     23  N   UNL     1       7.615   6.764  16.819  0.00  0.00    +0.000 NA
ENDBRANCH  21  22
ENDBRANCH   5  21
TORSDOF 6
ENDMDL
MODEL 7
REMARK VINA RESULT:      -6.8      2.772      4.389
REMARK  Name = 
REMARK  7 active torsions:
REMARK  status: ('A' for Active; 'I' for Inactive)
REMARK    1  A    between atoms: C_1  and  N_2
REMARK    2  A    between atoms: N_2  and  C_3
REMARK    3  A    between atoms: C_5  and  C_6
REMARK    4  A    between atoms: C_7  and  C_8
REMARK    5  A    between atoms: C_15  and  S_16
REMARK    6  A    between atoms: S_16  and  C_17
REMARK    7  A    between atoms: C_19  and  N_20
REMARK                            x       y       z     vdW  Elec       q    Type
REMARK                         _______ _______ _______ _____ _____    ______ ____
ROOT
ATOM      1  C   UNL     1       5.453   6.629  17.186  0.00  0.00    +0.000 A 
ATOM      2  N   UNL     1       4.398   7.399  17.505  0.00  0.00    +0.000 NA
ATOM      3  C   UNL     1       3.316   6.807  18.026  0.00  0.00    +0.000 A 
ATOM      4  N   UNL     1       3.180   5.491  18.219  0.00  0.00    +0.000 NA
ATOM      5  C   UNL     1       4.210   4.698  17.858  0.00  0.00    +0.000 A 
ATOM      6  C   UNL     1       5.381   5.255  17.362  0.00  0.00    +0.000 A 
ENDROOT
BRANCH   1   8
ATOM      7  C   UNL     1       7.579   7.738  17.573  0.00  0.00    +0.000 C 
ATOM      8  N   UNL     1       6.577   7.262  16.624  0.00  0.00    +0.000 N 
ATOM      9  H   UNL     1       7.000   6.673  15.903  0.00  0.00    +0.000 HD
ENDBRANCH   1   8
BRANCH   6  10
ATOM     10  N   UNL     1       6.533   4.448  17.079  0.00  0.00    +0.000 N 
ATOM     11  O   UNL     1       6.608   3.969  15.937  0.00  0.00    +0.000 OA
ATOM     12  O   UNL     1       7.362   4.289  17.979  0.00  0.00    +0.000 OA
ENDBRANCH   6  10
BRANCH   3  13
ATOM     13  C   UNL     1       2.220   7.692  18.403  0.00  0.00    +0.000 C 
ATOM     14  C   UNL     1       1.919   8.846  17.784  0.00  0.00    +0.000 C 
BRANCH  14  15
ATOM     15  C   UNL     1       0.850   9.756  18.225  0.00  0.00    +0.000 A 
ATOM     16  C   UNL     1       1.154  10.741  19.175  0.00  0.00    +0.000 A 
ATOM     17  C   UNL     1       0.162  11.605  19.648  0.00  0.00    +0.000 A 
ATOM     18  C   UNL     1      -1.140  11.506  19.164  0.00  0.00    +0.000 A 
ATOM     19  C   UNL     1      -1.448  10.553  18.197  0.00  0.00    +0.000 A 
ATOM     20  C   UNL     1      -0.458   9.688  17.725  0.00  0.00    +0.000 A 
ENDBRANCH  14  15
ENDBRANCH   3  13
BRANCH   5  21
ATOM     21  S   UNL     1       3.947   2.952  18.162  0.00  0.00    +0.000 S 
BRANCH  21  22
ATOM     22  C   UNL     1       2.249   2.923  18.150  0.00  0.00    +0.000 C 
ATOM     23  N   UNL     1       1.089   2.873  18.170  0.00  0.00    +0.000 NA
ENDBRANCH  21  22
ENDBRANCH   5  21
TORSDOF 6
ENDMDL
MODEL 8
REMARK VINA RESULT:      -6.7      1.754      3.410
REMARK  Name = 
REMARK  7 active torsions:
REMARK  status: ('A' for Active; 'I' for Inactive)
REMARK    1  A    between atoms: C_1  and  N_2
REMARK    2  A    between atoms: N_2  and  C_3
REMARK    3  A    between atoms: C_5  and  C_6
REMARK    4  A    between atoms: C_7  and  C_8
REMARK    5  A    between atoms: C_15  and  S_16
REMARK    6  A    between atoms: S_16  and  C_17
REMARK    7  A    between atoms: C_19  and  N_20
REMARK                            x       y       z     vdW  Elec       q    Type
REMARK                         _______ _______ _______ _____ _____    ______ ____
ROOT
ATOM      1  C   UNL     1       4.032   5.908  18.723  0.00  0.00    +0.000 A 
ATOM      2  N   UNL     1       3.333   7.009  19.049  0.00  0.00    +0.000 NA
ATOM      3  C   UNL     1       2.285   6.875  19.871  0.00  0.00    +0.000 A 
ATOM      4  N   UNL     1       1.844   5.714  20.368  0.00  0.00    +0.000 NA
ATOM      5  C   UNL     1       2.503   4.593  20.011  0.00  0.00    +0.000 A 
ATOM      6  C   UNL     1       3.630   4.671  19.204  0.00  0.00    +0.000 A 
ENDROOT
BRANCH   1   8
ATOM      7  C   UNL     1       4.779   6.258  16.440  0.00  0.00    +0.000 C 
ATOM      8  N   UNL     1       5.120   6.061  17.845  0.00  0.00    +0.000 N 
ATOM      9  H   UNL     1       5.753   6.792  18.179  0.00  0.00    +0.000 HD
ENDBRANCH   1   8
BRANCH   6  10
ATOM     10  N   UNL     1       4.418   3.509  18.904  0.00  0.00    +0.000 N 
ATOM     11  O   UNL     1       4.118   2.888  17.873  0.00  0.00    +0.000 OA
ATOM     12  O   UNL     1       5.329   3.213  19.680  0.00  0.00    +0.000 OA
ENDBRANCH   6  10
BRANCH   3  13
ATOM     13  C   UNL     1       1.593   8.105  20.235  0.00  0.00    +0.000 C 
ATOM     14  C   UNL     1       1.268   8.460  21.489  0.00  0.00    +0.000 C 
BRANCH  14  15
ATOM     15  C   UNL     1       0.508   9.675  21.825  0.00  0.00    +0.000 A 
ATOM     16  C   UNL     1      -0.432   9.616  22.863  0.00  0.00    +0.000 A 
ATOM     17  C   UNL     1      -1.200  10.736  23.194  0.00  0.00    +0.000 A 
ATOM     18  C   UNL     1      -1.025  11.932  22.503  0.00  0.00    +0.000 A 
ATOM     19  C   UNL     1      -0.073  12.013  21.490  0.00  0.00    +0.000 A 
ATOM     20  C   UNL     1       0.694  10.894  21.159  0.00  0.00    +0.000 A 
ENDBRANCH  14  15
ENDBRANCH   3  13
BRANCH   5  21
ATOM     21  S   UNL     1       1.852   3.086  20.731  0.00  0.00    +0.000 S 
BRANCH  21  22
ATOM     22  C   UNL     1       0.953   2.514  19.408  0.00  0.00    +0.000 C 
ATOM     23  N   UNL     1       0.304   2.138  18.521  0.00  0.00    +0.000 NA
ENDBRANCH  21  22
ENDBRANCH   5  21
TORSDOF 6
ENDMDL
MODEL 9
REMARK VINA RESULT:      -6.7      0.862      1.086
REMARK  Name = 
REMARK  7 active torsions:
REMARK  status: ('A' for Active; 'I' for Inactive)
REMARK    1  A    between atoms: C_1  and  N_2
REMARK    2  A    between atoms: N_2  and  C_3
REMARK    3  A    between atoms: C_5  and  C_6
REMARK    4  A    between atoms: C_7  and  C_8
REMARK    5  A    between atoms: C_15  and  S_16
REMARK    6  A    between atoms: S_16  and  C_17
REMARK    7  A    between atoms: C_19  and  N_20
REMARK                            x       y       z     vdW  Elec       q    Type
REMARK                         _______ _______ _______ _____ _____    ______ ____
ROOT
ATOM      1  C   UNL     1       1.587   4.339  20.051  0.00  0.00    +0.000 A 
ATOM      2  N   UNL     1       1.301   5.528  20.608  0.00  0.00    +0.000 NA
ATOM      3  C   UNL     1       1.978   6.604  20.188  0.00  0.00    +0.000 A 
ATOM      4  N   UNL     1       2.958   6.586  19.278  0.00  0.00    +0.000 NA
ATOM      5  C   UNL     1       3.293   5.393  18.745  0.00  0.00    +0.000 A 
ATOM      6  C   UNL     1       2.592   4.248  19.099  0.00  0.00    +0.000 A 
ENDROOT
BRANCH   1   8
ATOM      7  C   UNL     1       1.420   2.571  21.707  0.00  0.00    +0.000 C 
ATOM      8  N   UNL     1       0.880   3.214  20.514  0.00  0.00    +0.000 N 
ATOM      9  H   UNL     1      -0.113   3.434  20.629  0.00  0.00    +0.000 HD
ENDBRANCH   1   8
BRANCH   6  10
ATOM     10  N   UNL     1       2.848   2.987  18.464  0.00  0.00    +0.000 N 
ATOM     11  O   UNL     1       2.163   2.721  17.465  0.00  0.00    +0.000 OA
ATOM     12  O   UNL     1       3.723   2.264  18.946  0.00  0.00    +0.000 OA
ENDBRANCH   6  10
BRANCH   3  13
ATOM     13  C   UNL     1       1.595   7.878  20.785  0.00  0.00    +0.000 C 
ATOM     14  C   UNL     1       0.334   8.334  20.875  0.00  0.00    +0.000 C 
BRANCH  14  15
ATOM     15  C   UNL     1      -0.022   9.653  21.421  0.00  0.00    +0.000 A 
ATOM     16  C   UNL     1      -0.656   9.717  22.669  0.00  0.00    +0.000 A 
ATOM     17  C   UNL     1      -1.044  10.946  23.210  0.00  0.00    +0.000 A 
ATOM     18  C   UNL     1      -0.787  12.126  22.518  0.00  0.00    +0.000 A 
ATOM     19  C   UNL     1      -0.130  12.080  21.290  0.00  0.00    +0.000 A 
ATOM     20  C   UNL     1       0.256  10.851  20.749  0.00  0.00    +0.000 A 
ENDBRANCH  14  15
ENDBRANCH   3  13
BRANCH   5  21
ATOM     21  S   UNL     1       4.606   5.464  17.528  0.00  0.00    +0.000 S 
BRANCH  21  22
ATOM     22  C   UNL     1       5.940   5.203  18.546  0.00  0.00    +0.000 C 
ATOM     23  N   UNL     1       6.846   5.063  19.259  0.00  0.00    +0.000 NA
ENDBRANCH  21  22
ENDBRANCH   5  21
TORSDOF 6
ENDMDL
