MODEL 1
REMARK VINA RESULT:      -7.4      0.000      0.000
REMARK  Name = 
REMARK  10 active torsions:
REMARK  status: ('A' for Active; 'I' for Inactive)
REMARK    1  A    between atoms: C_1  and  C_2
REMARK    2  A    between atoms: N_4  and  C_5
REMARK    3  A    between atoms: C_11  and  N_12
REMARK    4  A    between atoms: C_17  and  N_18
REMARK    5  A    between atoms: N_18  and  C_19
REMARK    6  A    between atoms: C_19  and  C_20
REMARK    7  A    between atoms: C_20  and  C_21
REMARK    8  A    between atoms: C_21  and  N_22
REMARK    9  A    between atoms: N_22  and  C_23
REMARK   10  A    between atoms: N_22  and  C_24
REMARK                            x       y       z     vdW  Elec       q    Type
REMARK                         _______ _______ _______ _____ _____    ______ ____
ROOT
ATOM      1  C   UNL     1       7.501   8.055  17.550  0.00  0.00    +0.000 C 
ATOM      2  C   UNL     1       6.858   6.847  16.965  0.00  0.00    +0.000 A 
ATOM      3  N   UNL     1       7.658   6.259  16.055  0.00  0.00    +0.000 NA
ATOM      4  N   UNL     1       6.954   5.216  15.643  0.00  0.00    +0.000 N 
ATOM      5  C   UNL     1       7.231   4.641  14.353  0.00  0.00    +0.000 C 
ATOM      6  C   UNL     1       5.882   4.950  16.433  0.00  0.00    +0.000 A 
ATOM      7  N   UNL     1       5.228   3.788  16.417  0.00  0.00    +0.000 NA
ATOM      8  C   UNL     1       4.239   3.702  17.252  0.00  0.00    +0.000 A 
ATOM      9  C   UNL     1       3.784   2.399  17.434  0.00  0.00    +0.000 A 
ATOM     10  C   UNL     1       2.702   2.086  18.226  0.00  0.00    +0.000 A 
ATOM     11  C   UNL     1       2.002   3.123  18.812  0.00  0.00    +0.000 A 
ATOM     12  C   UNL     1       2.458   4.464  18.672  0.00  0.00    +0.000 A 
ATOM     13  C   UNL     1       3.647   4.791  17.937  0.00  0.00    +0.000 A 
ATOM     14  C   UNL     1       4.332   6.112  17.837  0.00  0.00    +0.000 A 
ATOM     15  C   UNL     1       5.615   6.106  17.171  0.00  0.00    +0.000 A 
ENDROOT
BRANCH  11  16
ATOM     16  N   UNL     1       0.792   2.810  19.588  0.00  0.00    +0.000 N 
ATOM     17  O   UNL     1       0.736   3.224  20.757  0.00  0.00    +0.000 OA
ATOM     18  O   UNL     1      -0.095   2.148  19.043  0.00  0.00    +0.000 OA
ENDBRANCH  11  16
BRANCH  14  19
ATOM     19  N   UNL     1       3.680   7.184  18.503  0.00  0.00    +0.000 N 
ATOM     20  H   UNL     1       3.143   6.837  19.296  0.00  0.00    +0.000 HD
BRANCH  19  21
ATOM     21  C   UNL     1       2.844   8.186  17.828  0.00  0.00    +0.000 C 
BRANCH  21  22
ATOM     22  C   UNL     1       1.635   8.628  18.665  0.00  0.00    +0.000 C 
BRANCH  22  23
ATOM     23  C   UNL     1       1.692   8.131  20.124  0.00  0.00    +0.000 C 
BRANCH  23  24
ATOM     24  N   UNL     1       0.665   8.681  21.026  0.00  0.00    +0.000 NA
ATOM     25  C   UNL     1       1.239   9.173  22.280  0.00  0.00    +0.000 C 
ATOM     26  C   UNL     1      -0.054   9.776  20.362  0.00  0.00    +0.000 C 
ENDBRANCH  23  24
ENDBRANCH  22  23
ENDBRANCH  21  22
ENDBRANCH  19  21
ENDBRANCH  14  19
TORSDOF 6
ENDMDL
MODEL 2
REMARK VINA RESULT:      -7.3      0.844      1.083
REMARK  Name = 
REMARK  10 active torsions:
REMARK  status: ('A' for Active; 'I' for Inactive)
REMARK    1  A    between atoms: C_1  and  C_2
REMARK    2  A    between atoms: N_4  and  C_5
REMARK    3  A    between atoms: C_11  and  N_12
REMARK    4  A    between atoms: C_17  and  N_18
REMARK    5  A    between atoms: N_18  and  C_19
REMARK    6  A    between atoms: C_19  and  C_20
REMARK    7  A    between atoms: C_20  and  C_21
REMARK    8  A    between atoms: C_21  and  N_22
REMARK    9  A    between atoms: N_22  and  C_23
REMARK   10  A    between atoms: N_22  and  C_24
REMARK                            x       y       z     vdW  Elec       q    Type
REMARK                         _______ _______ _______ _____ _____    ______ ____
ROOT
ATOM      1  C   UNL     1       7.519   8.048  17.535  0.00  0.00    +0.000 C 
ATOM      2  C   UNL     1       6.876   6.836  16.956  0.00  0.00    +0.000 A 
ATOM      3  N   UNL     1       7.674   6.249  16.044  0.00  0.00    +0.000 NA
ATOM      4  N   UNL     1       6.972   5.203  15.637  0.00  0.00    +0.000 N 
ATOM      5  C   UNL     1       7.244   4.626  14.347  0.00  0.00    +0.000 C 
ATOM      6  C   UNL     1       5.904   4.936  16.434  0.00  0.00    +0.000 A 
ATOM      7  N   UNL     1       5.254   3.771  16.423  0.00  0.00    +0.000 NA
ATOM      8  C   UNL     1       4.269   3.683  17.263  0.00  0.00    +0.000 A 
ATOM      9  C   UNL     1       3.819   2.380  17.450  0.00  0.00    +0.000 A 
ATOM     10  C   UNL     1       2.742   2.065  18.249  0.00  0.00    +0.000 A 
ATOM     11  C   UNL     1       2.041   3.102  18.836  0.00  0.00    +0.000 A 
ATOM     12  C   UNL     1       2.492   4.443  18.690  0.00  0.00    +0.000 A 
ATOM     13  C   UNL     1       3.677   4.773  17.949  0.00  0.00    +0.000 A 
ATOM     14  C   UNL     1       4.357   6.095  17.842  0.00  0.00    +0.000 A 
ATOM     15  C   UNL     1       5.637   6.092  17.170  0.00  0.00    +0.000 A 
ENDROOT
BRANCH  11  16
ATOM     16  N   UNL     1       0.836   2.786  19.618  0.00  0.00    +0.000 N 
ATOM     17  O   UNL     1       0.845   3.073  20.826  0.00  0.00    +0.000 OA
ATOM     18  O   UNL     1      -0.111   2.248  19.038  0.00  0.00    +0.000 OA
ENDBRANCH  11  16
BRANCH  14  19
ATOM     19  N   UNL     1       3.704   7.167  18.508  0.00  0.00    +0.000 N 
ATOM     20  H   UNL     1       3.215   6.828  19.335  0.00  0.00    +0.000 HD
BRANCH  19  21
ATOM     21  C   UNL     1       2.809   8.126  17.846  0.00  0.00    +0.000 C 
BRANCH  21  22
ATOM     22  C   UNL     1       1.694   8.646  18.765  0.00  0.00    +0.000 C 
BRANCH  22  23
ATOM     23  C   UNL     1       1.218  10.067  18.398  0.00  0.00    +0.000 C 
BRANCH  23  24
ATOM     24  N   UNL     1      -0.111  10.445  18.908  0.00  0.00    +0.000 NA
ATOM     25  C   UNL     1      -0.295  10.058  20.309  0.00  0.00    +0.000 C 
ATOM     26  C   UNL     1      -0.306  11.895  18.779  0.00  0.00    +0.000 C 
ENDBRANCH  23  24
ENDBRANCH  22  23
ENDBRANCH  21  22
ENDBRANCH  19  21
ENDBRANCH  14  19
TORSDOF 6
ENDMDL
MODEL 3
REMARK VINA RESULT:      -7.2      2.563      6.487
REMARK  Name = 
REMARK  10 active torsions:
REMARK  status: ('A' for Active; 'I' for Inactive)
REMARK    1  A    between atoms: C_1  and  C_2
REMARK    2  A    between atoms: N_4  and  C_5
REMARK    3  A    between atoms: C_11  and  N_12
REMARK    4  A    between atoms: C_17  and  N_18
REMARK    5  A    between atoms: N_18  and  C_19
REMARK    6  A    between atoms: C_19  and  C_20
REMARK    7  A    between atoms: C_20  and  C_21
REMARK    8  A    between atoms: C_21  and  N_22
REMARK    9  A    between atoms: N_22  and  C_23
REMARK   10  A    between atoms: N_22  and  C_24
REMARK                            x       y       z     vdW  Elec       q    Type
REMARK                         _______ _______ _______ _____ _____    ______ ____
ROOT
ATOM      1  C   UNL     1       0.423   8.997  22.502  0.00  0.00    +0.000 C 
ATOM      2  C   UNL     1       0.724   8.916  21.047  0.00  0.00    +0.000 A 
ATOM      3  N   UNL     1       0.216   9.971  20.383  0.00  0.00    +0.000 NA
ATOM      4  N   UNL     1       0.571   9.755  19.126  0.00  0.00    +0.000 N 
ATOM      5  C   UNL     1      -0.183  10.364  18.063  0.00  0.00    +0.000 C 
ATOM      6  C   UNL     1       1.506   8.778  18.997  0.00  0.00    +0.000 A 
ATOM      7  N   UNL     1       2.243   8.608  17.899  0.00  0.00    +0.000 NA
ATOM      8  C   UNL     1       3.101   7.636  17.957  0.00  0.00    +0.000 A 
ATOM      9  C   UNL     1       4.052   7.680  16.943  0.00  0.00    +0.000 A 
ATOM     10  C   UNL     1       5.017   6.711  16.777  0.00  0.00    +0.000 A 
ATOM     11  C   UNL     1       4.993   5.616  17.620  0.00  0.00    +0.000 A 
ATOM     12  C   UNL     1       4.054   5.555  18.686  0.00  0.00    +0.000 A 
ATOM     13  C   UNL     1       3.113   6.611  18.935  0.00  0.00    +0.000 A 
ATOM     14  C   UNL     1       2.186   6.763  20.093  0.00  0.00    +0.000 A 
ATOM     15  C   UNL     1       1.480   8.022  20.171  0.00  0.00    +0.000 A 
ENDROOT
BRANCH  11  16
ATOM     16  N   UNL     1       5.962   4.532  17.398  0.00  0.00    +0.000 N 
ATOM     17  O   UNL     1       6.805   4.325  18.285  0.00  0.00    +0.000 OA
ATOM     18  O   UNL     1       5.891   3.894  16.344  0.00  0.00    +0.000 OA
ENDBRANCH  11  16
BRANCH  14  19
ATOM     19  N   UNL     1       2.201   5.691  21.025  0.00  0.00    +0.000 N 
ATOM     20  H   UNL     1       3.155   5.373  21.188  0.00  0.00    +0.000 HD
BRANCH  19  21
ATOM     21  C   UNL     1       1.364   4.489  20.910  0.00  0.00    +0.000 C 
BRANCH  21  22
ATOM     22  C   UNL     1       2.170   3.183  20.975  0.00  0.00    +0.000 C 
BRANCH  22  23
ATOM     23  C   UNL     1       1.909   2.249  19.776  0.00  0.00    +0.000 C 
BRANCH  23  24
ATOM     24  N   UNL     1       3.110   1.710  19.114  0.00  0.00    +0.000 NA
ATOM     25  C   UNL     1       3.177   2.090  17.700  0.00  0.00    +0.000 C 
ATOM     26  C   UNL     1       4.318   2.187  19.799  0.00  0.00    +0.000 C 
ENDBRANCH  23  24
ENDBRANCH  22  23
ENDBRANCH  21  22
ENDBRANCH  19  21
ENDBRANCH  14  19
TORSDOF 6
ENDMDL
MODEL 4
REMARK VINA RESULT:      -7.2      2.637      6.205
REMARK  Name = 
REMARK  10 active torsions:
REMARK  status: ('A' for Active; 'I' for Inactive)
REMARK    1  A    between atoms: C_1  and  C_2
REMARK    2  A    between atoms: N_4  and  C_5
REMARK    3  A    between atoms: C_11  and  N_12
REMARK    4  A    between atoms: C_17  and  N_18
REMARK    5  A    between atoms: N_18  and  C_19
REMARK    6  A    between atoms: C_19  and  C_20
REMARK    7  A    between atoms: C_20  and  C_21
REMARK    8  A    between atoms: C_21  and  N_22
REMARK    9  A    between atoms: N_22  and  C_23
REMARK   10  A    between atoms: N_22  and  C_24
REMARK                            x       y       z     vdW  Elec       q    Type
REMARK                         _______ _______ _______ _____ _____    ______ ____
ROOT
ATOM      1  C   UNL     1       1.216   8.558  22.130  0.00  0.00    +0.000 C 
ATOM      2  C   UNL     1       1.395   8.508  20.654  0.00  0.00    +0.000 A 
ATOM      3  N   UNL     1       0.807   9.559  20.054  0.00  0.00    +0.000 NA
ATOM      4  N   UNL     1       1.060   9.372  18.768  0.00  0.00    +0.000 N 
ATOM      5  C   UNL     1       0.204   9.978  17.782  0.00  0.00    +0.000 C 
ATOM      6  C   UNL     1       2.005   8.422  18.544  0.00  0.00    +0.000 A 
ATOM      7  N   UNL     1       2.651   8.289  17.385  0.00  0.00    +0.000 NA
ATOM      8  C   UNL     1       3.534   7.340  17.354  0.00  0.00    +0.000 A 
ATOM      9  C   UNL     1       4.395   7.424  16.264  0.00  0.00    +0.000 A 
ATOM     10  C   UNL     1       5.367   6.484  16.000  0.00  0.00    +0.000 A 
ATOM     11  C   UNL     1       5.442   5.376  16.823  0.00  0.00    +0.000 A 
ATOM     12  C   UNL     1       4.597   5.273  17.963  0.00  0.00    +0.000 A 
ATOM     13  C   UNL     1       3.655   6.300  18.308  0.00  0.00    +0.000 A 
ATOM     14  C   UNL     1       2.826   6.410  19.543  0.00  0.00    +0.000 A 
ATOM     15  C   UNL     1       2.097   7.648  19.702  0.00  0.00    +0.000 A 
ENDROOT
BRANCH  11  16
ATOM     16  N   UNL     1       6.415   4.321  16.501  0.00  0.00    +0.000 N 
ATOM     17  O   UNL     1       7.576   4.465  16.917  0.00  0.00    +0.000 OA
ATOM     18  O   UNL     1       6.031   3.359  15.831  0.00  0.00    +0.000 OA
ENDBRANCH  11  16
BRANCH  14  19
ATOM     19  N   UNL     1       2.945   5.324  20.451  0.00  0.00    +0.000 N 
ATOM     20  H   UNL     1       3.432   4.544  20.012  0.00  0.00    +0.000 HD
BRANCH  19  21
ATOM     21  C   UNL     1       1.821   4.754  21.206  0.00  0.00    +0.000 C 
BRANCH  21  22
ATOM     22  C   UNL     1       1.814   3.219  21.215  0.00  0.00    +0.000 C 
BRANCH  22  23
ATOM     23  C   UNL     1       2.833   2.602  20.234  0.00  0.00    +0.000 C 
BRANCH  23  24
ATOM     24  N   UNL     1       2.257   1.880  19.086  0.00  0.00    +0.000 NA
ATOM     25  C   UNL     1       0.922   2.372  18.739  0.00  0.00    +0.000 C 
ATOM     26  C   UNL     1       3.137   2.008  17.918  0.00  0.00    +0.000 C 
ENDBRANCH  23  24
ENDBRANCH  22  23
ENDBRANCH  21  22
ENDBRANCH  19  21
ENDBRANCH  14  19
TORSDOF 6
ENDMDL
MODEL 5
REMARK VINA RESULT:      -7.0      2.042      5.968
REMARK  Name = 
REMARK  10 active torsions:
REMARK  status: ('A' for Active; 'I' for Inactive)
REMARK    1  A    between atoms: C_1  and  C_2
REMARK    2  A    between atoms: N_4  and  C_5
REMARK    3  A    between atoms: C_11  and  N_12
REMARK    4  A    between atoms: C_17  and  N_18
REMARK    5  A    between atoms: N_18  and  C_19
REMARK    6  A    between atoms: C_19  and  C_20
REMARK    7  A    between atoms: C_20  and  C_21
REMARK    8  A    between atoms: C_21  and  N_22
REMARK    9  A    between atoms: N_22  and  C_23
REMARK   10  A    between atoms: N_22  and  C_24
REMARK                            x       y       z     vdW  Elec       q    Type
REMARK                         _______ _______ _______ _____ _____    ______ ____
ROOT
ATOM      1  C   UNL     1       1.789   9.946  17.824  0.00  0.00    +0.000 C 
ATOM      2  C   UNL     1       1.690   9.013  18.979  0.00  0.00    +0.000 A 
ATOM      3  N   UNL     1       0.782   9.440  19.876  0.00  0.00    +0.000 NA
ATOM      4  N   UNL     1       0.810   8.512  20.820  0.00  0.00    +0.000 N 
ATOM      5  C   UNL     1       0.373   8.843  22.150  0.00  0.00    +0.000 C 
ATOM      6  C   UNL     1       1.472   7.388  20.443  0.00  0.00    +0.000 A 
ATOM      7  N   UNL     1       1.357   6.220  21.077  0.00  0.00    +0.000 NA
ATOM      8  C   UNL     1       2.048   5.247  20.568  0.00  0.00    +0.000 A 
ATOM      9  C   UNL     1       1.674   3.996  21.048  0.00  0.00    +0.000 A 
ATOM     10  C   UNL     1       2.318   2.832  20.691  0.00  0.00    +0.000 A 
ATOM     11  C   UNL     1       3.425   2.925  19.870  0.00  0.00    +0.000 A 
ATOM     12  C   UNL     1       3.816   4.185  19.337  0.00  0.00    +0.000 A 
ATOM     13  C   UNL     1       3.088   5.390  19.616  0.00  0.00    +0.000 A 
ATOM     14  C   UNL     1       3.276   6.740  19.012  0.00  0.00    +0.000 A 
ATOM     15  C   UNL     1       2.277   7.727  19.353  0.00  0.00    +0.000 A 
ENDROOT
BRANCH  11  16
ATOM     16  N   UNL     1       4.175   1.700  19.553  0.00  0.00    +0.000 N 
ATOM     17  O   UNL     1       5.149   1.421  20.269  0.00  0.00    +0.000 OA
ATOM     18  O   UNL     1       3.803   1.022  18.591  0.00  0.00    +0.000 OA
ENDBRANCH  11  16
BRANCH  14  19
ATOM     19  N   UNL     1       4.357   6.848  18.096  0.00  0.00    +0.000 N 
ATOM     20  H   UNL     1       5.031   7.540  18.419  0.00  0.00    +0.000 HD
BRANCH  19  21
ATOM     21  C   UNL     1       4.195   7.053  16.650  0.00  0.00    +0.000 C 
BRANCH  21  22
ATOM     22  C   UNL     1       5.240   6.304  15.812  0.00  0.00    +0.000 C 
BRANCH  22  23
ATOM     23  C   UNL     1       6.646   6.309  16.448  0.00  0.00    +0.000 C 
BRANCH  23  24
ATOM     24  N   UNL     1       7.358   5.019  16.431  0.00  0.00    +0.000 NA
ATOM     25  C   UNL     1       7.661   4.539  17.781  0.00  0.00    +0.000 C 
ATOM     26  C   UNL     1       6.554   4.010  15.729  0.00  0.00    +0.000 C 
ENDBRANCH  23  24
ENDBRANCH  22  23
ENDBRANCH  21  22
ENDBRANCH  19  21
ENDBRANCH  14  19
TORSDOF 6
ENDMDL
MODEL 6
REMARK VINA RESULT:      -7.0      3.769      5.640
REMARK  Name = 
REMARK  10 active torsions:
REMARK  status: ('A' for Active; 'I' for Inactive)
REMARK    1  A    between atoms: C_1  and  C_2
REMARK    2  A    between atoms: N_4  and  C_5
REMARK    3  A    between atoms: C_11  and  N_12
REMARK    4  A    between atoms: C_17  and  N_18
REMARK    5  A    between atoms: N_18  and  C_19
REMARK    6  A    between atoms: C_19  and  C_20
REMARK    7  A    between atoms: C_20  and  C_21
REMARK    8  A    between atoms: C_21  and  N_22
REMARK    9  A    between atoms: N_22  and  C_23
REMARK   10  A    between atoms: N_22  and  C_24
REMARK                            x       y       z     vdW  Elec       q    Type
REMARK                         _______ _______ _______ _____ _____    ______ ____
ROOT
ATOM      1  C   UNL     1       5.755   4.644  19.979  0.00  0.00    +0.000 C 
ATOM      2  C   UNL     1       6.190   5.248  18.690  0.00  0.00    +0.000 A 
ATOM      3  N   UNL     1       7.124   6.198  18.885  0.00  0.00    +0.000 NA
ATOM      4  N   UNL     1       7.404   6.621  17.663  0.00  0.00    +0.000 N 
ATOM      5  C   UNL     1       7.960   7.936  17.480  0.00  0.00    +0.000 C 
ATOM      6  C   UNL     1       6.913   5.809  16.691  0.00  0.00    +0.000 A 
ATOM      7  N   UNL     1       7.332   5.842  15.425  0.00  0.00    +0.000 NA
ATOM      8  C   UNL     1       6.766   4.982  14.636  0.00  0.00    +0.000 A 
ATOM      9  C   UNL     1       7.430   4.828  13.423  0.00  0.00    +0.000 A 
ATOM     10  C   UNL     1       6.967   4.014  12.412  0.00  0.00    +0.000 A 
ATOM     11  C   UNL     1       5.755   3.376  12.593  0.00  0.00    +0.000 A 
ATOM     12  C   UNL     1       5.065   3.488  13.832  0.00  0.00    +0.000 A 
ATOM     13  C   UNL     1       5.591   4.246  14.932  0.00  0.00    +0.000 A 
ATOM     14  C   UNL     1       5.072   4.326  16.327  0.00  0.00    +0.000 A 
ATOM     15  C   UNL     1       5.911   5.028  17.272  0.00  0.00    +0.000 A 
ENDROOT
BRANCH  11  16
ATOM     16  N   UNL     1       5.206   2.575  11.488  0.00  0.00    +0.000 N 
ATOM     17  O   UNL     1       5.855   1.584  11.119  0.00  0.00    +0.000 OA
ATOM     18  O   UNL     1       4.139   2.934  10.983  0.00  0.00    +0.000 OA
ENDBRANCH  11  16
BRANCH  14  19
ATOM     19  N   UNL     1       3.869   3.608  16.567  0.00  0.00    +0.000 N 
ATOM     20  H   UNL     1       3.061   4.218  16.450  0.00  0.00    +0.000 HD
BRANCH  19  21
ATOM     21  C   UNL     1       3.619   2.795  17.765  0.00  0.00    +0.000 C 
BRANCH  21  22
ATOM     22  C   UNL     1       2.154   2.361  17.906  0.00  0.00    +0.000 C 
BRANCH  22  23
ATOM     23  C   UNL     1       1.411   3.088  19.046  0.00  0.00    +0.000 C 
BRANCH  23  24
ATOM     24  N   UNL     1       2.242   3.485  20.197  0.00  0.00    +0.000 NA
ATOM     25  C   UNL     1       2.056   4.894  20.552  0.00  0.00    +0.000 C 
ATOM     26  C   UNL     1       1.922   2.648  21.361  0.00  0.00    +0.000 C 
ENDBRANCH  23  24
ENDBRANCH  22  23
ENDBRANCH  21  22
ENDBRANCH  19  21
ENDBRANCH  14  19
TORSDOF 6
ENDMDL
MODEL 7
REMARK VINA RESULT:      -6.9      3.410      5.408
REMARK  Name = 
REMARK  10 active torsions:
REMARK  status: ('A' for Active; 'I' for Inactive)
REMARK    1  A    between atoms: C_1  and  C_2
REMARK    2  A    between atoms: N_4  and  C_5
REMARK    3  A    between atoms: C_11  and  N_12
REMARK    4  A    between atoms: C_17  and  N_18
REMARK    5  A    between atoms: N_18  and  C_19
REMARK    6  A    between atoms: C_19  and  C_20
REMARK    7  A    between atoms: C_20  and  C_21
REMARK    8  A    between atoms: C_21  and  N_22
REMARK    9  A    between atoms: N_22  and  C_23
REMARK   10  A    between atoms: N_22  and  C_24
REMARK                            x       y       z     vdW  Elec       q    Type
REMARK                         _______ _______ _______ _____ _____    ______ ____
ROOT
ATOM      1  C   UNL     1       5.711   4.660  19.989  0.00  0.00    +0.000 C 
ATOM      2  C   UNL     1       6.165   5.252  18.701  0.00  0.00    +0.000 A 
ATOM      3  N   UNL     1       7.120   6.180  18.899  0.00  0.00    +0.000 NA
ATOM      4  N   UNL     1       7.414   6.596  17.678  0.00  0.00    +0.000 N 
ATOM      5  C   UNL     1       8.002   7.897  17.496  0.00  0.00    +0.000 C 
ATOM      6  C   UNL     1       6.909   5.794  16.705  0.00  0.00    +0.000 A 
ATOM      7  N   UNL     1       7.333   5.816  15.441  0.00  0.00    +0.000 NA
ATOM      8  C   UNL     1       6.751   4.969  14.650  0.00  0.00    +0.000 A 
ATOM      9  C   UNL     1       7.416   4.798  13.440  0.00  0.00    +0.000 A 
ATOM     10  C   UNL     1       6.938   3.994  12.428  0.00  0.00    +0.000 A 
ATOM     11  C   UNL     1       5.711   3.385  12.604  0.00  0.00    +0.000 A 
ATOM     12  C   UNL     1       5.019   3.514  13.841  0.00  0.00    +0.000 A 
ATOM     13  C   UNL     1       5.558   4.261  14.942  0.00  0.00    +0.000 A 
ATOM     14  C   UNL     1       5.035   4.354  16.335  0.00  0.00    +0.000 A 
ATOM     15  C   UNL     1       5.886   5.038  17.282  0.00  0.00    +0.000 A 
ENDROOT
BRANCH  11  16
ATOM     16  N   UNL     1       5.148   2.596  11.498  0.00  0.00    +0.000 N 
ATOM     17  O   UNL     1       5.753   1.565  11.162  0.00  0.00    +0.000 OA
ATOM     18  O   UNL     1       4.115   3.002  10.959  0.00  0.00    +0.000 OA
ENDBRANCH  11  16
BRANCH  14  19
ATOM     19  N   UNL     1       3.815   3.665  16.571  0.00  0.00    +0.000 N 
ATOM     20  H   UNL     1       3.056   4.327  16.727  0.00  0.00    +0.000 HD
BRANCH  19  21
ATOM     21  C   UNL     1       3.654   2.589  17.558  0.00  0.00    +0.000 C 
BRANCH  21  22
ATOM     22  C   UNL     1       2.672   2.944  18.684  0.00  0.00    +0.000 C 
BRANCH  22  23
ATOM     23  C   UNL     1       1.949   4.288  18.458  0.00  0.00    +0.000 C 
BRANCH  23  24
ATOM     24  N   UNL     1       2.575   5.463  19.091  0.00  0.00    +0.000 NA
ATOM     25  C   UNL     1       2.522   6.646  18.229  0.00  0.00    +0.000 C 
ATOM     26  C   UNL     1       1.907   5.763  20.364  0.00  0.00    +0.000 C 
ENDBRANCH  23  24
ENDBRANCH  22  23
ENDBRANCH  21  22
ENDBRANCH  19  21
ENDBRANCH  14  19
TORSDOF 6
ENDMDL
MODEL 8
REMARK VINA RESULT:      -6.7      2.585      6.466
REMARK  Name = 
REMARK  10 active torsions:
REMARK  status: ('A' for Active; 'I' for Inactive)
REMARK    1  A    between atoms: C_1  and  C_2
REMARK    2  A    between atoms: N_4  and  C_5
REMARK    3  A    between atoms: C_11  and  N_12
REMARK    4  A    between atoms: C_17  and  N_18
REMARK    5  A    between atoms: N_18  and  C_19
REMARK    6  A    between atoms: C_19  and  C_20
REMARK    7  A    between atoms: C_20  and  C_21
REMARK    8  A    between atoms: C_21  and  N_22
REMARK    9  A    between atoms: N_22  and  C_23
REMARK   10  A    between atoms: N_22  and  C_24
REMARK                            x       y       z     vdW  Elec       q    Type
REMARK                         _______ _______ _______ _____ _____    ______ ____
ROOT
ATOM      1  C   UNL     1       0.274   9.144  22.611  0.00  0.00    +0.000 C 
ATOM      2  C   UNL     1       0.581   9.023  21.159  0.00  0.00    +0.000 A 
ATOM      3  N   UNL     1       0.058  10.048  20.461  0.00  0.00    +0.000 NA
ATOM      4  N   UNL     1       0.420   9.798  19.213  0.00  0.00    +0.000 N 
ATOM      5  C   UNL     1      -0.340  10.360  18.129  0.00  0.00    +0.000 C 
ATOM      6  C   UNL     1       1.372   8.833  19.118  0.00  0.00    +0.000 A 
ATOM      7  N   UNL     1       2.116   8.641  18.028  0.00  0.00    +0.000 NA
ATOM      8  C   UNL     1       2.990   7.687  18.119  0.00  0.00    +0.000 A 
ATOM      9  C   UNL     1       3.944   7.714  17.106  0.00  0.00    +0.000 A 
ATOM     10  C   UNL     1       4.926   6.757  16.974  0.00  0.00    +0.000 A 
ATOM     11  C   UNL     1       4.918   5.689  17.851  0.00  0.00    +0.000 A 
ATOM     12  C   UNL     1       3.975   5.646  18.916  0.00  0.00    +0.000 A 
ATOM     13  C   UNL     1       3.016   6.693  19.129  0.00  0.00    +0.000 A 
ATOM     14  C   UNL     1       2.083   6.866  20.279  0.00  0.00    +0.000 A 
ATOM     15  C   UNL     1       1.355   8.114  20.315  0.00  0.00    +0.000 A 
ENDROOT
BRANCH  11  16
ATOM     16  N   UNL     1       5.905   4.615  17.666  0.00  0.00    +0.000 N 
ATOM     17  O   UNL     1       5.871   3.981  16.600  0.00  0.00    +0.000 OA
ATOM     18  O   UNL     1       6.706   4.397  18.579  0.00  0.00    +0.000 OA
ENDBRANCH  11  16
BRANCH  14  19
ATOM     19  N   UNL     1       2.112   5.824  21.244  0.00  0.00    +0.000 N 
ATOM     20  H   UNL     1       2.734   6.069  22.014  0.00  0.00    +0.000 HD
BRANCH  19  21
ATOM     21  C   UNL     1       2.364   4.412  20.926  0.00  0.00    +0.000 C 
BRANCH  21  22
ATOM     22  C   UNL     1       1.122   3.682  20.396  0.00  0.00    +0.000 C 
BRANCH  22  23
ATOM     23  C   UNL     1       1.464   2.490  19.477  0.00  0.00    +0.000 C 
BRANCH  23  24
ATOM     24  N   UNL     1       2.684   2.641  18.665  0.00  0.00    +0.000 NA
ATOM     25  C   UNL     1       3.476   1.410  18.628  0.00  0.00    +0.000 C 
ATOM     26  C   UNL     1       2.330   3.029  17.293  0.00  0.00    +0.000 C 
ENDBRANCH  23  24
ENDBRANCH  22  23
ENDBRANCH  21  22
ENDBRANCH  19  21
ENDBRANCH  14  19
TORSDOF 6
ENDMDL
MODEL 9
REMARK VINA RESULT:      -6.7      2.037      6.078
REMARK  Name = 
REMARK  10 active torsions:
REMARK  status: ('A' for Active; 'I' for Inactive)
REMARK    1  A    between atoms: C_1  and  C_2
REMARK    2  A    between atoms: N_4  and  C_5
REMARK    3  A    between atoms: C_11  and  N_12
REMARK    4  A    between atoms: C_17  and  N_18
REMARK    5  A    between atoms: N_18  and  C_19
REMARK    6  A    between atoms: C_19  and  C_20
REMARK    7  A    between atoms: C_20  and  C_21
REMARK    8  A    between atoms: C_21  and  N_22
REMARK    9  A    between atoms: N_22  and  C_23
REMARK   10  A    between atoms: N_22  and  C_24
REMARK                            x       y       z     vdW  Elec       q    Type
REMARK                         _______ _______ _______ _____ _____    ______ ____
ROOT
ATOM      1  C   UNL     1       1.589   9.694  17.576  0.00  0.00    +0.000 C 
ATOM      2  C   UNL     1       1.703   8.859  18.802  0.00  0.00    +0.000 A 
ATOM      3  N   UNL     1       0.976   9.373  19.813  0.00  0.00    +0.000 NA
ATOM      4  N   UNL     1       1.176   8.524  20.808  0.00  0.00    +0.000 N 
ATOM      5  C   UNL     1       0.992   8.968  22.165  0.00  0.00    +0.000 C 
ATOM      6  C   UNL     1       1.755   7.361  20.410  0.00  0.00    +0.000 A 
ATOM      7  N   UNL     1       1.756   6.251  21.149  0.00  0.00    +0.000 NA
ATOM      8  C   UNL     1       2.339   5.228  20.604  0.00  0.00    +0.000 A 
ATOM      9  C   UNL     1       2.056   4.027  21.246  0.00  0.00    +0.000 A 
ATOM     10  C   UNL     1       2.621   2.826  20.874  0.00  0.00    +0.000 A 
ATOM     11  C   UNL     1       3.558   2.834  19.858  0.00  0.00    +0.000 A 
ATOM     12  C   UNL     1       3.847   4.039  19.161  0.00  0.00    +0.000 A 
ATOM     13  C   UNL     1       3.185   5.276  19.469  0.00  0.00    +0.000 A 
ATOM     14  C   UNL     1       3.263   6.569  18.731  0.00  0.00    +0.000 A 
ATOM     15  C   UNL     1       2.345   7.597  19.167  0.00  0.00    +0.000 A 
ENDROOT
BRANCH  11  16
ATOM     16  N   UNL     1       4.233   1.574  19.511  0.00  0.00    +0.000 N 
ATOM     17  O   UNL     1       3.796   0.937  18.539  0.00  0.00    +0.000 OA
ATOM     18  O   UNL     1       5.189   1.215  20.204  0.00  0.00    +0.000 OA
ENDBRANCH  11  16
BRANCH  14  19
ATOM     19  N   UNL     1       4.156   6.584  17.626  0.00  0.00    +0.000 N 
ATOM     20  H   UNL     1       4.184   5.669  17.178  0.00  0.00    +0.000 HD
BRANCH  19  21
ATOM     21  C   UNL     1       5.542   7.068  17.694  0.00  0.00    +0.000 C 
BRANCH  21  22
ATOM     22  C   UNL     1       6.571   6.018  17.251  0.00  0.00    +0.000 C 
BRANCH  22  23
ATOM     23  C   UNL     1       6.497   5.692  15.745  0.00  0.00    +0.000 C 
BRANCH  23  24
ATOM     24  N   UNL     1       6.490   4.260  15.402  0.00  0.00    +0.000 NA
ATOM     25  C   UNL     1       5.400   3.540  16.066  0.00  0.00    +0.000 C 
ATOM     26  C   UNL     1       6.365   4.090  13.949  0.00  0.00    +0.000 C 
ENDBRANCH  23  24
ENDBRANCH  22  23
ENDBRANCH  21  22
ENDBRANCH  19  21
ENDBRANCH  14  19
TORSDOF 6
ENDMDL
