MODEL 1
REMARK VINA RESULT:      -7.9      0.000      0.000
REMARK  Name = 
REMARK  7 active torsions:
REMARK  status: ('A' for Active; 'I' for Inactive)
REMARK    1  A    between atoms: C_1  and  O_2
REMARK    2  A    between atoms: O_2  and  C_3
REMARK    3  A    between atoms: C_3  and  C_5
REMARK    4  A    between atoms: C_8  and  O_9
REMARK    5  A    between atoms: O_9  and  C_10
REMARK    6  A    between atoms: C_10  and  C_12
REMARK    7  A    between atoms: C_15  and  N_16
REMARK                            x       y       z     vdW  Elec       q    Type
REMARK                         _______ _______ _______ _____ _____    ______ ____
ROOT
ATOM      1  C   UNL     1       2.319   7.221  19.302  0.00  0.00    +0.000 A 
ATOM      2  C   UNL     1       2.353   7.800  18.033  0.00  0.00    +0.000 A 
ATOM      3  C   UNL     1       1.746   9.033  17.812  0.00  0.00    +0.000 A 
ATOM      4  C   UNL     1       1.083   9.718  18.845  0.00  0.00    +0.000 A 
ATOM      5  C   UNL     1       1.082   9.144  20.135  0.00  0.00    +0.000 A 
ATOM      6  C   UNL     1       1.687   7.906  20.353  0.00  0.00    +0.000 A 
ENDROOT
BRANCH   4   7
ATOM      7  N   UNL     1       0.474  10.973  18.514  0.00  0.00    +0.000 N 
ATOM      8  C   UNL     1      -0.772  11.248  17.857  0.00  0.00    +0.000 C 
ATOM      9  N   UNL     1      -1.504  10.346  17.301  0.00  0.00    +0.000 NA
ATOM     10  N   UNL     1      -1.160  12.604  17.700  0.00  0.00    +0.000 N 
ATOM     11  H   UNL     1       1.048  11.807  18.708  0.00  0.00    +0.000 HD
ATOM     12  H   UNL     1      -1.296   9.347  17.264  0.00  0.00    +0.000 HD
ATOM     13  H   UNL     1      -0.566  13.364  18.067  0.00  0.00    +0.000 HD
ATOM     14  H   UNL     1      -2.006  12.850  17.165  0.00  0.00    +0.000 HD
ENDBRANCH   4   7
BRANCH   1  15
ATOM     15  C   UNL     1       2.978   5.926  19.562  0.00  0.00    +0.000 C 
ATOM     16  O   UNL     1       2.329   4.953  19.917  0.00  0.00    +0.000 OA
BRANCH  15  17
ATOM     17  O   UNL     1       4.314   5.835  19.375  0.00  0.00    +0.000 OA
BRANCH  17  21
ATOM     18  C   UNL     1       6.220   5.061  15.757  0.00  0.00    +0.000 A 
ATOM     19  C   UNL     1       6.907   5.776  16.755  0.00  0.00    +0.000 A 
ATOM     20  C   UNL     1       6.276   6.065  17.972  0.00  0.00    +0.000 A 
ATOM     21  C   UNL     1       4.954   5.634  18.204  0.00  0.00    +0.000 A 
ATOM     22  C   UNL     1       4.282   4.918  17.215  0.00  0.00    +0.000 A 
ATOM     23  C   UNL     1       4.905   4.637  16.004  0.00  0.00    +0.000 A 
BRANCH  18  24
ATOM     24  C   UNL     1       6.849   4.743  14.459  0.00  0.00    +0.000 C 
ATOM     25  O   UNL     1       7.716   5.464  13.989  0.00  0.00    +0.000 OA
BRANCH  24  27
ATOM     26  C   UNL     1       6.353   3.534  12.416  0.00  0.00    +0.000 C 
ATOM     27  O   UNL     1       6.412   3.648  13.785  0.00  0.00    +0.000 OA
ENDBRANCH  24  27
ENDBRANCH  18  24
ENDBRANCH  17  21
ENDBRANCH  15  17
ENDBRANCH   1  15
TORSDOF 6
ENDMDL
MODEL 2
REMARK VINA RESULT:      -7.8      0.245      1.035
REMARK  Name = 
REMARK  7 active torsions:
REMARK  status: ('A' for Active; 'I' for Inactive)
REMARK    1  A    between atoms: C_1  and  O_2
REMARK    2  A    between atoms: O_2  and  C_3
REMARK    3  A    between atoms: C_3  and  C_5
REMARK    4  A    between atoms: C_8  and  O_9
REMARK    5  A    between atoms: O_9  and  C_10
REMARK    6  A    between atoms: C_10  and  C_12
REMARK    7  A    between atoms: C_15  and  N_16
REMARK                            x       y       z     vdW  Elec       q    Type
REMARK                         _______ _______ _______ _____ _____    ______ ____
ROOT
ATOM      1  C   UNL     1       2.345   7.196  19.347  0.00  0.00    +0.000 A 
ATOM      2  C   UNL     1       1.617   7.940  20.276  0.00  0.00    +0.000 A 
ATOM      3  C   UNL     1       1.036   9.148  19.901  0.00  0.00    +0.000 A 
ATOM      4  C   UNL     1       1.170   9.651  18.596  0.00  0.00    +0.000 A 
ATOM      5  C   UNL     1       1.878   8.878  17.651  0.00  0.00    +0.000 A 
ATOM      6  C   UNL     1       2.464   7.669  18.029  0.00  0.00    +0.000 A 
ENDROOT
BRANCH   4   7
ATOM      7  N   UNL     1       0.550  10.912  18.313  0.00  0.00    +0.000 N 
ATOM      8  C   UNL     1      -0.829  11.227  18.065  0.00  0.00    +0.000 C 
ATOM      9  N   UNL     1      -1.749  10.340  17.908  0.00  0.00    +0.000 NA
ATOM     10  N   UNL     1      -1.177  12.587  17.858  0.00  0.00    +0.000 N 
ATOM     11  H   UNL     1       1.198  11.705  18.191  0.00  0.00    +0.000 HD
ATOM     12  H   UNL     1      -1.617   9.329  17.944  0.00  0.00    +0.000 HD
ATOM     13  H   UNL     1      -0.457  13.324  17.902  0.00  0.00    +0.000 HD
ATOM     14  H   UNL     1      -2.139  12.849  17.599  0.00  0.00    +0.000 HD
ENDBRANCH   4   7
BRANCH   1  15
ATOM     15  C   UNL     1       2.948   5.900  19.716  0.00  0.00    +0.000 C 
ATOM     16  O   UNL     1       2.259   4.992  20.160  0.00  0.00    +0.000 OA
BRANCH  15  17
ATOM     17  O   UNL     1       4.276   5.732  19.529  0.00  0.00    +0.000 OA
BRANCH  17  21
ATOM     18  C   UNL     1       6.182   4.986  15.905  0.00  0.00    +0.000 A 
ATOM     19  C   UNL     1       6.781   5.862  16.828  0.00  0.00    +0.000 A 
ATOM     20  C   UNL     1       6.147   6.142  18.044  0.00  0.00    +0.000 A 
ATOM     21  C   UNL     1       4.909   5.542  18.352  0.00  0.00    +0.000 A 
ATOM     22  C   UNL     1       4.324   4.668  17.438  0.00  0.00    +0.000 A 
ATOM     23  C   UNL     1       4.951   4.394  16.227  0.00  0.00    +0.000 A 
BRANCH  18  24
ATOM     24  C   UNL     1       6.817   4.670  14.610  0.00  0.00    +0.000 C 
ATOM     25  O   UNL     1       7.720   5.366  14.168  0.00  0.00    +0.000 OA
BRANCH  24  27
ATOM     26  C   UNL     1       6.268   3.541  12.535  0.00  0.00    +0.000 C 
ATOM     27  O   UNL     1       6.348   3.608  13.906  0.00  0.00    +0.000 OA
ENDBRANCH  24  27
ENDBRANCH  18  24
ENDBRANCH  17  21
ENDBRANCH  15  17
ENDBRANCH   1  15
TORSDOF 6
ENDMDL
MODEL 3
REMARK VINA RESULT:      -7.7      4.112      5.289
REMARK  Name = 
REMARK  7 active torsions:
REMARK  status: ('A' for Active; 'I' for Inactive)
REMARK    1  A    between atoms: C_1  and  O_2
REMARK    2  A    between atoms: O_2  and  C_3
REMARK    3  A    between atoms: C_3  and  C_5
REMARK    4  A    between atoms: C_8  and  O_9
REMARK    5  A    between atoms: O_9  and  C_10
REMARK    6  A    between atoms: C_10  and  C_12
REMARK    7  A    between atoms: C_15  and  N_16
REMARK                            x       y       z     vdW  Elec       q    Type
REMARK                         _______ _______ _______ _____ _____    ______ ____
ROOT
ATOM      1  C   UNL     1       5.902   6.015  17.639  0.00  0.00    +0.000 A 
ATOM      2  C   UNL     1       6.057   4.962  18.542  0.00  0.00    +0.000 A 
ATOM      3  C   UNL     1       4.967   4.512  19.281  0.00  0.00    +0.000 A 
ATOM      4  C   UNL     1       3.698   5.101  19.149  0.00  0.00    +0.000 A 
ATOM      5  C   UNL     1       3.539   6.142  18.209  0.00  0.00    +0.000 A 
ATOM      6  C   UNL     1       4.634   6.597  17.472  0.00  0.00    +0.000 A 
ENDROOT
BRANCH   4   7
ATOM      7  N   UNL     1       2.644   4.578  19.967  0.00  0.00    +0.000 N 
ATOM      8  C   UNL     1       1.657   3.578  19.672  0.00  0.00    +0.000 C 
ATOM      9  N   UNL     1       1.474   3.076  18.500  0.00  0.00    +0.000 NA
ATOM     10  N   UNL     1       0.749   3.211  20.698  0.00  0.00    +0.000 N 
ATOM     11  H   UNL     1       2.523   5.041  20.881  0.00  0.00    +0.000 HD
ATOM     12  H   UNL     1       1.997   3.318  17.658  0.00  0.00    +0.000 HD
ATOM     13  H   UNL     1       0.814   3.643  21.633  0.00  0.00    +0.000 HD
ATOM     14  H   UNL     1      -0.024   2.557  20.508  0.00  0.00    +0.000 HD
ENDBRANCH   4   7
BRANCH   1  15
ATOM     15  C   UNL     1       7.039   6.491  16.827  0.00  0.00    +0.000 C 
ATOM     16  O   UNL     1       7.449   7.638  16.934  0.00  0.00    +0.000 OA
BRANCH  15  17
ATOM     17  O   UNL     1       7.632   5.622  15.979  0.00  0.00    +0.000 OA
BRANCH  17  21
ATOM     18  C   UNL     1       5.844   3.603  12.809  0.00  0.00    +0.000 A 
ATOM     19  C   UNL     1       6.995   4.375  12.569  0.00  0.00    +0.000 A 
ATOM     20  C   UNL     1       7.600   5.079  13.618  0.00  0.00    +0.000 A 
ATOM     21  C   UNL     1       7.063   5.010  14.919  0.00  0.00    +0.000 A 
ATOM     22  C   UNL     1       5.928   4.236  15.153  0.00  0.00    +0.000 A 
ATOM     23  C   UNL     1       5.323   3.542  14.111  0.00  0.00    +0.000 A 
BRANCH  18  24
ATOM     24  C   UNL     1       5.174   2.852  11.728  0.00  0.00    +0.000 C 
ATOM     25  O   UNL     1       4.236   3.339  11.115  0.00  0.00    +0.000 OA
BRANCH  24  27
ATOM     26  C   UNL     1       6.860   1.269  11.001  0.00  0.00    +0.000 C 
ATOM     27  O   UNL     1       5.604   1.593  11.457  0.00  0.00    +0.000 OA
ENDBRANCH  24  27
ENDBRANCH  18  24
ENDBRANCH  17  21
ENDBRANCH  15  17
ENDBRANCH   1  15
TORSDOF 6
ENDMDL
MODEL 4
REMARK VINA RESULT:      -7.7      0.651      1.285
REMARK  Name = 
REMARK  7 active torsions:
REMARK  status: ('A' for Active; 'I' for Inactive)
REMARK    1  A    between atoms: C_1  and  O_2
REMARK    2  A    between atoms: O_2  and  C_3
REMARK    3  A    between atoms: C_3  and  C_5
REMARK    4  A    between atoms: C_8  and  O_9
REMARK    5  A    between atoms: O_9  and  C_10
REMARK    6  A    between atoms: C_10  and  C_12
REMARK    7  A    between atoms: C_15  and  N_16
REMARK                            x       y       z     vdW  Elec       q    Type
REMARK                         _______ _______ _______ _____ _____    ______ ____
ROOT
ATOM      1  C   UNL     1       2.213   7.278  19.327  0.00  0.00    +0.000 A 
ATOM      2  C   UNL     1       2.273   7.859  18.060  0.00  0.00    +0.000 A 
ATOM      3  C   UNL     1       1.676   9.096  17.830  0.00  0.00    +0.000 A 
ATOM      4  C   UNL     1       0.997   9.783  18.851  0.00  0.00    +0.000 A 
ATOM      5  C   UNL     1       0.969   9.207  20.140  0.00  0.00    +0.000 A 
ATOM      6  C   UNL     1       1.564   7.965  20.368  0.00  0.00    +0.000 A 
ENDROOT
BRANCH   4   7
ATOM      7  N   UNL     1       0.401  11.041  18.511  0.00  0.00    +0.000 N 
ATOM      8  C   UNL     1      -0.839  11.323  17.844  0.00  0.00    +0.000 C 
ATOM      9  N   UNL     1      -1.574  10.425  17.288  0.00  0.00    +0.000 NA
ATOM     10  N   UNL     1      -1.214  12.681  17.679  0.00  0.00    +0.000 N 
ATOM     11  H   UNL     1       0.981  11.871  18.704  0.00  0.00    +0.000 HD
ATOM     12  H   UNL     1      -1.374   9.424  17.257  0.00  0.00    +0.000 HD
ATOM     13  H   UNL     1      -0.617  13.438  18.046  0.00  0.00    +0.000 HD
ATOM     14  H   UNL     1      -2.054  12.932  17.138  0.00  0.00    +0.000 HD
ENDBRANCH   4   7
BRANCH   1  15
ATOM     15  C   UNL     1       2.860   5.980  19.598  0.00  0.00    +0.000 C 
ATOM     16  O   UNL     1       2.210   5.029  20.007  0.00  0.00    +0.000 OA
BRANCH  15  17
ATOM     17  O   UNL     1       4.186   5.860  19.359  0.00  0.00    +0.000 OA
BRANCH  17  21
ATOM     18  C   UNL     1       5.937   4.903  15.707  0.00  0.00    +0.000 A 
ATOM     19  C   UNL     1       5.242   3.907  16.417  0.00  0.00    +0.000 A 
ATOM     20  C   UNL     1       4.664   4.202  17.657  0.00  0.00    +0.000 A 
ATOM     21  C   UNL     1       4.768   5.501  18.195  0.00  0.00    +0.000 A 
ATOM     22  C   UNL     1       5.449   6.486  17.483  0.00  0.00    +0.000 A 
ATOM     23  C   UNL     1       6.030   6.191  16.255  0.00  0.00    +0.000 A 
BRANCH  18  24
ATOM     24  C   UNL     1       6.567   4.627  14.400  0.00  0.00    +0.000 C 
ATOM     25  O   UNL     1       6.093   3.797  13.638  0.00  0.00    +0.000 OA
BRANCH  24  27
ATOM     26  C   UNL     1       8.156   5.524  12.803  0.00  0.00    +0.000 C 
ATOM     27  O   UNL     1       7.705   5.295  14.081  0.00  0.00    +0.000 OA
ENDBRANCH  24  27
ENDBRANCH  18  24
ENDBRANCH  17  21
ENDBRANCH  15  17
ENDBRANCH   1  15
TORSDOF 6
ENDMDL
MODEL 5
REMARK VINA RESULT:      -7.6      4.021      5.151
REMARK  Name = 
REMARK  7 active torsions:
REMARK  status: ('A' for Active; 'I' for Inactive)
REMARK    1  A    between atoms: C_1  and  O_2
REMARK    2  A    between atoms: O_2  and  C_3
REMARK    3  A    between atoms: C_3  and  C_5
REMARK    4  A    between atoms: C_8  and  O_9
REMARK    5  A    between atoms: O_9  and  C_10
REMARK    6  A    between atoms: C_10  and  C_12
REMARK    7  A    between atoms: C_15  and  N_16
REMARK                            x       y       z     vdW  Elec       q    Type
REMARK                         _______ _______ _______ _____ _____    ______ ____
ROOT
ATOM      1  C   UNL     1       5.893   6.136  17.540  0.00  0.00    +0.000 A 
ATOM      2  C   UNL     1       4.618   6.624  17.253  0.00  0.00    +0.000 A 
ATOM      3  C   UNL     1       3.525   6.207  18.008  0.00  0.00    +0.000 A 
ATOM      4  C   UNL     1       3.670   5.289  19.062  0.00  0.00    +0.000 A 
ATOM      5  C   UNL     1       4.968   4.825  19.370  0.00  0.00    +0.000 A 
ATOM      6  C   UNL     1       6.062   5.240  18.609  0.00  0.00    +0.000 A 
ENDROOT
BRANCH   4   7
ATOM      7  N   UNL     1       2.483   4.908  19.768  0.00  0.00    +0.000 N 
ATOM      8  C   UNL     1       1.535   3.867  19.485  0.00  0.00    +0.000 C 
ATOM      9  N   UNL     1       1.536   3.173  18.401  0.00  0.00    +0.000 NA
ATOM     10  N   UNL     1       0.462   3.676  20.393  0.00  0.00    +0.000 N 
ATOM     11  H   UNL     1       2.224   5.519  20.558  0.00  0.00    +0.000 HD
ATOM     12  H   UNL     1       2.197   3.271  17.629  0.00  0.00    +0.000 HD
ATOM     13  H   UNL     1       0.382   4.261  21.239  0.00  0.00    +0.000 HD
ATOM     14  H   UNL     1      -0.284   2.996  20.189  0.00  0.00    +0.000 HD
ENDBRANCH   4   7
BRANCH   1  15
ATOM     15  C   UNL     1       7.068   6.584  16.768  0.00  0.00    +0.000 C 
ATOM     16  O   UNL     1       7.508   7.718  16.896  0.00  0.00    +0.000 OA
BRANCH  15  17
ATOM     17  O   UNL     1       7.664   5.703  15.933  0.00  0.00    +0.000 OA
BRANCH  17  21
ATOM     18  C   UNL     1       5.900   3.632  12.784  0.00  0.00    +0.000 A 
ATOM     19  C   UNL     1       6.967   4.508  12.516  0.00  0.00    +0.000 A 
ATOM     20  C   UNL     1       7.560   5.230  13.558  0.00  0.00    +0.000 A 
ATOM     21  C   UNL     1       7.097   5.075  14.881  0.00  0.00    +0.000 A 
ATOM     22  C   UNL     1       6.046   4.198  15.141  0.00  0.00    +0.000 A 
ATOM     23  C   UNL     1       5.451   3.486  14.105  0.00  0.00    +0.000 A 
BRANCH  18  24
ATOM     24  C   UNL     1       5.243   2.858  11.710  0.00  0.00    +0.000 C 
ATOM     25  O   UNL     1       4.224   3.269  11.175  0.00  0.00    +0.000 OA
BRANCH  24  27
ATOM     26  C   UNL     1       7.113   1.441  11.100  0.00  0.00    +0.000 C 
ATOM     27  O   UNL     1       5.782   1.663  11.358  0.00  0.00    +0.000 OA
ENDBRANCH  24  27
ENDBRANCH  18  24
ENDBRANCH  17  21
ENDBRANCH  15  17
ENDBRANCH   1  15
TORSDOF 6
ENDMDL
MODEL 6
REMARK VINA RESULT:      -7.6      0.552      1.510
REMARK  Name = 
REMARK  7 active torsions:
REMARK  status: ('A' for Active; 'I' for Inactive)
REMARK    1  A    between atoms: C_1  and  O_2
REMARK    2  A    between atoms: O_2  and  C_3
REMARK    3  A    between atoms: C_3  and  C_5
REMARK    4  A    between atoms: C_8  and  O_9
REMARK    5  A    between atoms: O_9  and  C_10
REMARK    6  A    between atoms: C_10  and  C_12
REMARK    7  A    between atoms: C_15  and  N_16
REMARK                            x       y       z     vdW  Elec       q    Type
REMARK                         _______ _______ _______ _____ _____    ______ ____
ROOT
ATOM      1  C   UNL     1       2.449   7.053  19.478  0.00  0.00    +0.000 A 
ATOM      2  C   UNL     1       1.802   7.881  20.397  0.00  0.00    +0.000 A 
ATOM      3  C   UNL     1       1.260   9.094  19.982  0.00  0.00    +0.000 A 
ATOM      4  C   UNL     1       1.356   9.521  18.647  0.00  0.00    +0.000 A 
ATOM      5  C   UNL     1       1.982   8.664  17.715  0.00  0.00    +0.000 A 
ATOM      6  C   UNL     1       2.528   7.450  18.133  0.00  0.00    +0.000 A 
ENDROOT
BRANCH   4   7
ATOM      7  N   UNL     1       0.783  10.794  18.322  0.00  0.00    +0.000 N 
ATOM      8  C   UNL     1      -0.556  11.276  18.507  0.00  0.00    +0.000 C 
ATOM      9  N   UNL     1      -1.539  10.535  18.884  0.00  0.00    +0.000 NA
ATOM     10  N   UNL     1      -0.841  12.615  18.135  0.00  0.00    +0.000 N 
ATOM     11  H   UNL     1       1.402  11.438  17.807  0.00  0.00    +0.000 HD
ATOM     12  H   UNL     1      -1.489   9.538  19.097  0.00  0.00    +0.000 HD
ATOM     13  H   UNL     1      -0.098  13.224  17.759  0.00  0.00    +0.000 HD
ATOM     14  H   UNL     1      -1.805  12.979  18.176  0.00  0.00    +0.000 HD
ENDBRANCH   4   7
BRANCH   1  15
ATOM     15  C   UNL     1       3.008   5.751  19.892  0.00  0.00    +0.000 C 
ATOM     16  O   UNL     1       2.307   4.915  20.444  0.00  0.00    +0.000 OA
BRANCH  15  17
ATOM     17  O   UNL     1       4.308   5.494  19.623  0.00  0.00    +0.000 OA
BRANCH  17  21
ATOM     18  C   UNL     1       5.977   4.758  15.882  0.00  0.00    +0.000 A 
ATOM     19  C   UNL     1       4.871   3.998  16.301  0.00  0.00    +0.000 A 
ATOM     20  C   UNL     1       4.307   4.215  17.564  0.00  0.00    +0.000 A 
ATOM     21  C   UNL     1       4.841   5.202  18.417  0.00  0.00    +0.000 A 
ATOM     22  C   UNL     1       5.931   5.959  17.993  0.00  0.00    +0.000 A 
ATOM     23  C   UNL     1       6.496   5.738  16.742  0.00  0.00    +0.000 A 
BRANCH  18  24
ATOM     24  C   UNL     1       6.604   4.553  14.560  0.00  0.00    +0.000 C 
ATOM     25  O   UNL     1       7.614   5.163  14.244  0.00  0.00    +0.000 OA
BRANCH  24  27
ATOM     26  C   UNL     1       6.395   3.493  12.390  0.00  0.00    +0.000 C 
ATOM     27  O   UNL     1       6.008   3.695  13.693  0.00  0.00    +0.000 OA
ENDBRANCH  24  27
ENDBRANCH  18  24
ENDBRANCH  17  21
ENDBRANCH  15  17
ENDBRANCH   1  15
TORSDOF 6
ENDMDL
MODEL 7
REMARK VINA RESULT:      -7.6      0.916      1.822
REMARK  Name = 
REMARK  7 active torsions:
REMARK  status: ('A' for Active; 'I' for Inactive)
REMARK    1  A    between atoms: C_1  and  O_2
REMARK    2  A    between atoms: O_2  and  C_3
REMARK    3  A    between atoms: C_3  and  C_5
REMARK    4  A    between atoms: C_8  and  O_9
REMARK    5  A    between atoms: O_9  and  C_10
REMARK    6  A    between atoms: C_10  and  C_12
REMARK    7  A    between atoms: C_15  and  N_16
REMARK                            x       y       z     vdW  Elec       q    Type
REMARK                         _______ _______ _______ _____ _____    ______ ____
ROOT
ATOM      1  C   UNL     1       2.460   6.891  19.503  0.00  0.00    +0.000 A 
ATOM      2  C   UNL     1       1.829   7.602  20.525  0.00  0.00    +0.000 A 
ATOM      3  C   UNL     1       1.276   8.853  20.267  0.00  0.00    +0.000 A 
ATOM      4  C   UNL     1       1.341   9.433  18.989  0.00  0.00    +0.000 A 
ATOM      5  C   UNL     1       1.950   8.695  17.950  0.00  0.00    +0.000 A 
ATOM      6  C   UNL     1       2.508   7.443  18.211  0.00  0.00    +0.000 A 
ENDROOT
BRANCH   4   7
ATOM      7  N   UNL     1       0.758  10.732  18.827  0.00  0.00    +0.000 N 
ATOM      8  C   UNL     1       1.293  11.912  18.209  0.00  0.00    +0.000 C 
ATOM      9  N   UNL     1       2.512  12.024  17.812  0.00  0.00    +0.000 NA
ATOM     10  N   UNL     1       0.467  13.064  18.143  0.00  0.00    +0.000 N 
ATOM     11  H   UNL     1      -0.153  10.868  19.290  0.00  0.00    +0.000 HD
ATOM     12  H   UNL     1       3.232  11.303  17.882  0.00  0.00    +0.000 HD
ATOM     13  H   UNL     1      -0.495  13.041  18.516  0.00  0.00    +0.000 HD
ATOM     14  H   UNL     1       0.836  13.955  17.780  0.00  0.00    +0.000 HD
ENDBRANCH   4   7
BRANCH   1  15
ATOM     15  C   UNL     1       3.031   5.553  19.749  0.00  0.00    +0.000 C 
ATOM     16  O   UNL     1       2.332   4.640  20.165  0.00  0.00    +0.000 OA
BRANCH  15  17
ATOM     17  O   UNL     1       4.340   5.353  19.480  0.00  0.00    +0.000 OA
BRANCH  17  21
ATOM     18  C   UNL     1       6.066   4.898  15.720  0.00  0.00    +0.000 A 
ATOM     19  C   UNL     1       4.995   4.064  16.089  0.00  0.00    +0.000 A 
ATOM     20  C   UNL     1       4.414   4.187  17.357  0.00  0.00    +0.000 A 
ATOM     21  C   UNL     1       4.895   5.151  18.265  0.00  0.00    +0.000 A 
ATOM     22  C   UNL     1       5.949   5.981  17.891  0.00  0.00    +0.000 A 
ATOM     23  C   UNL     1       6.532   5.855  16.635  0.00  0.00    +0.000 A 
BRANCH  18  24
ATOM     24  C   UNL     1       6.709   4.794  14.395  0.00  0.00    +0.000 C 
ATOM     25  O   UNL     1       7.731   5.416  14.143  0.00  0.00    +0.000 OA
BRANCH  24  27
ATOM     26  C   UNL     1       6.712   3.595  12.287  0.00  0.00    +0.000 C 
ATOM     27  O   UNL     1       6.116   4.018  13.452  0.00  0.00    +0.000 OA
ENDBRANCH  24  27
ENDBRANCH  18  24
ENDBRANCH  17  21
ENDBRANCH  15  17
ENDBRANCH   1  15
TORSDOF 6
ENDMDL
MODEL 8
REMARK VINA RESULT:      -7.5      4.095      5.390
REMARK  Name = 
REMARK  7 active torsions:
REMARK  status: ('A' for Active; 'I' for Inactive)
REMARK    1  A    between atoms: C_1  and  O_2
REMARK    2  A    between atoms: O_2  and  C_3
REMARK    3  A    between atoms: C_3  and  C_5
REMARK    4  A    between atoms: C_8  and  O_9
REMARK    5  A    between atoms: O_9  and  C_10
REMARK    6  A    between atoms: C_10  and  C_12
REMARK    7  A    between atoms: C_15  and  N_16
REMARK                            x       y       z     vdW  Elec       q    Type
REMARK                         _______ _______ _______ _____ _____    ______ ____
ROOT
ATOM      1  C   UNL     1       5.939   6.019  17.656  0.00  0.00    +0.000 A 
ATOM      2  C   UNL     1       4.667   6.561  17.469  0.00  0.00    +0.000 A 
ATOM      3  C   UNL     1       3.596   6.105  18.232  0.00  0.00    +0.000 A 
ATOM      4  C   UNL     1       3.759   5.093  19.193  0.00  0.00    +0.000 A 
ATOM      5  C   UNL     1       5.054   4.572  19.401  0.00  0.00    +0.000 A 
ATOM      6  C   UNL     1       6.127   5.027  18.633  0.00  0.00    +0.000 A 
ENDROOT
BRANCH   4   7
ATOM      7  N   UNL     1       2.592   4.679  19.914  0.00  0.00    +0.000 N 
ATOM      8  C   UNL     1       1.936   3.402  19.953  0.00  0.00    +0.000 C 
ATOM      9  N   UNL     1       2.238   2.418  19.179  0.00  0.00    +0.000 NA
ATOM     10  N   UNL     1       0.811   3.254  20.804  0.00  0.00    +0.000 N 
ATOM     11  H   UNL     1       2.100   5.428  20.425  0.00  0.00    +0.000 HD
ATOM     12  H   UNL     1       2.965   2.422  18.463  0.00  0.00    +0.000 HD
ATOM     13  H   UNL     1       0.489   4.042  21.388  0.00  0.00    +0.000 HD
ATOM     14  H   UNL     1       0.262   2.382  20.804  0.00  0.00    +0.000 HD
ENDBRANCH   4   7
BRANCH   1  15
ATOM     15  C   UNL     1       7.094   6.506  16.875  0.00  0.00    +0.000 C 
ATOM     16  O   UNL     1       7.531   7.635  17.042  0.00  0.00    +0.000 OA
BRANCH  15  17
ATOM     17  O   UNL     1       7.673   5.664  15.990  0.00  0.00    +0.000 OA
BRANCH  17  21
ATOM     18  C   UNL     1       5.807   3.713  12.822  0.00  0.00    +0.000 A 
ATOM     19  C   UNL     1       6.998   4.422  12.585  0.00  0.00    +0.000 A 
ATOM     20  C   UNL     1       7.630   5.103  13.633  0.00  0.00    +0.000 A 
ATOM     21  C   UNL     1       7.080   5.073  14.930  0.00  0.00    +0.000 A 
ATOM     22  C   UNL     1       5.905   4.361  15.161  0.00  0.00    +0.000 A 
ATOM     23  C   UNL     1       5.273   3.691  14.120  0.00  0.00    +0.000 A 
BRANCH  18  24
ATOM     24  C   UNL     1       5.107   2.989  11.742  0.00  0.00    +0.000 C 
ATOM     25  O   UNL     1       5.498   1.893  11.366  0.00  0.00    +0.000 OA
BRANCH  24  27
ATOM     26  C   UNL     1       3.203   2.990  10.241  0.00  0.00    +0.000 C 
ATOM     27  O   UNL     1       4.040   3.587  11.153  0.00  0.00    +0.000 OA
ENDBRANCH  24  27
ENDBRANCH  18  24
ENDBRANCH  17  21
ENDBRANCH  15  17
ENDBRANCH   1  15
TORSDOF 6
ENDMDL
MODEL 9
REMARK VINA RESULT:      -7.5      4.000      5.351
REMARK  Name = 
REMARK  7 active torsions:
REMARK  status: ('A' for Active; 'I' for Inactive)
REMARK    1  A    between atoms: C_1  and  O_2
REMARK    2  A    between atoms: O_2  and  C_3
REMARK    3  A    between atoms: C_3  and  C_5
REMARK    4  A    between atoms: C_8  and  O_9
REMARK    5  A    between atoms: O_9  and  C_10
REMARK    6  A    between atoms: C_10  and  C_12
REMARK    7  A    between atoms: C_15  and  N_16
REMARK                            x       y       z     vdW  Elec       q    Type
REMARK                         _______ _______ _______ _____ _____    ______ ____
ROOT
ATOM      1  C   UNL     1       5.832   6.126  17.709  0.00  0.00    +0.000 A 
ATOM      2  C   UNL     1       5.918   5.108  18.660  0.00  0.00    +0.000 A 
ATOM      3  C   UNL     1       4.774   4.677  19.326  0.00  0.00    +0.000 A 
ATOM      4  C   UNL     1       3.517   5.252  19.071  0.00  0.00    +0.000 A 
ATOM      5  C   UNL     1       3.430   6.258  18.083  0.00  0.00    +0.000 A 
ATOM      6  C   UNL     1       4.579   6.692  17.419  0.00  0.00    +0.000 A 
ENDROOT
BRANCH   4   7
ATOM      7  N   UNL     1       2.403   4.753  19.820  0.00  0.00    +0.000 N 
ATOM      8  C   UNL     1       1.841   3.432  19.868  0.00  0.00    +0.000 C 
ATOM      9  N   UNL     1       2.192   2.475  19.081  0.00  0.00    +0.000 NA
ATOM     10  N   UNL     1       0.752   3.201  20.748  0.00  0.00    +0.000 N 
ATOM     11  H   UNL     1       1.872   5.462  20.349  0.00  0.00    +0.000 HD
ATOM     12  H   UNL     1       2.898   2.535  18.346  0.00  0.00    +0.000 HD
ATOM     13  H   UNL     1       0.391   3.961  21.345  0.00  0.00    +0.000 HD
ATOM     14  H   UNL     1       0.268   2.291  20.757  0.00  0.00    +0.000 HD
ENDBRANCH   4   7
BRANCH   1  15
ATOM     15  C   UNL     1       7.028   6.580  16.974  0.00  0.00    +0.000 C 
ATOM     16  O   UNL     1       7.466   7.712  17.127  0.00  0.00    +0.000 OA
BRANCH  15  17
ATOM     17  O   UNL     1       7.644   5.707  16.145  0.00  0.00    +0.000 OA
BRANCH  17  21
ATOM     18  C   UNL     1       5.904   3.690  12.948  0.00  0.00    +0.000 A 
ATOM     19  C   UNL     1       5.412   3.471  14.247  0.00  0.00    +0.000 A 
ATOM     20  C   UNL     1       5.997   4.123  15.339  0.00  0.00    +0.000 A 
ATOM     21  C   UNL     1       7.075   5.009  15.140  0.00  0.00    +0.000 A 
ATOM     22  C   UNL     1       7.553   5.229  13.850  0.00  0.00    +0.000 A 
ATOM     23  C   UNL     1       6.977   4.576  12.765  0.00  0.00    +0.000 A 
BRANCH  18  24
ATOM     24  C   UNL     1       5.319   3.015  11.771  0.00  0.00    +0.000 C 
ATOM     25  O   UNL     1       5.787   1.966  11.353  0.00  0.00    +0.000 OA
BRANCH  24  27
ATOM     26  C   UNL     1       3.247   2.942  10.515  0.00  0.00    +0.000 C 
ATOM     27  O   UNL     1       4.270   3.608  11.146  0.00  0.00    +0.000 OA
ENDBRANCH  24  27
ENDBRANCH  18  24
ENDBRANCH  17  21
ENDBRANCH  15  17
ENDBRANCH   1  15
TORSDOF 6
ENDMDL
