MODEL 1
REMARK VINA RESULT:      -7.0      0.000      0.000
REMARK  Name = 
REMARK  8 active torsions:
REMARK  status: ('A' for Active; 'I' for Inactive)
REMARK    1  A    between atoms: C_1  and  O_2
REMARK    2  A    between atoms: O_2  and  C_3
REMARK    3  A    between atoms: C_6  and  C_7
REMARK    4  A    between atoms: C_7  and  N_8
REMARK    5  A    between atoms: C_10  and  N_11
REMARK    6  A    between atoms: C_16  and  C_17
REMARK    7  A    between atoms: C_20  and  C_21
REMARK    8  A    between atoms: C_21  and  N_22
REMARK                            x       y       z     vdW  Elec       q    Type
REMARK                         _______ _______ _______ _____ _____    ______ ____
ROOT
ATOM      1  C   UNL     1       2.725   4.647  19.981  0.00  0.00    +0.000 A 
ATOM      2  C   UNL     1       2.011   5.632  20.671  0.00  0.00    +0.000 A 
ATOM      3  C   UNL     1       1.780   6.877  20.090  0.00  0.00    +0.000 A 
ATOM      4  C   UNL     1       2.212   7.143  18.787  0.00  0.00    +0.000 A 
ATOM      5  C   UNL     1       2.819   6.111  18.054  0.00  0.00    +0.000 A 
ATOM      6  C   UNL     1       3.115   4.869  18.647  0.00  0.00    +0.000 A 
ENDROOT
BRANCH   1   8
ATOM      7  C   UNL     1       2.093   2.813  21.332  0.00  0.00    +0.000 C 
ATOM      8  O   UNL     1       3.107   3.462  20.561  0.00  0.00    +0.000 OA
ENDBRANCH   1   8
BRANCH   4   9
ATOM      9  C   UNL     1       2.190   8.575  18.293  0.00  0.00    +0.000 C 
BRANCH   9  10
ATOM     10  N   UNL     1       1.236   9.441  18.977  0.00  0.00    +0.000 NA
ATOM     11  C   UNL     1       1.660  10.856  18.958  0.00  0.00    +0.000 C 
ATOM     12  C   UNL     1       0.177  11.260  18.611  0.00  0.00    +0.000 C 
ATOM     13  C   UNL     1       0.118   9.794  18.075  0.00  0.00    +0.000 C 
BRANCH  12  14
ATOM     14  N   UNL     1      -0.656  11.452  19.840  0.00  0.00    +0.000 NA
ATOM     15  C   UNL     1       0.163  12.196  20.828  0.00  0.00    +0.000 C 
ATOM     16  C   UNL     1      -0.565  12.371  22.156  0.00  0.00    +0.000 C 
ATOM     17  C   UNL     1      -1.861  13.129  21.954  0.00  0.00    +0.000 C 
ATOM     18  C   UNL     1      -2.689  12.452  20.874  0.00  0.00    +0.000 C 
ATOM     19  C   UNL     1      -1.893  12.243  19.563  0.00  0.00    +0.000 C 
ATOM     20  C   UNL     1      -2.871  11.612  18.563  0.00  0.00    +0.000 C 
ENDBRANCH  12  14
ENDBRANCH   9  10
ENDBRANCH   4   9
BRANCH   6  21
ATOM     21  C   UNL     1       3.988   3.902  17.890  0.00  0.00    +0.000 C 
BRANCH  21  22
ATOM     22  N   UNL     1       5.315   4.401  17.536  0.00  0.00    +0.000 N 
ATOM     23  C   UNL     1       5.838   4.517  16.274  0.00  0.00    +0.000 A 
ATOM     24  C   UNL     1       7.192   4.695  16.429  0.00  0.00    +0.000 A 
ATOM     25  C   UNL     1       7.397   4.682  17.820  0.00  0.00    +0.000 A 
ATOM     26  N   UNL     1       6.263   4.506  18.503  0.00  0.00    +0.000 NA
ENDBRANCH  21  22
ENDBRANCH   6  21
TORSDOF 6
ENDMDL
MODEL 2
REMARK VINA RESULT:      -6.9      1.378      1.572
REMARK  Name = 
REMARK  8 active torsions:
REMARK  status: ('A' for Active; 'I' for Inactive)
REMARK    1  A    between atoms: C_1  and  O_2
REMARK    2  A    between atoms: O_2  and  C_3
REMARK    3  A    between atoms: C_6  and  C_7
REMARK    4  A    between atoms: C_7  and  N_8
REMARK    5  A    between atoms: C_10  and  N_11
REMARK    6  A    between atoms: C_16  and  C_17
REMARK    7  A    between atoms: C_20  and  C_21
REMARK    8  A    between atoms: C_21  and  N_22
REMARK                            x       y       z     vdW  Elec       q    Type
REMARK                         _______ _______ _______ _____ _____    ______ ____
ROOT
ATOM      1  C   UNL     1       3.247   5.566  19.422  0.00  0.00    +0.000 A 
ATOM      2  C   UNL     1       2.323   6.265  20.207  0.00  0.00    +0.000 A 
ATOM      3  C   UNL     1       1.853   7.513  19.806  0.00  0.00    +0.000 A 
ATOM      4  C   UNL     1       2.255   8.064  18.585  0.00  0.00    +0.000 A 
ATOM      5  C   UNL     1       3.085   7.306  17.744  0.00  0.00    +0.000 A 
ATOM      6  C   UNL     1       3.618   6.072  18.162  0.00  0.00    +0.000 A 
ENDROOT
BRANCH   1   8
ATOM      7  C   UNL     1       2.980   3.280  19.961  0.00  0.00    +0.000 C 
ATOM      8  O   UNL     1       3.851   4.407  19.840  0.00  0.00    +0.000 OA
ENDBRANCH   1   8
BRANCH   4   9
ATOM      9  C   UNL     1       1.947   9.522  18.310  0.00  0.00    +0.000 C 
BRANCH   9  10
ATOM     10  N   UNL     1       0.901  10.093  19.151  0.00  0.00    +0.000 NA
ATOM     11  C   UNL     1       1.182  11.499  19.506  0.00  0.00    +0.000 C 
ATOM     12  C   UNL     1      -0.328  11.839  19.212  0.00  0.00    +0.000 C 
ATOM     13  C   UNL     1      -0.232  10.559  18.322  0.00  0.00    +0.000 C 
BRANCH  12  14
ATOM     14  N   UNL     1      -1.195  11.634  20.414  0.00  0.00    +0.000 NA
ATOM     15  C   UNL     1      -0.410  12.032  21.610  0.00  0.00    +0.000 C 
ATOM     16  C   UNL     1      -1.175  11.779  22.904  0.00  0.00    +0.000 C 
ATOM     17  C   UNL     1      -2.474  12.560  22.913  0.00  0.00    +0.000 C 
ATOM     18  C   UNL     1      -3.265  12.255  21.652  0.00  0.00    +0.000 C 
ATOM     19  C   UNL     1      -2.433  12.470  20.364  0.00  0.00    +0.000 C 
ATOM     20  C   UNL     1      -3.377  12.183  19.189  0.00  0.00    +0.000 C 
ENDBRANCH  12  14
ENDBRANCH   9  10
ENDBRANCH   4   9
BRANCH   6  21
ATOM     21  C   UNL     1       4.695   5.433  17.323  0.00  0.00    +0.000 C 
BRANCH  21  22
ATOM     22  N   UNL     1       6.035   5.994  17.491  0.00  0.00    +0.000 N 
ATOM     23  C   UNL     1       6.886   5.780  18.543  0.00  0.00    +0.000 A 
ATOM     24  C   UNL     1       7.861   6.745  18.457  0.00  0.00    +0.000 A 
ATOM     25  C   UNL     1       7.521   7.495  17.317  0.00  0.00    +0.000 A 
ATOM     26  N   UNL     1       6.414   7.045  16.720  0.00  0.00    +0.000 NA
ENDBRANCH  21  22
ENDBRANCH   6  21
TORSDOF 6
ENDMDL
MODEL 3
REMARK VINA RESULT:      -6.8      2.875      9.221
REMARK  Name = 
REMARK  8 active torsions:
REMARK  status: ('A' for Active; 'I' for Inactive)
REMARK    1  A    between atoms: C_1  and  O_2
REMARK    2  A    between atoms: O_2  and  C_3
REMARK    3  A    between atoms: C_6  and  C_7
REMARK    4  A    between atoms: C_7  and  N_8
REMARK    5  A    between atoms: C_10  and  N_11
REMARK    6  A    between atoms: C_16  and  C_17
REMARK    7  A    between atoms: C_20  and  C_21
REMARK    8  A    between atoms: C_21  and  N_22
REMARK                            x       y       z     vdW  Elec       q    Type
REMARK                         _______ _______ _______ _____ _____    ______ ____
ROOT
ATOM      1  C   UNL     1      -2.318  11.172  18.261  0.00  0.00    +0.000 A 
ATOM      2  C   UNL     1      -2.074  10.036  17.482  0.00  0.00    +0.000 A 
ATOM      3  C   UNL     1      -0.807   9.456  17.453  0.00  0.00    +0.000 A 
ATOM      4  C   UNL     1       0.226   9.968  18.245  0.00  0.00    +0.000 A 
ATOM      5  C   UNL     1      -0.058  11.031  19.117  0.00  0.00    +0.000 A 
ATOM      6  C   UNL     1      -1.313  11.668  19.112  0.00  0.00    +0.000 A 
ENDROOT
BRANCH   1   8
ATOM      7  C   UNL     1      -4.357  11.526  17.117  0.00  0.00    +0.000 C 
ATOM      8  O   UNL     1      -3.501  11.867  18.210  0.00  0.00    +0.000 OA
ENDBRANCH   1   8
BRANCH   4   9
ATOM      9  C   UNL     1       1.641   9.493  17.987  0.00  0.00    +0.000 C 
BRANCH   9  10
ATOM     10  N   UNL     1       1.824   8.049  18.065  0.00  0.00    +0.000 NA
ATOM     11  C   UNL     1       3.210   7.648  17.750  0.00  0.00    +0.000 C 
ATOM     12  C   UNL     1       3.163   6.651  18.969  0.00  0.00    +0.000 C 
ATOM     13  C   UNL     1       2.053   7.631  19.466  0.00  0.00    +0.000 C 
BRANCH  12  14
ATOM     14  N   UNL     1       2.612   5.315  18.583  0.00  0.00    +0.000 NA
ATOM     15  C   UNL     1       3.483   4.760  17.516  0.00  0.00    +0.000 C 
ATOM     16  C   UNL     1       2.958   3.430  16.987  0.00  0.00    +0.000 C 
ATOM     17  C   UNL     1       2.876   2.410  18.104  0.00  0.00    +0.000 C 
ATOM     18  C   UNL     1       2.073   2.980  19.262  0.00  0.00    +0.000 C 
ATOM     19  C   UNL     1       2.605   4.356  19.729  0.00  0.00    +0.000 C 
ATOM     20  C   UNL     1       1.738   4.767  20.928  0.00  0.00    +0.000 C 
ENDBRANCH  12  14
ENDBRANCH   9  10
ENDBRANCH   4   9
BRANCH   6  21
ATOM     21  C   UNL     1      -1.470  12.952  19.884  0.00  0.00    +0.000 C 
BRANCH  21  22
ATOM     22  N   UNL     1      -2.050  12.814  21.218  0.00  0.00    +0.000 N 
ATOM     23  C   UNL     1      -1.496  12.162  22.289  0.00  0.00    +0.000 A 
ATOM     24  C   UNL     1      -2.507  11.990  23.205  0.00  0.00    +0.000 A 
ATOM     25  C   UNL     1      -3.636  12.576  22.605  0.00  0.00    +0.000 A 
ATOM     26  N   UNL     1      -3.369  13.083  21.399  0.00  0.00    +0.000 NA
ENDBRANCH  21  22
ENDBRANCH   6  21
TORSDOF 6
ENDMDL
MODEL 4
REMARK VINA RESULT:      -6.7      2.420      8.667
REMARK  Name = 
REMARK  8 active torsions:
REMARK  status: ('A' for Active; 'I' for Inactive)
REMARK    1  A    between atoms: C_1  and  O_2
REMARK    2  A    between atoms: O_2  and  C_3
REMARK    3  A    between atoms: C_6  and  C_7
REMARK    4  A    between atoms: C_7  and  N_8
REMARK    5  A    between atoms: C_10  and  N_11
REMARK    6  A    between atoms: C_16  and  C_17
REMARK    7  A    between atoms: C_20  and  C_21
REMARK    8  A    between atoms: C_21  and  N_22
REMARK                            x       y       z     vdW  Elec       q    Type
REMARK                         _______ _______ _______ _____ _____    ______ ____
ROOT
ATOM      1  C   UNL     1       0.291  10.729  21.100  0.00  0.00    +0.000 A 
ATOM      2  C   UNL     1       0.612   9.894  22.176  0.00  0.00    +0.000 A 
ATOM      3  C   UNL     1       1.088   8.604  21.954  0.00  0.00    +0.000 A 
ATOM      4  C   UNL     1       1.304   8.142  20.651  0.00  0.00    +0.000 A 
ATOM      5  C   UNL     1       1.097   9.025  19.580  0.00  0.00    +0.000 A 
ATOM      6  C   UNL     1       0.558  10.309  19.783  0.00  0.00    +0.000 A 
ENDROOT
BRANCH   1   8
ATOM      7  C   UNL     1      -0.765  12.230  22.590  0.00  0.00    +0.000 C 
ATOM      8  O   UNL     1      -0.318  11.949  21.262  0.00  0.00    +0.000 OA
ENDBRANCH   1   8
BRANCH   4   9
ATOM      9  C   UNL     1       1.555   6.663  20.439  0.00  0.00    +0.000 C 
BRANCH   9  10
ATOM     10  N   UNL     1       2.792   6.350  19.734  0.00  0.00    +0.000 NA
ATOM     11  C   UNL     1       3.240   4.965  19.988  0.00  0.00    +0.000 C 
ATOM     12  C   UNL     1       3.562   4.823  18.453  0.00  0.00    +0.000 C 
ATOM     13  C   UNL     1       2.507   5.968  18.333  0.00  0.00    +0.000 C 
BRANCH  12  14
ATOM     14  N   UNL     1       4.947   5.286  18.123  0.00  0.00    +0.000 NA
ATOM     15  C   UNL     1       5.776   5.135  19.345  0.00  0.00    +0.000 C 
ATOM     16  C   UNL     1       7.191   5.662  19.142  0.00  0.00    +0.000 C 
ATOM     17  C   UNL     1       7.878   4.918  18.015  0.00  0.00    +0.000 C 
ATOM     18  C   UNL     1       7.011   4.964  16.767  0.00  0.00    +0.000 C 
ATOM     19  C   UNL     1       5.566   4.475  17.032  0.00  0.00    +0.000 C 
ATOM     20  C   UNL     1       4.842   4.523  15.680  0.00  0.00    +0.000 C 
ENDBRANCH  12  14
ENDBRANCH   9  10
ENDBRANCH   4   9
BRANCH   6  21
ATOM     21  C   UNL     1       0.127  11.106  18.580  0.00  0.00    +0.000 C 
BRANCH  21  22
ATOM     22  N   UNL     1      -1.236  10.853  18.116  0.00  0.00    +0.000 N 
ATOM     23  C   UNL     1      -1.642   9.855  17.269  0.00  0.00    +0.000 A 
ATOM     24  C   UNL     1      -2.905  10.194  16.845  0.00  0.00    +0.000 A 
ATOM     25  C   UNL     1      -3.185  11.409  17.493  0.00  0.00    +0.000 A 
ATOM     26  N   UNL     1      -2.178  11.818  18.271  0.00  0.00    +0.000 NA
ENDBRANCH  21  22
ENDBRANCH   6  21
TORSDOF 6
ENDMDL
MODEL 5
REMARK VINA RESULT:      -6.7      2.590      8.581
REMARK  Name = 
REMARK  8 active torsions:
REMARK  status: ('A' for Active; 'I' for Inactive)
REMARK    1  A    between atoms: C_1  and  O_2
REMARK    2  A    between atoms: O_2  and  C_3
REMARK    3  A    between atoms: C_6  and  C_7
REMARK    4  A    between atoms: C_7  and  N_8
REMARK    5  A    between atoms: C_10  and  N_11
REMARK    6  A    between atoms: C_16  and  C_17
REMARK    7  A    between atoms: C_20  and  C_21
REMARK    8  A    between atoms: C_21  and  N_22
REMARK                            x       y       z     vdW  Elec       q    Type
REMARK                         _______ _______ _______ _____ _____    ______ ____
ROOT
ATOM      1  C   UNL     1      -0.176  11.000  21.202  0.00  0.00    +0.000 A 
ATOM      2  C   UNL     1       0.094  10.156  22.284  0.00  0.00    +0.000 A 
ATOM      3  C   UNL     1       0.654   8.897  22.079  0.00  0.00    +0.000 A 
ATOM      4  C   UNL     1       1.005   8.478  20.791  0.00  0.00    +0.000 A 
ATOM      5  C   UNL     1       0.845   9.375  19.724  0.00  0.00    +0.000 A 
ATOM      6  C   UNL     1       0.224  10.625  19.905  0.00  0.00    +0.000 A 
ENDROOT
BRANCH   1   8
ATOM      7  C   UNL     1      -0.111  13.251  21.918  0.00  0.00    +0.000 C 
ATOM      8  O   UNL     1      -0.860  12.183  21.334  0.00  0.00    +0.000 OA
ENDBRANCH   1   8
BRANCH   4   9
ATOM      9  C   UNL     1       1.350   7.019  20.572  0.00  0.00    +0.000 C 
BRANCH   9  10
ATOM     10  N   UNL     1       2.649   6.786  19.951  0.00  0.00    +0.000 NA
ATOM     11  C   UNL     1       2.965   5.347  19.851  0.00  0.00    +0.000 C 
ATOM     12  C   UNL     1       3.485   5.598  18.385  0.00  0.00    +0.000 C 
ATOM     13  C   UNL     1       2.534   6.834  18.477  0.00  0.00    +0.000 C 
BRANCH  12  14
ATOM     14  N   UNL     1       4.929   5.990  18.360  0.00  0.00    +0.000 NA
ATOM     15  C   UNL     1       5.650   5.117  19.320  0.00  0.00    +0.000 C 
ATOM     16  C   UNL     1       7.123   5.492  19.436  0.00  0.00    +0.000 C 
ATOM     17  C   UNL     1       7.807   5.375  18.090  0.00  0.00    +0.000 C 
ATOM     18  C   UNL     1       7.040   6.177  17.052  0.00  0.00    +0.000 C 
ATOM     19  C   UNL     1       5.538   5.805  17.008  0.00  0.00    +0.000 C 
ATOM     20  C   UNL     1       4.919   6.647  15.884  0.00  0.00    +0.000 C 
ENDBRANCH  12  14
ENDBRANCH   9  10
ENDBRANCH   4   9
BRANCH   6  21
ATOM     21  C   UNL     1      -0.142  11.429  18.684  0.00  0.00    +0.000 C 
BRANCH  21  22
ATOM     22  N   UNL     1      -1.435  11.102  18.084  0.00  0.00    +0.000 N 
ATOM     23  C   UNL     1      -2.653  11.627  18.426  0.00  0.00    +0.000 A 
ATOM     24  C   UNL     1      -3.602  10.807  17.862  0.00  0.00    +0.000 A 
ATOM     25  C   UNL     1      -2.864   9.816  17.191  0.00  0.00    +0.000 A 
ATOM     26  N   UNL     1      -1.545   9.988  17.316  0.00  0.00    +0.000 NA
ENDBRANCH  21  22
ENDBRANCH   6  21
TORSDOF 6
ENDMDL
MODEL 6
REMARK VINA RESULT:      -6.7      1.467      2.022
REMARK  Name = 
REMARK  8 active torsions:
REMARK  status: ('A' for Active; 'I' for Inactive)
REMARK    1  A    between atoms: C_1  and  O_2
REMARK    2  A    between atoms: O_2  and  C_3
REMARK    3  A    between atoms: C_6  and  C_7
REMARK    4  A    between atoms: C_7  and  N_8
REMARK    5  A    between atoms: C_10  and  N_11
REMARK    6  A    between atoms: C_16  and  C_17
REMARK    7  A    between atoms: C_20  and  C_21
REMARK    8  A    between atoms: C_21  and  N_22
REMARK                            x       y       z     vdW  Elec       q    Type
REMARK                         _______ _______ _______ _____ _____    ______ ____
ROOT
ATOM      1  C   UNL     1       2.626   4.660  19.411  0.00  0.00    +0.000 A 
ATOM      2  C   UNL     1       1.753   4.918  20.474  0.00  0.00    +0.000 A 
ATOM      3  C   UNL     1       1.427   6.228  20.820  0.00  0.00    +0.000 A 
ATOM      4  C   UNL     1       1.923   7.303  20.075  0.00  0.00    +0.000 A 
ATOM      5  C   UNL     1       2.697   7.034  18.936  0.00  0.00    +0.000 A 
ATOM      6  C   UNL     1       3.088   5.722  18.610  0.00  0.00    +0.000 A 
ENDROOT
BRANCH   1   8
ATOM      7  C   UNL     1       2.282   2.644  18.226  0.00  0.00    +0.000 C 
ATOM      8  O   UNL     1       3.095   3.402  19.124  0.00  0.00    +0.000 OA
ENDBRANCH   1   8
BRANCH   4   9
ATOM      9  C   UNL     1       1.774   8.703  20.636  0.00  0.00    +0.000 C 
BRANCH   9  10
ATOM     10  N   UNL     1       0.536   9.379  20.267  0.00  0.00    +0.000 NA
ATOM     11  C   UNL     1       0.611  10.837  20.497  0.00  0.00    +0.000 C 
ATOM     12  C   UNL     1      -0.084  11.058  19.101  0.00  0.00    +0.000 C 
ATOM     13  C   UNL     1       0.502   9.640  18.811  0.00  0.00    +0.000 C 
BRANCH  12  14
ATOM     14  N   UNL     1      -1.577  11.046  19.208  0.00  0.00    +0.000 NA
ATOM     15  C   UNL     1      -1.981  12.226  20.014  0.00  0.00    +0.000 C 
ATOM     16  C   UNL     1      -3.485  12.262  20.258  0.00  0.00    +0.000 C 
ATOM     17  C   UNL     1      -4.235  12.313  18.942  0.00  0.00    +0.000 C 
ATOM     18  C   UNL     1      -3.776  11.175  18.045  0.00  0.00    +0.000 C 
ATOM     19  C   UNL     1      -2.238  11.141  17.871  0.00  0.00    +0.000 C 
ATOM     20  C   UNL     1      -1.940   9.988  16.904  0.00  0.00    +0.000 C 
ENDBRANCH  12  14
ENDBRANCH   9  10
ENDBRANCH   4   9
BRANCH   6  21
ATOM     21  C   UNL     1       4.120   5.526  17.530  0.00  0.00    +0.000 C 
BRANCH  21  22
ATOM     22  N   UNL     1       5.461   6.014  17.849  0.00  0.00    +0.000 N 
ATOM     23  C   UNL     1       6.231   6.852  17.087  0.00  0.00    +0.000 A 
ATOM     24  C   UNL     1       7.509   6.769  17.587  0.00  0.00    +0.000 A 
ATOM     25  C   UNL     1       7.414   5.862  18.658  0.00  0.00    +0.000 A 
ATOM     26  N   UNL     1       6.173   5.399  18.828  0.00  0.00    +0.000 NA
ENDBRANCH  21  22
ENDBRANCH   6  21
TORSDOF 6
ENDMDL
MODEL 7
REMARK VINA RESULT:      -6.7      1.216      1.400
REMARK  Name = 
REMARK  8 active torsions:
REMARK  status: ('A' for Active; 'I' for Inactive)
REMARK    1  A    between atoms: C_1  and  O_2
REMARK    2  A    between atoms: O_2  and  C_3
REMARK    3  A    between atoms: C_6  and  C_7
REMARK    4  A    between atoms: C_7  and  N_8
REMARK    5  A    between atoms: C_10  and  N_11
REMARK    6  A    between atoms: C_16  and  C_17
REMARK    7  A    between atoms: C_20  and  C_21
REMARK    8  A    between atoms: C_21  and  N_22
REMARK                            x       y       z     vdW  Elec       q    Type
REMARK                         _______ _______ _______ _____ _____    ______ ____
ROOT
ATOM      1  C   UNL     1       2.784   5.871  19.642  0.00  0.00    +0.000 A 
ATOM      2  C   UNL     1       2.005   6.664  20.491  0.00  0.00    +0.000 A 
ATOM      3  C   UNL     1       1.569   7.922  20.082  0.00  0.00    +0.000 A 
ATOM      4  C   UNL     1       1.855   8.389  18.795  0.00  0.00    +0.000 A 
ATOM      5  C   UNL     1       2.530   7.539  17.905  0.00  0.00    +0.000 A 
ATOM      6  C   UNL     1       3.033   6.293  18.322  0.00  0.00    +0.000 A 
ENDROOT
BRANCH   1   8
ATOM      7  C   UNL     1       2.443   3.680  20.463  0.00  0.00    +0.000 C 
ATOM      8  O   UNL     1       3.362   4.694  20.048  0.00  0.00    +0.000 OA
ENDBRANCH   1   8
BRANCH   4   9
ATOM      9  C   UNL     1       1.607   9.850  18.481  0.00  0.00    +0.000 C 
BRANCH   9  10
ATOM     10  N   UNL     1       0.622  10.499  19.339  0.00  0.00    +0.000 NA
ATOM     11  C   UNL     1       0.900  11.940  19.511  0.00  0.00    +0.000 C 
ATOM     12  C   UNL     1      -0.636  12.226  19.310  0.00  0.00    +0.000 C 
ATOM     13  C   UNL     1      -0.587  10.855  18.563  0.00  0.00    +0.000 C 
BRANCH  12  14
ATOM     14  N   UNL     1      -1.396  12.146  20.597  0.00  0.00    +0.000 NA
ATOM     15  C   UNL     1      -0.589  12.829  21.640  0.00  0.00    +0.000 C 
ATOM     16  C   UNL     1      -1.236  12.730  23.017  0.00  0.00    +0.000 C 
ATOM     17  C   UNL     1      -2.614  13.359  23.002  0.00  0.00    +0.000 C 
ATOM     18  C   UNL     1      -3.442  12.756  21.879  0.00  0.00    +0.000 C 
ATOM     19  C   UNL     1      -2.723  12.826  20.510  0.00  0.00    +0.000 C 
ATOM     20  C   UNL     1      -3.700  12.238  19.482  0.00  0.00    +0.000 C 
ENDBRANCH  12  14
ENDBRANCH   9  10
ENDBRANCH   4   9
BRANCH   6  21
ATOM     21  C   UNL     1       3.960   5.546  17.399  0.00  0.00    +0.000 C 
BRANCH  21  22
ATOM     22  N   UNL     1       5.387   5.769  17.629  0.00  0.00    +0.000 N 
ATOM     23  C   UNL     1       6.113   6.872  17.263  0.00  0.00    +0.000 A 
ATOM     24  C   UNL     1       7.437   6.516  17.363  0.00  0.00    +0.000 A 
ATOM     25  C   UNL     1       7.416   5.181  17.804  0.00  0.00    +0.000 A 
ATOM     26  N   UNL     1       6.174   4.717  17.972  0.00  0.00    +0.000 NA
ENDBRANCH  21  22
ENDBRANCH   6  21
TORSDOF 6
ENDMDL
MODEL 8
REMARK VINA RESULT:      -6.6      1.413      1.901
REMARK  Name = 
REMARK  8 active torsions:
REMARK  status: ('A' for Active; 'I' for Inactive)
REMARK    1  A    between atoms: C_1  and  O_2
REMARK    2  A    between atoms: O_2  and  C_3
REMARK    3  A    between atoms: C_6  and  C_7
REMARK    4  A    between atoms: C_7  and  N_8
REMARK    5  A    between atoms: C_10  and  N_11
REMARK    6  A    between atoms: C_16  and  C_17
REMARK    7  A    between atoms: C_20  and  C_21
REMARK    8  A    between atoms: C_21  and  N_22
REMARK                            x       y       z     vdW  Elec       q    Type
REMARK                         _______ _______ _______ _____ _____    ______ ____
ROOT
ATOM      1  C   UNL     1       2.682   6.132  19.687  0.00  0.00    +0.000 A 
ATOM      2  C   UNL     1       1.899   6.929  20.529  0.00  0.00    +0.000 A 
ATOM      3  C   UNL     1       1.453   8.180  20.108  0.00  0.00    +0.000 A 
ATOM      4  C   UNL     1       1.734   8.635  18.815  0.00  0.00    +0.000 A 
ATOM      5  C   UNL     1       2.414   7.781  17.933  0.00  0.00    +0.000 A 
ATOM      6  C   UNL     1       2.926   6.542  18.362  0.00  0.00    +0.000 A 
ENDROOT
BRANCH   1   8
ATOM      7  C   UNL     1       2.384   4.033  20.732  0.00  0.00    +0.000 C 
ATOM      8  O   UNL     1       3.269   4.963  20.104  0.00  0.00    +0.000 OA
ENDBRANCH   1   8
BRANCH   4   9
ATOM      9  C   UNL     1       1.475  10.091  18.487  0.00  0.00    +0.000 C 
BRANCH   9  10
ATOM     10  N   UNL     1       0.164  10.583  18.892  0.00  0.00    +0.000 NA
ATOM     11  C   UNL     1       0.015  12.032  18.643  0.00  0.00    +0.000 C 
ATOM     12  C   UNL     1      -1.429  11.752  18.078  0.00  0.00    +0.000 C 
ATOM     13  C   UNL     1      -0.836  10.329  17.831  0.00  0.00    +0.000 C 
BRANCH  12  14
ATOM     14  N   UNL     1      -2.466  11.758  19.157  0.00  0.00    +0.000 NA
ATOM     15  C   UNL     1      -2.199  12.926  20.034  0.00  0.00    +0.000 C 
ATOM     16  C   UNL     1      -3.152  12.977  21.221  0.00  0.00    +0.000 C 
ATOM     17  C   UNL     1      -4.588  13.065  20.746  0.00  0.00    +0.000 C 
ATOM     18  C   UNL     1      -4.874  11.940  19.765  0.00  0.00    +0.000 C 
ATOM     19  C   UNL     1      -3.849  11.890  18.606  0.00  0.00    +0.000 C 
ATOM     20  C   UNL     1      -4.303  10.753  17.680  0.00  0.00    +0.000 C 
ENDBRANCH  12  14
ENDBRANCH   9  10
ENDBRANCH   4   9
BRANCH   6  21
ATOM     21  C   UNL     1       3.856   5.792  17.445  0.00  0.00    +0.000 C 
BRANCH  21  22
ATOM     22  N   UNL     1       5.282   6.008  17.685  0.00  0.00    +0.000 N 
ATOM     23  C   UNL     1       6.047   7.038  17.204  0.00  0.00    +0.000 A 
ATOM     24  C   UNL     1       7.358   6.666  17.386  0.00  0.00    +0.000 A 
ATOM     25  C   UNL     1       7.289   5.399  17.992  0.00  0.00    +0.000 A 
ATOM     26  N   UNL     1       6.031   4.990  18.181  0.00  0.00    +0.000 NA
ENDBRANCH  21  22
ENDBRANCH   6  21
TORSDOF 6
ENDMDL
MODEL 9
REMARK VINA RESULT:      -6.6      1.841      2.503
REMARK  Name = 
REMARK  8 active torsions:
REMARK  status: ('A' for Active; 'I' for Inactive)
REMARK    1  A    between atoms: C_1  and  O_2
REMARK    2  A    between atoms: O_2  and  C_3
REMARK    3  A    between atoms: C_6  and  C_7
REMARK    4  A    between atoms: C_7  and  N_8
REMARK    5  A    between atoms: C_10  and  N_11
REMARK    6  A    between atoms: C_16  and  C_17
REMARK    7  A    between atoms: C_20  and  C_21
REMARK    8  A    between atoms: C_21  and  N_22
REMARK                            x       y       z     vdW  Elec       q    Type
REMARK                         _______ _______ _______ _____ _____    ______ ____
ROOT
ATOM      1  C   UNL     1       2.503   6.201  19.990  0.00  0.00    +0.000 A 
ATOM      2  C   UNL     1       1.740   7.054  20.793  0.00  0.00    +0.000 A 
ATOM      3  C   UNL     1       1.305   8.285  20.307  0.00  0.00    +0.000 A 
ATOM      4  C   UNL     1       1.578   8.664  18.988  0.00  0.00    +0.000 A 
ATOM      5  C   UNL     1       2.237   7.752  18.149  0.00  0.00    +0.000 A 
ATOM      6  C   UNL     1       2.738   6.533  18.642  0.00  0.00    +0.000 A 
ENDROOT
BRANCH   1   8
ATOM      7  C   UNL     1       2.217   4.221  21.249  0.00  0.00    +0.000 C 
ATOM      8  O   UNL     1       3.079   5.050  20.465  0.00  0.00    +0.000 OA
ENDBRANCH   1   8
BRANCH   4   9
ATOM      9  C   UNL     1       1.334  10.103  18.581  0.00  0.00    +0.000 C 
BRANCH   9  10
ATOM     10  N   UNL     1       0.039  10.638  18.982  0.00  0.00    +0.000 NA
ATOM     11  C   UNL     1      -0.093  12.073  18.655  0.00  0.00    +0.000 C 
ATOM     12  C   UNL     1      -1.551  11.786  18.132  0.00  0.00    +0.000 C 
ATOM     13  C   UNL     1      -0.984  10.341  17.955  0.00  0.00    +0.000 C 
BRANCH  12  14
ATOM     14  N   UNL     1      -2.567  11.869  19.227  0.00  0.00    +0.000 NA
ATOM     15  C   UNL     1      -2.261  13.075  20.037  0.00  0.00    +0.000 C 
ATOM     16  C   UNL     1      -3.191  13.206  21.237  0.00  0.00    +0.000 C 
ATOM     17  C   UNL     1      -4.633  13.299  20.784  0.00  0.00    +0.000 C 
ATOM     18  C   UNL     1      -4.960  12.131  19.868  0.00  0.00    +0.000 C 
ATOM     19  C   UNL     1      -3.958  12.000  18.695  0.00  0.00    +0.000 C 
ATOM     20  C   UNL     1      -4.451  10.827  17.838  0.00  0.00    +0.000 C 
ENDBRANCH  12  14
ENDBRANCH   9  10
ENDBRANCH   4   9
BRANCH   6  21
ATOM     21  C   UNL     1       3.649   5.720  17.758  0.00  0.00    +0.000 C 
BRANCH  21  22
ATOM     22  N   UNL     1       3.296   4.307  17.626  0.00  0.00    +0.000 N 
ATOM     23  C   UNL     1       2.033   3.783  17.533  0.00  0.00    +0.000 A 
ATOM     24  C   UNL     1       2.154   2.434  17.767  0.00  0.00    +0.000 A 
ATOM     25  C   UNL     1       3.528   2.231  17.985  0.00  0.00    +0.000 A 
ATOM     26  N   UNL     1       4.232   3.363  17.898  0.00  0.00    +0.000 NA
ENDBRANCH  21  22
ENDBRANCH   6  21
TORSDOF 6
ENDMDL
