MODEL 1
REMARK VINA RESULT:      -8.4      0.000      0.000
REMARK  Name = 
REMARK  10 active torsions:
REMARK  status: ('A' for Active; 'I' for Inactive)
REMARK    1  A    between atoms: C_1  and  C_2
REMARK    2  A    between atoms: C_3  and  C_4
REMARK    3  A    between atoms: C_4  and  C_5
REMARK    4  A    between atoms: C_12  and  S_13
REMARK    5  A    between atoms: S_13  and  C_14
REMARK    6  A    between atoms: C_14  and  C_15
REMARK    7  A    between atoms: C_18  and  C_19
REMARK    8  A    between atoms: C_19  and  C_20
REMARK    9  A    between atoms: C_19  and  C_21
REMARK   10  A    between atoms: C_19  and  C_22
REMARK                            x       y       z     vdW  Elec       q    Type
REMARK                         _______ _______ _______ _____ _____    ______ ____
ROOT
ATOM      1  C   UNL     1       5.923   3.527  15.906  0.00  0.00    +0.000 C 
ATOM      2  C   UNL     1       5.065   4.592  16.522  0.00  0.00    +0.000 A 
ATOM      3  C   UNL     1       3.920   4.441  17.230  0.00  0.00    +0.000 A 
ATOM      4  N   UNL     1       3.170   5.503  17.705  0.00  0.00    +0.000 NA
ATOM      5  C   UNL     1       3.603   6.691  17.460  0.00  0.00    +0.000 A 
ATOM      6  N   UNL     1       4.740   6.969  16.774  0.00  0.00    +0.000 N 
ATOM      7  C   UNL     1       5.556   5.982  16.322  0.00  0.00    +0.000 A 
ATOM      8  O   UNL     1       6.635   6.231  15.790  0.00  0.00    +0.000 OA
ATOM      9  H   UNL     1       5.022   7.921  16.643  0.00  0.00    +0.000 HD
ENDROOT
BRANCH   3  10
ATOM     10  C   UNL     1       3.322   3.080  17.589  0.00  0.00    +0.000 C 
BRANCH  10  11
ATOM     11  C   UNL     1       2.709   3.099  18.976  0.00  0.00    +0.000 A 
ATOM     12  C   UNL     1       3.488   2.802  20.105  0.00  0.00    +0.000 A 
ATOM     13  C   UNL     1       2.887   2.618  21.351  0.00  0.00    +0.000 A 
ATOM     14  C   UNL     1       1.505   2.740  21.483  0.00  0.00    +0.000 A 
ATOM     15  C   UNL     1       0.730   3.101  20.383  0.00  0.00    +0.000 A 
ATOM     16  C   UNL     1       1.329   3.288  19.137  0.00  0.00    +0.000 A 
ENDBRANCH  10  11
ENDBRANCH   3  10
BRANCH   5  17
ATOM     17  S   UNL     1       2.763   8.130  17.936  0.00  0.00    +0.000 S 
BRANCH  17  18
ATOM     18  C   UNL     1       2.141   7.643  19.574  0.00  0.00    +0.000 C 
BRANCH  18  19
ATOM     19  C   UNL     1       1.185   8.685  20.112  0.00  0.00    +0.000 A 
ATOM     20  C   UNL     1       0.875   9.813  19.349  0.00  0.00    +0.000 A 
ATOM     21  C   UNL     1       0.081  10.837  19.875  0.00  0.00    +0.000 A 
ATOM     22  C   UNL     1      -0.428  10.787  21.184  0.00  0.00    +0.000 A 
ATOM     23  C   UNL     1      -0.155   9.622  21.925  0.00  0.00    +0.000 A 
ATOM     24  C   UNL     1       0.640   8.589  21.399  0.00  0.00    +0.000 A 
BRANCH  22  25
ATOM     25  C   UNL     1      -1.214  11.964  21.798  0.00  0.00    +0.000 C 
ATOM     26  C   UNL     1      -2.385  12.430  20.900  0.00  0.00    +0.000 C 
ATOM     27  C   UNL     1      -1.808  11.574  23.168  0.00  0.00    +0.000 C 
ATOM     28  C   UNL     1      -0.291  13.187  21.996  0.00  0.00    +0.000 C 
ENDBRANCH  22  25
ENDBRANCH  18  19
ENDBRANCH  17  18
ENDBRANCH   5  17
TORSDOF 6
ENDMDL
MODEL 2
REMARK VINA RESULT:      -8.3      2.141      4.098
REMARK  Name = 
REMARK  10 active torsions:
REMARK  status: ('A' for Active; 'I' for Inactive)
REMARK    1  A    between atoms: C_1  and  C_2
REMARK    2  A    between atoms: C_3  and  C_4
REMARK    3  A    between atoms: C_4  and  C_5
REMARK    4  A    between atoms: C_12  and  S_13
REMARK    5  A    between atoms: S_13  and  C_14
REMARK    6  A    between atoms: C_14  and  C_15
REMARK    7  A    between atoms: C_18  and  C_19
REMARK    8  A    between atoms: C_19  and  C_20
REMARK    9  A    between atoms: C_19  and  C_21
REMARK   10  A    between atoms: C_19  and  C_22
REMARK                            x       y       z     vdW  Elec       q    Type
REMARK                         _______ _______ _______ _____ _____    ______ ____
ROOT
ATOM      1  C   UNL     1       3.324   2.202  19.935  0.00  0.00    +0.000 C 
ATOM      2  C   UNL     1       2.933   3.639  19.756  0.00  0.00    +0.000 A 
ATOM      3  C   UNL     1       2.974   4.385  18.627  0.00  0.00    +0.000 A 
ATOM      4  N   UNL     1       2.645   5.729  18.586  0.00  0.00    +0.000 NA
ATOM      5  C   UNL     1       2.272   6.282  19.688  0.00  0.00    +0.000 A 
ATOM      6  N   UNL     1       2.180   5.637  20.878  0.00  0.00    +0.000 N 
ATOM      7  C   UNL     1       2.434   4.308  20.989  0.00  0.00    +0.000 A 
ATOM      8  O   UNL     1       2.253   3.702  22.042  0.00  0.00    +0.000 OA
ATOM      9  H   UNL     1       1.860   6.132  21.688  0.00  0.00    +0.000 HD
ENDROOT
BRANCH   3  10
ATOM     10  C   UNL     1       3.388   3.831  17.262  0.00  0.00    +0.000 C 
BRANCH  10  11
ATOM     11  C   UNL     1       4.757   4.339  16.855  0.00  0.00    +0.000 A 
ATOM     12  C   UNL     1       5.043   4.621  15.510  0.00  0.00    +0.000 A 
ATOM     13  C   UNL     1       6.352   4.890  15.107  0.00  0.00    +0.000 A 
ATOM     14  C   UNL     1       7.384   4.891  16.043  0.00  0.00    +0.000 A 
ATOM     15  C   UNL     1       7.100   4.679  17.391  0.00  0.00    +0.000 A 
ATOM     16  C   UNL     1       5.793   4.413  17.797  0.00  0.00    +0.000 A 
ENDBRANCH  10  11
ENDBRANCH   3  10
BRANCH   5  17
ATOM     17  S   UNL     1       1.874   7.962  19.826  0.00  0.00    +0.000 S 
BRANCH  17  18
ATOM     18  C   UNL     1       1.195   8.022  21.511  0.00  0.00    +0.000 C 
BRANCH  18  19
ATOM     19  C   UNL     1       0.272   9.209  21.672  0.00  0.00    +0.000 A 
ATOM     20  C   UNL     1      -0.006  10.034  20.580  0.00  0.00    +0.000 A 
ATOM     21  C   UNL     1      -0.768  11.197  20.737  0.00  0.00    +0.000 A 
ATOM     22  C   UNL     1      -1.276  11.592  21.986  0.00  0.00    +0.000 A 
ATOM     23  C   UNL     1      -1.036  10.725  23.069  0.00  0.00    +0.000 A 
ATOM     24  C   UNL     1      -0.273   9.555  22.915  0.00  0.00    +0.000 A 
BRANCH  22  25
ATOM     25  C   UNL     1      -2.025  12.927  22.176  0.00  0.00    +0.000 C 
ATOM     26  C   UNL     1      -3.547  12.732  22.372  0.00  0.00    +0.000 C 
ATOM     27  C   UNL     1      -1.493  13.687  23.410  0.00  0.00    +0.000 C 
ATOM     28  C   UNL     1      -1.848  13.829  20.934  0.00  0.00    +0.000 C 
ENDBRANCH  22  25
ENDBRANCH  18  19
ENDBRANCH  17  18
ENDBRANCH   5  17
TORSDOF 6
ENDMDL
MODEL 3
REMARK VINA RESULT:      -8.3      2.360      4.378
REMARK  Name = 
REMARK  10 active torsions:
REMARK  status: ('A' for Active; 'I' for Inactive)
REMARK    1  A    between atoms: C_1  and  C_2
REMARK    2  A    between atoms: C_3  and  C_4
REMARK    3  A    between atoms: C_4  and  C_5
REMARK    4  A    between atoms: C_12  and  S_13
REMARK    5  A    between atoms: S_13  and  C_14
REMARK    6  A    between atoms: C_14  and  C_15
REMARK    7  A    between atoms: C_18  and  C_19
REMARK    8  A    between atoms: C_19  and  C_20
REMARK    9  A    between atoms: C_19  and  C_21
REMARK   10  A    between atoms: C_19  and  C_22
REMARK                            x       y       z     vdW  Elec       q    Type
REMARK                         _______ _______ _______ _____ _____    ______ ____
ROOT
ATOM      1  C   UNL     1       4.312   2.527  19.867  0.00  0.00    +0.000 C 
ATOM      2  C   UNL     1       3.732   3.896  19.677  0.00  0.00    +0.000 A 
ATOM      3  C   UNL     1       4.074   4.833  18.760  0.00  0.00    +0.000 A 
ATOM      4  N   UNL     1       3.510   6.096  18.711  0.00  0.00    +0.000 NA
ATOM      5  C   UNL     1       2.607   6.377  19.586  0.00  0.00    +0.000 A 
ATOM      6  N   UNL     1       2.172   5.520  20.544  0.00  0.00    +0.000 N 
ATOM      7  C   UNL     1       2.638   4.247  20.623  0.00  0.00    +0.000 A 
ATOM      8  O   UNL     1       2.173   3.440  21.424  0.00  0.00    +0.000 OA
ATOM      9  H   UNL     1       1.449   5.806  21.174  0.00  0.00    +0.000 HD
ENDROOT
BRANCH   3  10
ATOM     10  C   UNL     1       5.122   4.605  17.670  0.00  0.00    +0.000 C 
BRANCH  10  11
ATOM     11  C   UNL     1       6.311   5.528  17.849  0.00  0.00    +0.000 A 
ATOM     12  C   UNL     1       7.203   5.344  18.917  0.00  0.00    +0.000 A 
ATOM     13  C   UNL     1       8.172   6.307  19.203  0.00  0.00    +0.000 A 
ATOM     14  C   UNL     1       8.268   7.454  18.417  0.00  0.00    +0.000 A 
ATOM     15  C   UNL     1       7.433   7.613  17.313  0.00  0.00    +0.000 A 
ATOM     16  C   UNL     1       6.464   6.652  17.025  0.00  0.00    +0.000 A 
ENDBRANCH  10  11
ENDBRANCH   3  10
BRANCH   5  17
ATOM     17  S   UNL     1       1.836   7.924  19.699  0.00  0.00    +0.000 S 
BRANCH  17  18
ATOM     18  C   UNL     1       1.221   7.882  21.408  0.00  0.00    +0.000 C 
BRANCH  18  19
ATOM     19  C   UNL     1       0.489   9.164  21.744  0.00  0.00    +0.000 A 
ATOM     20  C   UNL     1      -0.218   9.274  22.942  0.00  0.00    +0.000 A 
ATOM     21  C   UNL     1      -0.989  10.408  23.217  0.00  0.00    +0.000 A 
ATOM     22  C   UNL     1      -1.095  11.474  22.308  0.00  0.00    +0.000 A 
ATOM     23  C   UNL     1      -0.335  11.377  21.128  0.00  0.00    +0.000 A 
ATOM     24  C   UNL     1       0.442  10.240  20.848  0.00  0.00    +0.000 A 
BRANCH  22  25
ATOM     25  C   UNL     1      -2.028  12.676  22.566  0.00  0.00    +0.000 C 
ATOM     26  C   UNL     1      -1.289  13.875  23.206  0.00  0.00    +0.000 C 
ATOM     27  C   UNL     1      -2.665  13.172  21.251  0.00  0.00    +0.000 C 
ATOM     28  C   UNL     1      -3.162  12.282  23.539  0.00  0.00    +0.000 C 
ENDBRANCH  22  25
ENDBRANCH  18  19
ENDBRANCH  17  18
ENDBRANCH   5  17
TORSDOF 6
ENDMDL
MODEL 4
REMARK VINA RESULT:      -8.1      0.749      1.704
REMARK  Name = 
REMARK  10 active torsions:
REMARK  status: ('A' for Active; 'I' for Inactive)
REMARK    1  A    between atoms: C_1  and  C_2
REMARK    2  A    between atoms: C_3  and  C_4
REMARK    3  A    between atoms: C_4  and  C_5
REMARK    4  A    between atoms: C_12  and  S_13
REMARK    5  A    between atoms: S_13  and  C_14
REMARK    6  A    between atoms: C_14  and  C_15
REMARK    7  A    between atoms: C_18  and  C_19
REMARK    8  A    between atoms: C_19  and  C_20
REMARK    9  A    between atoms: C_19  and  C_21
REMARK   10  A    between atoms: C_19  and  C_22
REMARK                            x       y       z     vdW  Elec       q    Type
REMARK                         _______ _______ _______ _____ _____    ______ ____
ROOT
ATOM      1  C   UNL     1       7.054   4.369  16.712  0.00  0.00    +0.000 C 
ATOM      2  C   UNL     1       5.850   5.186  17.075  0.00  0.00    +0.000 A 
ATOM      3  C   UNL     1       4.595   4.755  17.347  0.00  0.00    +0.000 A 
ATOM      4  N   UNL     1       3.536   5.606  17.614  0.00  0.00    +0.000 NA
ATOM      5  C   UNL     1       3.777   6.872  17.609  0.00  0.00    +0.000 A 
ATOM      6  N   UNL     1       4.992   7.422  17.364  0.00  0.00    +0.000 N 
ATOM      7  C   UNL     1       6.090   6.653  17.146  0.00  0.00    +0.000 A 
ATOM      8  O   UNL     1       7.209   7.146  17.025  0.00  0.00    +0.000 OA
ATOM      9  H   UNL     1       5.104   8.417  17.401  0.00  0.00    +0.000 HD
ENDROOT
BRANCH   3  10
ATOM     10  C   UNL     1       4.199   3.279  17.391  0.00  0.00    +0.000 C 
BRANCH  10  11
ATOM     11  C   UNL     1       3.190   3.013  18.492  0.00  0.00    +0.000 A 
ATOM     12  C   UNL     1       1.871   2.648  18.178  0.00  0.00    +0.000 A 
ATOM     13  C   UNL     1       0.894   2.604  19.174  0.00  0.00    +0.000 A 
ATOM     14  C   UNL     1       1.227   2.912  20.491  0.00  0.00    +0.000 A 
ATOM     15  C   UNL     1       2.547   3.209  20.824  0.00  0.00    +0.000 A 
ATOM     16  C   UNL     1       3.526   3.252  19.832  0.00  0.00    +0.000 A 
ENDBRANCH  10  11
ENDBRANCH   3  10
BRANCH   5  17
ATOM     17  S   UNL     1       2.559   8.075  17.873  0.00  0.00    +0.000 S 
BRANCH  17  18
ATOM     18  C   UNL     1       2.054   7.692  19.576  0.00  0.00    +0.000 C 
BRANCH  18  19
ATOM     19  C   UNL     1       1.319   8.863  20.191  0.00  0.00    +0.000 A 
ATOM     20  C   UNL     1       0.994   8.851  21.549  0.00  0.00    +0.000 A 
ATOM     21  C   UNL     1       0.220   9.873  22.109  0.00  0.00    +0.000 A 
ATOM     22  C   UNL     1      -0.271  10.942  21.340  0.00  0.00    +0.000 A 
ATOM     23  C   UNL     1       0.108  10.972  19.985  0.00  0.00    +0.000 A 
ATOM     24  C   UNL     1       0.887   9.949  19.419  0.00  0.00    +0.000 A 
BRANCH  22  25
ATOM     25  C   UNL     1      -1.211  12.011  21.936  0.00  0.00    +0.000 C 
ATOM     26  C   UNL     1      -0.467  13.314  22.311  0.00  0.00    +0.000 C 
ATOM     27  C   UNL     1      -2.324  12.385  20.934  0.00  0.00    +0.000 C 
ATOM     28  C   UNL     1      -1.874  11.488  23.230  0.00  0.00    +0.000 C 
ENDBRANCH  22  25
ENDBRANCH  18  19
ENDBRANCH  17  18
ENDBRANCH   5  17
TORSDOF 6
ENDMDL
MODEL 5
REMARK VINA RESULT:      -8.1      0.981      1.688
REMARK  Name = 
REMARK  10 active torsions:
REMARK  status: ('A' for Active; 'I' for Inactive)
REMARK    1  A    between atoms: C_1  and  C_2
REMARK    2  A    between atoms: C_3  and  C_4
REMARK    3  A    between atoms: C_4  and  C_5
REMARK    4  A    between atoms: C_12  and  S_13
REMARK    5  A    between atoms: S_13  and  C_14
REMARK    6  A    between atoms: C_14  and  C_15
REMARK    7  A    between atoms: C_18  and  C_19
REMARK    8  A    between atoms: C_19  and  C_20
REMARK    9  A    between atoms: C_19  and  C_21
REMARK   10  A    between atoms: C_19  and  C_22
REMARK                            x       y       z     vdW  Elec       q    Type
REMARK                         _______ _______ _______ _____ _____    ______ ____
ROOT
ATOM      1  C   UNL     1       5.368   4.169  16.749  0.00  0.00    +0.000 C 
ATOM      2  C   UNL     1       4.404   5.200  17.256  0.00  0.00    +0.000 A 
ATOM      3  C   UNL     1       3.111   5.031  17.620  0.00  0.00    +0.000 A 
ATOM      4  N   UNL     1       2.287   6.070  18.020  0.00  0.00    +0.000 NA
ATOM      5  C   UNL     1       2.797   7.253  18.050  0.00  0.00    +0.000 A 
ATOM      6  N   UNL     1       4.080   7.545  17.721  0.00  0.00    +0.000 N 
ATOM      7  C   UNL     1       4.963   6.574  17.370  0.00  0.00    +0.000 A 
ATOM      8  O   UNL     1       6.149   6.823  17.170  0.00  0.00    +0.000 OA
ATOM      9  H   UNL     1       4.409   8.488  17.791  0.00  0.00    +0.000 HD
ENDROOT
BRANCH   3  10
ATOM     10  C   UNL     1       2.407   3.673  17.635  0.00  0.00    +0.000 C 
BRANCH  10  11
ATOM     11  C   UNL     1       2.276   3.137  19.047  0.00  0.00    +0.000 A 
ATOM     12  C   UNL     1       1.047   3.195  19.722  0.00  0.00    +0.000 A 
ATOM     13  C   UNL     1       0.973   2.894  21.083  0.00  0.00    +0.000 A 
ATOM     14  C   UNL     1       2.121   2.520  21.778  0.00  0.00    +0.000 A 
ATOM     15  C   UNL     1       3.333   2.393  21.102  0.00  0.00    +0.000 A 
ATOM     16  C   UNL     1       3.409   2.692  19.742  0.00  0.00    +0.000 A 
ENDBRANCH  10  11
ENDBRANCH   3  10
BRANCH   5  17
ATOM     17  S   UNL     1       1.896   8.669  18.476  0.00  0.00    +0.000 S 
BRANCH  17  18
ATOM     18  C   UNL     1       1.398   8.266  20.177  0.00  0.00    +0.000 C 
BRANCH  18  19
ATOM     19  C   UNL     1       0.638   9.418  20.798  0.00  0.00    +0.000 A 
ATOM     20  C   UNL     1       0.222   9.347  22.129  0.00  0.00    +0.000 A 
ATOM     21  C   UNL     1      -0.575  10.354  22.684  0.00  0.00    +0.000 A 
ATOM     22  C   UNL     1      -0.999  11.465  21.937  0.00  0.00    +0.000 A 
ATOM     23  C   UNL     1      -0.529  11.554  20.613  0.00  0.00    +0.000 A 
ATOM     24  C   UNL     1       0.273  10.546  20.052  0.00  0.00    +0.000 A 
BRANCH  22  25
ATOM     25  C   UNL     1      -1.963  12.519  22.520  0.00  0.00    +0.000 C 
ATOM     26  C   UNL     1      -2.905  13.120  21.449  0.00  0.00    +0.000 C 
ATOM     27  C   UNL     1      -2.850  11.905  23.624  0.00  0.00    +0.000 C 
ATOM     28  C   UNL     1      -1.172  13.699  23.129  0.00  0.00    +0.000 C 
ENDBRANCH  22  25
ENDBRANCH  18  19
ENDBRANCH  17  18
ENDBRANCH   5  17
TORSDOF 6
ENDMDL
MODEL 6
REMARK VINA RESULT:      -8.1      2.509      5.483
REMARK  Name = 
REMARK  10 active torsions:
REMARK  status: ('A' for Active; 'I' for Inactive)
REMARK    1  A    between atoms: C_1  and  C_2
REMARK    2  A    between atoms: C_3  and  C_4
REMARK    3  A    between atoms: C_4  and  C_5
REMARK    4  A    between atoms: C_12  and  S_13
REMARK    5  A    between atoms: S_13  and  C_14
REMARK    6  A    between atoms: C_14  and  C_15
REMARK    7  A    between atoms: C_18  and  C_19
REMARK    8  A    between atoms: C_19  and  C_20
REMARK    9  A    between atoms: C_19  and  C_21
REMARK   10  A    between atoms: C_19  and  C_22
REMARK                            x       y       z     vdW  Elec       q    Type
REMARK                         _______ _______ _______ _____ _____    ______ ____
ROOT
ATOM      1  C   UNL     1       7.717   7.119  17.500  0.00  0.00    +0.000 C 
ATOM      2  C   UNL     1       6.742   6.000  17.719  0.00  0.00    +0.000 A 
ATOM      3  C   UNL     1       5.771   5.558  16.884  0.00  0.00    +0.000 A 
ATOM      4  N   UNL     1       4.882   4.550  17.214  0.00  0.00    +0.000 NA
ATOM      5  C   UNL     1       5.004   4.007  18.376  0.00  0.00    +0.000 A 
ATOM      6  N   UNL     1       5.943   4.355  19.291  0.00  0.00    +0.000 N 
ATOM      7  C   UNL     1       6.883   5.297  19.023  0.00  0.00    +0.000 A 
ATOM      8  O   UNL     1       7.794   5.541  19.810  0.00  0.00    +0.000 OA
ATOM      9  H   UNL     1       5.988   3.869  20.166  0.00  0.00    +0.000 HD
ENDROOT
BRANCH   3  10
ATOM     10  C   UNL     1       5.543   6.119  15.480  0.00  0.00    +0.000 C 
BRANCH  10  11
ATOM     11  C   UNL     1       6.102   5.191  14.420  0.00  0.00    +0.000 A 
ATOM     12  C   UNL     1       7.377   5.416  13.876  0.00  0.00    +0.000 A 
ATOM     13  C   UNL     1       7.808   4.692  12.763  0.00  0.00    +0.000 A 
ATOM     14  C   UNL     1       6.977   3.730  12.192  0.00  0.00    +0.000 A 
ATOM     15  C   UNL     1       5.738   3.452  12.766  0.00  0.00    +0.000 A 
ATOM     16  C   UNL     1       5.306   4.173  13.879  0.00  0.00    +0.000 A 
ENDBRANCH  10  11
ENDBRANCH   3  10
BRANCH   5  17
ATOM     17  S   UNL     1       3.945   2.770  18.967  0.00  0.00    +0.000 S 
BRANCH  17  18
ATOM     18  C   UNL     1       2.324   3.450  18.506  0.00  0.00    +0.000 C 
BRANCH  18  19
ATOM     19  C   UNL     1       2.094   4.785  19.180  0.00  0.00    +0.000 A 
ATOM     20  C   UNL     1       1.601   4.835  20.486  0.00  0.00    +0.000 A 
ATOM     21  C   UNL     1       1.279   6.058  21.083  0.00  0.00    +0.000 A 
ATOM     22  C   UNL     1       1.424   7.279  20.403  0.00  0.00    +0.000 A 
ATOM     23  C   UNL     1       1.972   7.222  19.108  0.00  0.00    +0.000 A 
ATOM     24  C   UNL     1       2.298   5.995  18.505  0.00  0.00    +0.000 A 
BRANCH  22  25
ATOM     25  C   UNL     1       0.970   8.617  21.025  0.00  0.00    +0.000 C 
ATOM     26  C   UNL     1       1.917   9.103  22.148  0.00  0.00    +0.000 C 
ATOM     27  C   UNL     1       0.910   9.729  19.956  0.00  0.00    +0.000 C 
ATOM     28  C   UNL     1      -0.433   8.471  21.657  0.00  0.00    +0.000 C 
ENDBRANCH  22  25
ENDBRANCH  18  19
ENDBRANCH  17  18
ENDBRANCH   5  17
TORSDOF 6
ENDMDL
MODEL 7
REMARK VINA RESULT:      -8.1      2.066      4.054
REMARK  Name = 
REMARK  10 active torsions:
REMARK  status: ('A' for Active; 'I' for Inactive)
REMARK    1  A    between atoms: C_1  and  C_2
REMARK    2  A    between atoms: C_3  and  C_4
REMARK    3  A    between atoms: C_4  and  C_5
REMARK    4  A    between atoms: C_12  and  S_13
REMARK    5  A    between atoms: S_13  and  C_14
REMARK    6  A    between atoms: C_14  and  C_15
REMARK    7  A    between atoms: C_18  and  C_19
REMARK    8  A    between atoms: C_19  and  C_20
REMARK    9  A    between atoms: C_19  and  C_21
REMARK   10  A    between atoms: C_19  and  C_22
REMARK                            x       y       z     vdW  Elec       q    Type
REMARK                         _______ _______ _______ _____ _____    ______ ____
ROOT
ATOM      1  C   UNL     1       3.457   2.009  19.216  0.00  0.00    +0.000 C 
ATOM      2  C   UNL     1       3.087   3.462  19.215  0.00  0.00    +0.000 A 
ATOM      3  C   UNL     1       3.088   4.327  18.173  0.00  0.00    +0.000 A 
ATOM      4  N   UNL     1       2.783   5.672  18.296  0.00  0.00    +0.000 NA
ATOM      5  C   UNL     1       2.475   6.105  19.470  0.00  0.00    +0.000 A 
ATOM      6  N   UNL     1       2.427   5.335  20.586  0.00  0.00    +0.000 N 
ATOM      7  C   UNL     1       2.661   3.998  20.537  0.00  0.00    +0.000 A 
ATOM      8  O   UNL     1       2.519   3.282  21.525  0.00  0.00    +0.000 OA
ATOM      9  H   UNL     1       2.156   5.741  21.460  0.00  0.00    +0.000 HD
ENDROOT
BRANCH   3  10
ATOM     10  C   UNL     1       3.424   3.922  16.738  0.00  0.00    +0.000 C 
BRANCH  10  11
ATOM     11  C   UNL     1       4.889   4.160  16.429  0.00  0.00    +0.000 A 
ATOM     12  C   UNL     1       5.826   4.287  17.466  0.00  0.00    +0.000 A 
ATOM     13  C   UNL     1       7.129   4.708  17.195  0.00  0.00    +0.000 A 
ATOM     14  C   UNL     1       7.511   4.993  15.885  0.00  0.00    +0.000 A 
ATOM     15  C   UNL     1       6.608   4.805  14.841  0.00  0.00    +0.000 A 
ATOM     16  C   UNL     1       5.307   4.383  15.109  0.00  0.00    +0.000 A 
ENDBRANCH  10  11
ENDBRANCH   3  10
BRANCH   5  17
ATOM     17  S   UNL     1       2.116   7.765  19.811  0.00  0.00    +0.000 S 
BRANCH  17  18
ATOM     18  C   UNL     1       1.012   7.596  21.245  0.00  0.00    +0.000 C 
BRANCH  18  19
ATOM     19  C   UNL     1       0.371   8.924  21.584  0.00  0.00    +0.000 A 
ATOM     20  C   UNL     1      -0.077   9.174  22.883  0.00  0.00    +0.000 A 
ATOM     21  C   UNL     1      -0.770  10.351  23.187  0.00  0.00    +0.000 A 
ATOM     22  C   UNL     1      -1.054  11.321  22.211  0.00  0.00    +0.000 A 
ATOM     23  C   UNL     1      -0.550  11.084  20.918  0.00  0.00    +0.000 A 
ATOM     24  C   UNL     1       0.147   9.904  20.609  0.00  0.00    +0.000 A 
BRANCH  22  25
ATOM     25  C   UNL     1      -1.908  12.567  22.525  0.00  0.00    +0.000 C 
ATOM     26  C   UNL     1      -2.499  13.219  21.252  0.00  0.00    +0.000 C 
ATOM     27  C   UNL     1      -3.089  12.206  23.451  0.00  0.00    +0.000 C 
ATOM     28  C   UNL     1      -1.053  13.648  23.223  0.00  0.00    +0.000 C 
ENDBRANCH  22  25
ENDBRANCH  18  19
ENDBRANCH  17  18
ENDBRANCH   5  17
TORSDOF 6
ENDMDL
MODEL 8
REMARK VINA RESULT:      -8.0      5.439      6.750
REMARK  Name = 
REMARK  10 active torsions:
REMARK  status: ('A' for Active; 'I' for Inactive)
REMARK    1  A    between atoms: C_1  and  C_2
REMARK    2  A    between atoms: C_3  and  C_4
REMARK    3  A    between atoms: C_4  and  C_5
REMARK    4  A    between atoms: C_12  and  S_13
REMARK    5  A    between atoms: S_13  and  C_14
REMARK    6  A    between atoms: C_14  and  C_15
REMARK    7  A    between atoms: C_18  and  C_19
REMARK    8  A    between atoms: C_19  and  C_20
REMARK    9  A    between atoms: C_19  and  C_21
REMARK   10  A    between atoms: C_19  and  C_22
REMARK                            x       y       z     vdW  Elec       q    Type
REMARK                         _______ _______ _______ _____ _____    ______ ____
ROOT
ATOM      1  C   UNL     1       3.923   4.112  16.373  0.00  0.00    +0.000 C 
ATOM      2  C   UNL     1       5.047   4.829  17.059  0.00  0.00    +0.000 A 
ATOM      3  C   UNL     1       5.506   4.657  18.321  0.00  0.00    +0.000 A 
ATOM      4  N   UNL     1       6.519   5.420  18.878  0.00  0.00    +0.000 NA
ATOM      5  C   UNL     1       7.048   6.333  18.138  0.00  0.00    +0.000 A 
ATOM      6  N   UNL     1       6.682   6.592  16.858  0.00  0.00    +0.000 N 
ATOM      7  C   UNL     1       5.735   5.852  16.225  0.00  0.00    +0.000 A 
ATOM      8  O   UNL     1       5.475   6.018  15.036  0.00  0.00    +0.000 OA
ATOM      9  H   UNL     1       7.158   7.305  16.340  0.00  0.00    +0.000 HD
ENDROOT
BRANCH   3  10
ATOM     10  C   UNL     1       4.962   3.598  19.281  0.00  0.00    +0.000 C 
BRANCH  10  11
ATOM     11  C   UNL     1       3.495   3.830  19.582  0.00  0.00    +0.000 A 
ATOM     12  C   UNL     1       3.043   5.092  20.000  0.00  0.00    +0.000 A 
ATOM     13  C   UNL     1       1.739   5.256  20.472  0.00  0.00    +0.000 A 
ATOM     14  C   UNL     1       0.873   4.166  20.518  0.00  0.00    +0.000 A 
ATOM     15  C   UNL     1       1.290   2.924  20.041  0.00  0.00    +0.000 A 
ATOM     16  C   UNL     1       2.591   2.759  19.568  0.00  0.00    +0.000 A 
ENDBRANCH  10  11
ENDBRANCH   3  10
BRANCH   5  17
ATOM     17  S   UNL     1       8.287   7.409  18.691  0.00  0.00    +0.000 S 
BRANCH  17  18
ATOM     18  C   UNL     1       8.044   8.823  17.575  0.00  0.00    +0.000 C 
BRANCH  18  19
ATOM     19  C   UNL     1       8.516  10.104  18.227  0.00  0.00    +0.000 A 
ATOM     20  C   UNL     1       8.320  11.329  17.586  0.00  0.00    +0.000 A 
ATOM     21  C   UNL     1       8.847  12.509  18.122  0.00  0.00    +0.000 A 
ATOM     22  C   UNL     1       9.597  12.518  19.310  0.00  0.00    +0.000 A 
ATOM     23  C   UNL     1       9.742  11.286  19.976  0.00  0.00    +0.000 A 
ATOM     24  C   UNL     1       9.212  10.099  19.442  0.00  0.00    +0.000 A 
BRANCH  22  25
ATOM     25  C   UNL     1      10.266  13.802  19.843  0.00  0.00    +0.000 C 
ATOM     26  C   UNL     1       9.568  15.088  19.341  0.00  0.00    +0.000 C 
ATOM     27  C   UNL     1      10.244  13.836  21.386  0.00  0.00    +0.000 C 
ATOM     28  C   UNL     1      11.736  13.882  19.374  0.00  0.00    +0.000 C 
ENDBRANCH  22  25
ENDBRANCH  18  19
ENDBRANCH  17  18
ENDBRANCH   5  17
TORSDOF 6
ENDMDL
MODEL 9
REMARK VINA RESULT:      -7.9      2.356      4.129
REMARK  Name = 
REMARK  10 active torsions:
REMARK  status: ('A' for Active; 'I' for Inactive)
REMARK    1  A    between atoms: C_1  and  C_2
REMARK    2  A    between atoms: C_3  and  C_4
REMARK    3  A    between atoms: C_4  and  C_5
REMARK    4  A    between atoms: C_12  and  S_13
REMARK    5  A    between atoms: S_13  and  C_14
REMARK    6  A    between atoms: C_14  and  C_15
REMARK    7  A    between atoms: C_18  and  C_19
REMARK    8  A    between atoms: C_19  and  C_20
REMARK    9  A    between atoms: C_19  and  C_21
REMARK   10  A    between atoms: C_19  and  C_22
REMARK                            x       y       z     vdW  Elec       q    Type
REMARK                         _______ _______ _______ _____ _____    ______ ____
ROOT
ATOM      1  C   UNL     1       3.090   2.616  17.590  0.00  0.00    +0.000 C 
ATOM      2  C   UNL     1       2.697   3.816  18.400  0.00  0.00    +0.000 A 
ATOM      3  C   UNL     1       3.132   5.092  18.274  0.00  0.00    +0.000 A 
ATOM      4  N   UNL     1       2.746   6.119  19.119  0.00  0.00    +0.000 NA
ATOM      5  C   UNL     1       1.921   5.828  20.066  0.00  0.00    +0.000 A 
ATOM      6  N   UNL     1       1.407   4.592  20.285  0.00  0.00    +0.000 N 
ATOM      7  C   UNL     1       1.696   3.547  19.468  0.00  0.00    +0.000 A 
ATOM      8  O   UNL     1       1.153   2.453  19.604  0.00  0.00    +0.000 OA
ATOM      9  H   UNL     1       0.752   4.451  21.029  0.00  0.00    +0.000 HD
ENDROOT
BRANCH   3  10
ATOM     10  C   UNL     1       4.100   5.552  17.182  0.00  0.00    +0.000 C 
BRANCH  10  11
ATOM     11  C   UNL     1       5.421   6.002  17.773  0.00  0.00    +0.000 A 
ATOM     12  C   UNL     1       6.165   7.024  17.162  0.00  0.00    +0.000 A 
ATOM     13  C   UNL     1       7.468   7.298  17.582  0.00  0.00    +0.000 A 
ATOM     14  C   UNL     1       8.034   6.564  18.622  0.00  0.00    +0.000 A 
ATOM     15  C   UNL     1       7.280   5.594  19.280  0.00  0.00    +0.000 A 
ATOM     16  C   UNL     1       5.978   5.320  18.864  0.00  0.00    +0.000 A 
ENDBRANCH  10  11
ENDBRANCH   3  10
BRANCH   5  17
ATOM     17  S   UNL     1       1.375   6.978  21.241  0.00  0.00    +0.000 S 
BRANCH  17  18
ATOM     18  C   UNL     1       1.363   8.505  20.255  0.00  0.00    +0.000 C 
BRANCH  18  19
ATOM     19  C   UNL     1       0.393   9.509  20.839  0.00  0.00    +0.000 A 
ATOM     20  C   UNL     1      -0.208  10.462  20.016  0.00  0.00    +0.000 A 
ATOM     21  C   UNL     1      -1.020  11.465  20.557  0.00  0.00    +0.000 A 
ATOM     22  C   UNL     1      -1.258  11.567  21.938  0.00  0.00    +0.000 A 
ATOM     23  C   UNL     1      -0.691  10.569  22.752  0.00  0.00    +0.000 A 
ATOM     24  C   UNL     1       0.124   9.559  22.213  0.00  0.00    +0.000 A 
BRANCH  22  25
ATOM     25  C   UNL     1      -2.066  12.734  22.542  0.00  0.00    +0.000 C 
ATOM     26  C   UNL     1      -3.149  12.255  23.538  0.00  0.00    +0.000 C 
ATOM     27  C   UNL     1      -1.141  13.711  23.299  0.00  0.00    +0.000 C 
ATOM     28  C   UNL     1      -2.799  13.518  21.430  0.00  0.00    +0.000 C 
ENDBRANCH  22  25
ENDBRANCH  18  19
ENDBRANCH  17  18
ENDBRANCH   5  17
TORSDOF 6
ENDMDL
