MODEL 1
REMARK VINA RESULT:      -6.8      0.000      0.000
REMARK  Name = 
REMARK  3 active torsions:
REMARK  status: ('A' for Active; 'I' for Inactive)
REMARK    1  A    between atoms: C_1  and  C_2
REMARK    2  A    between atoms: C_2  and  O_3
REMARK    3  A    between atoms: O_3  and  C_4
REMARK                            x       y       z     vdW  Elec       q    Type
REMARK                         _______ _______ _______ _____ _____    ______ ____
ROOT
ATOM      1  C   UNL     1       6.825   5.223  18.710  0.00  0.00    +0.000 C 
ATOM      2  O   UNL     1       6.785   5.173  19.937  0.00  0.00    +0.000 OA
ATOM      3  N   UNL     1       5.878   4.678  17.864  0.00  0.00    +0.000 N 
ATOM      4  C   UNL     1       5.937   4.583  16.440  0.00  0.00    +0.000 A 
ATOM      5  O   UNL     1       6.833   4.889  15.670  0.00  0.00    +0.000 OA
ATOM      6  N   UNL     1       4.715   4.026  16.024  0.00  0.00    +0.000 N 
ATOM      7  C   UNL     1       3.919   3.790  17.132  0.00  0.00    +0.000 A 
ATOM      8  C   UNL     1       2.638   3.287  17.172  0.00  0.00    +0.000 A 
ATOM      9  C   UNL     1       2.039   3.188  18.430  0.00  0.00    +0.000 A 
ATOM     10  C   UNL     1       2.733   3.594  19.588  0.00  0.00    +0.000 A 
ATOM     11 BR   UNL     1       1.869   3.472  21.269  0.00  0.00    +0.000 Br
ATOM     12  C   UNL     1       4.037   4.095  19.523  0.00  0.00    +0.000 A 
ATOM     13  C   UNL     1       4.620   4.182  18.273  0.00  0.00    +0.000 A 
ATOM     14  H   UNL     1       4.486   3.859  15.056  0.00  0.00    +0.000 HD
ENDROOT
BRANCH   1  15
ATOM     15  O   UNL     1       7.791   5.904  18.032  0.00  0.00    +0.000 OA
BRANCH  15  17
ATOM     16  C   UNL     1       7.721   8.254  17.545  0.00  0.00    +0.000 C 
ATOM     17  C   UNL     1       8.134   7.194  18.553  0.00  0.00    +0.000 C 
ENDBRANCH  15  17
ENDBRANCH   1  15
TORSDOF 2
ENDMDL
MODEL 2
REMARK VINA RESULT:      -6.5      3.323      5.610
REMARK  Name = 
REMARK  3 active torsions:
REMARK  status: ('A' for Active; 'I' for Inactive)
REMARK    1  A    between atoms: C_1  and  C_2
REMARK    2  A    between atoms: C_2  and  O_3
REMARK    3  A    between atoms: O_3  and  C_4
REMARK                            x       y       z     vdW  Elec       q    Type
REMARK                         _______ _______ _______ _____ _____    ______ ____
ROOT
ATOM      1  C   UNL     1       2.595   3.829  17.690  0.00  0.00    +0.000 C 
ATOM      2  O   UNL     1       2.281   3.118  16.738  0.00  0.00    +0.000 OA
ATOM      3  N   UNL     1       3.832   4.419  17.865  0.00  0.00    +0.000 N 
ATOM      4  C   UNL     1       4.298   5.138  19.007  0.00  0.00    +0.000 A 
ATOM      5  O   UNL     1       3.759   5.335  20.084  0.00  0.00    +0.000 OA
ATOM      6  N   UNL     1       5.582   5.612  18.686  0.00  0.00    +0.000 N 
ATOM      7  C   UNL     1       5.907   5.219  17.399  0.00  0.00    +0.000 A 
ATOM      8  C   UNL     1       7.049   5.496  16.683  0.00  0.00    +0.000 A 
ATOM      9  C   UNL     1       7.107   5.012  15.374  0.00  0.00    +0.000 A 
ATOM     10  C   UNL     1       6.031   4.277  14.834  0.00  0.00    +0.000 A 
ATOM     11 BR   UNL     1       6.140   3.667  13.045  0.00  0.00    +0.000 Br
ATOM     12  C   UNL     1       4.883   4.000  15.584  0.00  0.00    +0.000 A 
ATOM     13  C   UNL     1       4.842   4.481  16.879  0.00  0.00    +0.000 A 
ATOM     14  H   UNL     1       6.141   6.165  19.318  0.00  0.00    +0.000 HD
ENDROOT
BRANCH   1  15
ATOM     15  O   UNL     1       1.712   4.186  18.664  0.00  0.00    +0.000 OA
BRANCH  15  17
ATOM     16  C   UNL     1       1.134   3.246  20.796  0.00  0.00    +0.000 C 
ATOM     17  C   UNL     1       0.996   3.112  19.289  0.00  0.00    +0.000 C 
ENDBRANCH  15  17
ENDBRANCH   1  15
TORSDOF 2
ENDMDL
MODEL 3
REMARK VINA RESULT:      -6.4      3.293      5.125
REMARK  Name = 
REMARK  3 active torsions:
REMARK  status: ('A' for Active; 'I' for Inactive)
REMARK    1  A    between atoms: C_1  and  C_2
REMARK    2  A    between atoms: C_2  and  O_3
REMARK    3  A    between atoms: O_3  and  C_4
REMARK                            x       y       z     vdW  Elec       q    Type
REMARK                         _______ _______ _______ _____ _____    ______ ____
ROOT
ATOM      1  C   UNL     1       2.745   5.225  19.294  0.00  0.00    +0.000 C 
ATOM      2  O   UNL     1       2.904   6.399  19.619  0.00  0.00    +0.000 OA
ATOM      3  N   UNL     1       3.503   4.553  18.355  0.00  0.00    +0.000 N 
ATOM      4  C   UNL     1       3.283   3.240  17.838  0.00  0.00    +0.000 A 
ATOM      5  O   UNL     1       2.369   2.458  18.046  0.00  0.00    +0.000 OA
ATOM      6  N   UNL     1       4.354   2.965  16.971  0.00  0.00    +0.000 N 
ATOM      7  C   UNL     1       5.216   4.049  16.949  0.00  0.00    +0.000 A 
ATOM      8  C   UNL     1       6.401   4.186  16.263  0.00  0.00    +0.000 A 
ATOM      9  C   UNL     1       7.105   5.377  16.451  0.00  0.00    +0.000 A 
ATOM     10  C   UNL     1       6.606   6.376  17.312  0.00  0.00    +0.000 A 
ATOM     11 BR   UNL     1       7.611   7.961  17.562  0.00  0.00    +0.000 Br
ATOM     12  C   UNL     1       5.395   6.218  17.993  0.00  0.00    +0.000 A 
ATOM     13  C   UNL     1       4.705   5.037  17.793  0.00  0.00    +0.000 A 
ATOM     14  H   UNL     1       4.454   2.093  16.475  0.00  0.00    +0.000 HD
ENDROOT
BRANCH   1  15
ATOM     15  O   UNL     1       1.830   4.413  19.894  0.00  0.00    +0.000 OA
BRANCH  15  17
ATOM     16  C   UNL     1       1.544   2.679  21.529  0.00  0.00    +0.000 C 
ATOM     17  C   UNL     1       2.094   4.069  21.261  0.00  0.00    +0.000 C 
ENDBRANCH  15  17
ENDBRANCH   1  15
TORSDOF 2
ENDMDL
MODEL 4
REMARK VINA RESULT:      -6.3      3.761      5.596
REMARK  Name = 
REMARK  3 active torsions:
REMARK  status: ('A' for Active; 'I' for Inactive)
REMARK    1  A    between atoms: C_1  and  C_2
REMARK    2  A    between atoms: C_2  and  O_3
REMARK    3  A    between atoms: O_3  and  C_4
REMARK                            x       y       z     vdW  Elec       q    Type
REMARK                         _______ _______ _______ _____ _____    ______ ____
ROOT
ATOM      1  C   UNL     1       2.353   3.354  18.831  0.00  0.00    +0.000 C 
ATOM      2  O   UNL     1       2.788   2.335  18.300  0.00  0.00    +0.000 OA
ATOM      3  N   UNL     1       2.850   4.627  18.628  0.00  0.00    +0.000 N 
ATOM      4  C   UNL     1       2.481   5.824  19.314  0.00  0.00    +0.000 A 
ATOM      5  O   UNL     1       1.717   5.986  20.252  0.00  0.00    +0.000 OA
ATOM      6  N   UNL     1       3.198   6.871  18.710  0.00  0.00    +0.000 N 
ATOM      7  C   UNL     1       3.976   6.360  17.684  0.00  0.00    +0.000 A 
ATOM      8  C   UNL     1       4.801   7.040  16.818  0.00  0.00    +0.000 A 
ATOM      9  C   UNL     1       5.445   6.285  15.835  0.00  0.00    +0.000 A 
ATOM     10  C   UNL     1       5.241   4.892  15.754  0.00  0.00    +0.000 A 
ATOM     11 BR   UNL     1       6.109   3.912  14.386  0.00  0.00    +0.000 Br
ATOM     12  C   UNL     1       4.403   4.221  16.652  0.00  0.00    +0.000 A 
ATOM     13  C   UNL     1       3.776   4.980  17.622  0.00  0.00    +0.000 A 
ATOM     14  H   UNL     1       3.116   7.834  18.996  0.00  0.00    +0.000 HD
ENDROOT
BRANCH   1  15
ATOM     15  O   UNL     1       1.256   3.352  19.639  0.00  0.00    +0.000 OA
BRANCH  15  17
ATOM     16  C   UNL     1       2.310   2.946  21.758  0.00  0.00    +0.000 C 
ATOM     17  C   UNL     1       1.293   2.443  20.747  0.00  0.00    +0.000 C 
ENDBRANCH  15  17
ENDBRANCH   1  15
TORSDOF 2
ENDMDL
MODEL 5
REMARK VINA RESULT:      -6.1      3.609      5.475
REMARK  Name = 
REMARK  3 active torsions:
REMARK  status: ('A' for Active; 'I' for Inactive)
REMARK    1  A    between atoms: C_1  and  C_2
REMARK    2  A    between atoms: C_2  and  O_3
REMARK    3  A    between atoms: O_3  and  C_4
REMARK                            x       y       z     vdW  Elec       q    Type
REMARK                         _______ _______ _______ _____ _____    ______ ____
ROOT
ATOM      1  C   UNL     1       3.467   2.744  18.993  0.00  0.00    +0.000 C 
ATOM      2  O   UNL     1       3.979   1.822  18.361  0.00  0.00    +0.000 OA
ATOM      3  N   UNL     1       3.671   4.087  18.739  0.00  0.00    +0.000 N 
ATOM      4  C   UNL     1       3.219   5.196  19.516  0.00  0.00    +0.000 A 
ATOM      5  O   UNL     1       2.627   5.218  20.583  0.00  0.00    +0.000 OA
ATOM      6  N   UNL     1       3.602   6.356  18.820  0.00  0.00    +0.000 N 
ATOM      7  C   UNL     1       4.256   5.995  17.654  0.00  0.00    +0.000 A 
ATOM      8  C   UNL     1       4.763   6.814  16.670  0.00  0.00    +0.000 A 
ATOM      9  C   UNL     1       5.342   6.187  15.564  0.00  0.00    +0.000 A 
ATOM     10  C   UNL     1       5.390   4.780  15.482  0.00  0.00    +0.000 A 
ATOM     11 BR   UNL     1       6.156   3.973  13.950  0.00  0.00    +0.000 Br
ATOM     12  C   UNL     1       4.875   3.968  16.499  0.00  0.00    +0.000 A 
ATOM     13  C   UNL     1       4.310   4.602  17.590  0.00  0.00    +0.000 A 
ATOM     14  H   UNL     1       3.396   7.288  19.145  0.00  0.00    +0.000 HD
ENDROOT
BRANCH   1  15
ATOM     15  O   UNL     1       2.561   2.540  19.990  0.00  0.00    +0.000 OA
BRANCH  15  17
ATOM     16  C   UNL     1       0.494   2.747  18.787  0.00  0.00    +0.000 C 
ATOM     17  C   UNL     1       1.371   1.830  19.622  0.00  0.00    +0.000 C 
ENDBRANCH  15  17
ENDBRANCH   1  15
TORSDOF 2
ENDMDL
MODEL 6
REMARK VINA RESULT:      -6.0      2.301      3.259
REMARK  Name = 
REMARK  3 active torsions:
REMARK  status: ('A' for Active; 'I' for Inactive)
REMARK    1  A    between atoms: C_1  and  C_2
REMARK    2  A    between atoms: C_2  and  O_3
REMARK    3  A    between atoms: O_3  and  C_4
REMARK                            x       y       z     vdW  Elec       q    Type
REMARK                         _______ _______ _______ _____ _____    ______ ____
ROOT
ATOM      1  C   UNL     1       5.039   4.051  16.737  0.00  0.00    +0.000 C 
ATOM      2  O   UNL     1       4.758   2.887  17.015  0.00  0.00    +0.000 OA
ATOM      3  N   UNL     1       4.412   5.164  17.263  0.00  0.00    +0.000 N 
ATOM      4  C   UNL     1       4.598   6.527  16.882  0.00  0.00    +0.000 A 
ATOM      5  O   UNL     1       5.279   7.006  15.989  0.00  0.00    +0.000 OA
ATOM      6  N   UNL     1       3.804   7.299  17.748  0.00  0.00    +0.000 N 
ATOM      7  C   UNL     1       3.156   6.462  18.641  0.00  0.00    +0.000 A 
ATOM      8  C   UNL     1       2.313   6.804  19.675  0.00  0.00    +0.000 A 
ATOM      9  C   UNL     1       1.823   5.758  20.460  0.00  0.00    +0.000 A 
ATOM     10  C   UNL     1       2.190   4.424  20.189  0.00  0.00    +0.000 A 
ATOM     11 BR   UNL     1       1.527   3.043  21.301  0.00  0.00    +0.000 Br
ATOM     12  C   UNL     1       3.043   4.101  19.128  0.00  0.00    +0.000 A 
ATOM     13  C   UNL     1       3.516   5.144  18.355  0.00  0.00    +0.000 A 
ATOM     14  H   UNL     1       3.758   8.305  17.706  0.00  0.00    +0.000 HD
ENDROOT
BRANCH   1  15
ATOM     15  O   UNL     1       6.076   4.382  15.918  0.00  0.00    +0.000 OA
BRANCH  15  17
ATOM     16  C   UNL     1       6.967   4.671  13.708  0.00  0.00    +0.000 C 
ATOM     17  C   UNL     1       6.004   3.881  14.577  0.00  0.00    +0.000 C 
ENDBRANCH  15  17
ENDBRANCH   1  15
TORSDOF 2
ENDMDL
MODEL 7
REMARK VINA RESULT:      -6.0      3.058      5.268
REMARK  Name = 
REMARK  3 active torsions:
REMARK  status: ('A' for Active; 'I' for Inactive)
REMARK    1  A    between atoms: C_1  and  C_2
REMARK    2  A    between atoms: C_2  and  O_3
REMARK    3  A    between atoms: O_3  and  C_4
REMARK                            x       y       z     vdW  Elec       q    Type
REMARK                         _______ _______ _______ _____ _____    ______ ____
ROOT
ATOM      1  C   UNL     1       4.115   3.618  18.174  0.00  0.00    +0.000 C 
ATOM      2  O   UNL     1       3.384   2.923  17.472  0.00  0.00    +0.000 OA
ATOM      3  N   UNL     1       5.302   4.189  17.758  0.00  0.00    +0.000 N 
ATOM      4  C   UNL     1       6.257   4.888  18.557  0.00  0.00    +0.000 A 
ATOM      5  O   UNL     1       6.281   5.079  19.763  0.00  0.00    +0.000 OA
ATOM      6  N   UNL     1       7.255   5.348  17.681  0.00  0.00    +0.000 N 
ATOM      7  C   UNL     1       6.939   4.966  16.387  0.00  0.00    +0.000 A 
ATOM      8  C   UNL     1       7.625   5.237  15.225  0.00  0.00    +0.000 A 
ATOM      9  C   UNL     1       7.061   4.767  14.036  0.00  0.00    +0.000 A 
ATOM     10  C   UNL     1       5.845   4.054  14.053  0.00  0.00    +0.000 A 
ATOM     11 BR   UNL     1       5.102   3.464  12.414  0.00  0.00    +0.000 Br
ATOM     12  C   UNL     1       5.170   3.784  15.248  0.00  0.00    +0.000 A 
ATOM     13  C   UNL     1       5.742   4.249  16.417  0.00  0.00    +0.000 A 
ATOM     14  H   UNL     1       8.052   5.886  17.984  0.00  0.00    +0.000 HD
ENDROOT
BRANCH   1  15
ATOM     15  O   UNL     1       3.790   3.976  19.448  0.00  0.00    +0.000 OA
BRANCH  15  17
ATOM     16  C   UNL     1       1.597   3.878  20.420  0.00  0.00    +0.000 C 
ATOM     17  C   UNL     1       2.874   3.108  20.130  0.00  0.00    +0.000 C 
ENDBRANCH  15  17
ENDBRANCH   1  15
TORSDOF 2
ENDMDL
MODEL 8
REMARK VINA RESULT:      -5.9      2.246      3.555
REMARK  Name = 
REMARK  3 active torsions:
REMARK  status: ('A' for Active; 'I' for Inactive)
REMARK    1  A    between atoms: C_1  and  C_2
REMARK    2  A    between atoms: C_2  and  O_3
REMARK    3  A    between atoms: O_3  and  C_4
REMARK                            x       y       z     vdW  Elec       q    Type
REMARK                         _______ _______ _______ _____ _____    ______ ____
ROOT
ATOM      1  C   UNL     1       6.278   4.823  14.966  0.00  0.00    +0.000 C 
ATOM      2  O   UNL     1       5.502   4.059  14.396  0.00  0.00    +0.000 OA
ATOM      3  N   UNL     1       6.110   5.311  16.248  0.00  0.00    +0.000 N 
ATOM      4  C   UNL     1       6.897   6.301  16.911  0.00  0.00    +0.000 A 
ATOM      5  O   UNL     1       7.827   6.973  16.494  0.00  0.00    +0.000 OA
ATOM      6  N   UNL     1       6.391   6.407  18.218  0.00  0.00    +0.000 N 
ATOM      7  C   UNL     1       5.341   5.518  18.376  0.00  0.00    +0.000 A 
ATOM      8  C   UNL     1       4.590   5.275  19.503  0.00  0.00    +0.000 A 
ATOM      9  C   UNL     1       3.608   4.286  19.405  0.00  0.00    +0.000 A 
ATOM     10  C   UNL     1       3.417   3.583  18.198  0.00  0.00    +0.000 A 
ATOM     11 BR   UNL     1       2.097   2.228  18.121  0.00  0.00    +0.000 Br
ATOM     12  C   UNL     1       4.188   3.853  17.063  0.00  0.00    +0.000 A 
ATOM     13  C   UNL     1       5.152   4.838  17.172  0.00  0.00    +0.000 A 
ATOM     14  H   UNL     1       6.775   7.032  18.910  0.00  0.00    +0.000 HD
ENDROOT
BRANCH   1  15
ATOM     15  O   UNL     1       7.457   5.224  14.413  0.00  0.00    +0.000 OA
BRANCH  15  17
ATOM     16  C   UNL     1       8.528   6.036  12.424  0.00  0.00    +0.000 C 
ATOM     17  C   UNL     1       7.608   4.977  13.009  0.00  0.00    +0.000 C 
ENDBRANCH  15  17
ENDBRANCH   1  15
TORSDOF 2
ENDMDL
MODEL 9
REMARK VINA RESULT:      -5.9      2.225      3.072
REMARK  Name = 
REMARK  3 active torsions:
REMARK  status: ('A' for Active; 'I' for Inactive)
REMARK    1  A    between atoms: C_1  and  C_2
REMARK    2  A    between atoms: C_2  and  O_3
REMARK    3  A    between atoms: O_3  and  C_4
REMARK                            x       y       z     vdW  Elec       q    Type
REMARK                         _______ _______ _______ _____ _____    ______ ____
ROOT
ATOM      1  C   UNL     1       4.767   4.229  16.771  0.00  0.00    +0.000 C 
ATOM      2  O   UNL     1       4.573   3.038  17.001  0.00  0.00    +0.000 OA
ATOM      3  N   UNL     1       4.109   5.273  17.392  0.00  0.00    +0.000 N 
ATOM      4  C   UNL     1       4.189   6.663  17.075  0.00  0.00    +0.000 A 
ATOM      5  O   UNL     1       4.784   7.228  16.171  0.00  0.00    +0.000 OA
ATOM      6  N   UNL     1       3.405   7.338  18.026  0.00  0.00    +0.000 N 
ATOM      7  C   UNL     1       2.863   6.419  18.909  0.00  0.00    +0.000 A 
ATOM      8  C   UNL     1       2.066   6.654  20.006  0.00  0.00    +0.000 A 
ATOM      9  C   UNL     1       1.688   5.542  20.761  0.00  0.00    +0.000 A 
ATOM     10  C   UNL     1       2.117   4.249  20.397  0.00  0.00    +0.000 A 
ATOM     11 BR   UNL     1       1.606   2.774  21.468  0.00  0.00    +0.000 Br
ATOM     12  C   UNL     1       2.921   4.033  19.272  0.00  0.00    +0.000 A 
ATOM     13  C   UNL     1       3.283   5.142  18.531  0.00  0.00    +0.000 A 
ATOM     14  H   UNL     1       3.296   8.341  18.041  0.00  0.00    +0.000 HD
ENDROOT
BRANCH   1  15
ATOM     15  O   UNL     1       5.731   4.666  15.913  0.00  0.00    +0.000 OA
BRANCH  15  17
ATOM     16  C   UNL     1       7.490   4.800  17.541  0.00  0.00    +0.000 C 
ATOM     17  C   UNL     1       7.068   4.233  16.196  0.00  0.00    +0.000 C 
ENDBRANCH  15  17
ENDBRANCH   1  15
TORSDOF 2
ENDMDL
