MODEL 1
REMARK VINA RESULT:      -8.3      0.000      0.000
REMARK  Name = 
REMARK  8 active torsions:
REMARK  status: ('A' for Active; 'I' for Inactive)
REMARK    1  A    between atoms: C_1  and  O_2
REMARK    2  A    between atoms: O_2  and  C_3
REMARK    3  A    between atoms: C_5  and  C_6
REMARK    4  A    between atoms: C_7  and  C_8
REMARK    5  A    between atoms: C_24  and  O_25
REMARK    6  A    between atoms: O_25  and  C_26
REMARK    7  A    between atoms: C_27  and  O_28
REMARK    8  A    between atoms: O_28  and  C_29
REMARK                            x       y       z     vdW  Elec       q    Type
REMARK                         _______ _______ _______ _____ _____    ______ ____
ROOT
ATOM      1  C   UNL     1       9.326  10.413  18.623  0.00  0.00    +0.000 A 
ATOM      2  C   UNL     1       9.568  10.340  19.949  0.00  0.00    +0.000 A 
ATOM      3  C   UNL     1       9.027  11.502  20.700  0.00  0.00    +0.000 A 
ATOM      4  O   UNL     1       8.430  11.323  21.757  0.00  0.00    +0.000 OA
ATOM      5  O   UNL     1       9.105  12.748  20.129  0.00  0.00    +0.000 OA
ATOM      6  C   UNL     1       9.719  12.901  18.863  0.00  0.00    +0.000 A 
ATOM      7  C   UNL     1       9.954  11.743  18.103  0.00  0.00    +0.000 A 
ATOM      8  C   UNL     1      11.030  11.920  17.214  0.00  0.00    +0.000 A 
ATOM      9  C   UNL     1      11.752  13.191  17.125  0.00  0.00    +0.000 A 
ATOM     10  C   UNL     1      11.394  14.346  17.862  0.00  0.00    +0.000 A 
ATOM     11  C   UNL     1      12.075  15.612  17.919  0.00  0.00    +0.000 A 
ATOM     12  C   UNL     1      11.587  16.716  18.669  0.00  0.00    +0.000 A 
ATOM     13  C   UNL     1      10.385  16.568  19.371  0.00  0.00    +0.000 A 
ATOM     14  C   UNL     1       9.754  15.327  19.376  0.00  0.00    +0.000 A 
ATOM     15  C   UNL     1      10.282  14.202  18.686  0.00  0.00    +0.000 A 
ENDROOT
BRANCH   1  17
ATOM     16  C   UNL     1       8.096   8.257  17.708  0.00  0.00    +0.000 C 
ATOM     17  C   UNL     1       8.096   9.568  18.159  0.00  0.00    +0.000 C 
BRANCH  16  20
ATOM     18  C   UNL     1       6.251   4.994  16.407  0.00  0.00    +0.000 A 
ATOM     19  C   UNL     1       7.262   5.999  16.656  0.00  0.00    +0.000 A 
ATOM     20  C   UNL     1       7.017   7.185  17.366  0.00  0.00    +0.000 A 
ATOM     21  C   UNL     1       5.652   7.340  17.750  0.00  0.00    +0.000 A 
ATOM     22  C   UNL     1       4.629   6.342  17.540  0.00  0.00    +0.000 A 
ATOM     23  C   UNL     1       4.928   5.139  16.864  0.00  0.00    +0.000 A 
BRANCH  18  25
ATOM     24  C   UNL     1       6.286   3.922  14.287  0.00  0.00    +0.000 C 
ATOM     25  O   UNL     1       6.523   3.857  15.685  0.00  0.00    +0.000 OA
ENDBRANCH  18  25
BRANCH  22  26
ATOM     26  O   UNL     1       3.380   6.709  18.017  0.00  0.00    +0.000 OA
ATOM     27  C   UNL     1       3.003   6.360  19.356  0.00  0.00    +0.000 C 
ENDBRANCH  22  26
BRANCH  23  28
ATOM     28  O   UNL     1       3.913   4.224  16.803  0.00  0.00    +0.000 OA
ATOM     29  C   UNL     1       3.723   3.098  17.644  0.00  0.00    +0.000 C 
ENDBRANCH  23  28
ENDBRANCH  16  20
ENDBRANCH   1  17
TORSDOF 5
ENDMDL
MODEL 2
REMARK VINA RESULT:      -8.2      2.014     10.035
REMARK  Name = 
REMARK  8 active torsions:
REMARK  status: ('A' for Active; 'I' for Inactive)
REMARK    1  A    between atoms: C_1  and  O_2
REMARK    2  A    between atoms: O_2  and  C_3
REMARK    3  A    between atoms: C_5  and  C_6
REMARK    4  A    between atoms: C_7  and  C_8
REMARK    5  A    between atoms: C_24  and  O_25
REMARK    6  A    between atoms: O_25  and  C_26
REMARK    7  A    between atoms: C_27  and  O_28
REMARK    8  A    between atoms: O_28  and  C_29
REMARK                            x       y       z     vdW  Elec       q    Type
REMARK                         _______ _______ _______ _____ _____    ______ ____
ROOT
ATOM      1  C   UNL     1       7.007   5.827  17.927  0.00  0.00    +0.000 A 
ATOM      2  C   UNL     1       6.851   5.746  16.588  0.00  0.00    +0.000 A 
ATOM      3  C   UNL     1       5.520   6.224  16.131  0.00  0.00    +0.000 A 
ATOM      4  O   UNL     1       5.437   6.952  15.147  0.00  0.00    +0.000 OA
ATOM      5  O   UNL     1       4.419   5.935  16.898  0.00  0.00    +0.000 OA
ATOM      6  C   UNL     1       4.568   5.168  18.079  0.00  0.00    +0.000 A 
ATOM      7  C   UNL     1       5.867   4.991  18.585  0.00  0.00    +0.000 A 
ATOM      8  C   UNL     1       5.966   3.808  19.342  0.00  0.00    +0.000 A 
ATOM      9  C   UNL     1       4.811   2.935  19.557  0.00  0.00    +0.000 A 
ATOM     10  C   UNL     1       3.509   3.232  19.089  0.00  0.00    +0.000 A 
ATOM     11  C   UNL     1       2.327   2.415  19.167  0.00  0.00    +0.000 A 
ATOM     12  C   UNL     1       1.059   2.848  18.694  0.00  0.00    +0.000 A 
ATOM     13  C   UNL     1       0.954   4.130  18.141  0.00  0.00    +0.000 A 
ATOM     14  C   UNL     1       2.105   4.901  18.001  0.00  0.00    +0.000 A 
ATOM     15  C   UNL     1       3.386   4.438  18.406  0.00  0.00    +0.000 A 
ENDROOT
BRANCH   1  17
ATOM     16  C   UNL     1       7.842   8.332  17.779  0.00  0.00    +0.000 C 
ATOM     17  C   UNL     1       7.801   7.090  18.393  0.00  0.00    +0.000 C 
BRANCH  16  20
ATOM     18  C   UNL     1       9.956  11.307  19.339  0.00  0.00    +0.000 A 
ATOM     19  C   UNL     1       9.415   9.991  19.075  0.00  0.00    +0.000 A 
ATOM     20  C   UNL     1       8.403   9.744  18.135  0.00  0.00    +0.000 A 
ATOM     21  C   UNL     1       7.903  10.931  17.520  0.00  0.00    +0.000 A 
ATOM     22  C   UNL     1       8.443  12.251  17.743  0.00  0.00    +0.000 A 
ATOM     23  C   UNL     1       9.496  12.451  18.662  0.00  0.00    +0.000 A 
BRANCH  18  25
ATOM     24  C   UNL     1      12.250  11.710  19.807  0.00  0.00    +0.000 C 
ATOM     25  O   UNL     1      10.929  11.513  20.287  0.00  0.00    +0.000 OA
ENDBRANCH  18  25
BRANCH  22  26
ATOM     26  O   UNL     1       7.806  13.248  17.018  0.00  0.00    +0.000 OA
ATOM     27  C   UNL     1       6.733  13.985  17.620  0.00  0.00    +0.000 C 
ENDBRANCH  22  26
BRANCH  23  28
ATOM     28  O   UNL     1       9.995  13.723  18.726  0.00  0.00    +0.000 OA
ATOM     29  C   UNL     1       9.685  14.718  19.688  0.00  0.00    +0.000 C 
ENDBRANCH  23  28
ENDBRANCH  16  20
ENDBRANCH   1  17
TORSDOF 5
ENDMDL
MODEL 3
REMARK VINA RESULT:      -8.1      1.398      2.325
REMARK  Name = 
REMARK  8 active torsions:
REMARK  status: ('A' for Active; 'I' for Inactive)
REMARK    1  A    between atoms: C_1  and  O_2
REMARK    2  A    between atoms: O_2  and  C_3
REMARK    3  A    between atoms: C_5  and  C_6
REMARK    4  A    between atoms: C_7  and  C_8
REMARK    5  A    between atoms: C_24  and  O_25
REMARK    6  A    between atoms: O_25  and  C_26
REMARK    7  A    between atoms: C_27  and  O_28
REMARK    8  A    between atoms: O_28  and  C_29
REMARK                            x       y       z     vdW  Elec       q    Type
REMARK                         _______ _______ _______ _____ _____    ______ ____
ROOT
ATOM      1  C   UNL     1       9.628  10.558  19.272  0.00  0.00    +0.000 A 
ATOM      2  C   UNL     1       9.797  10.990  20.539  0.00  0.00    +0.000 A 
ATOM      3  C   UNL     1       8.974  12.185  20.857  0.00  0.00    +0.000 A 
ATOM      4  O   UNL     1       8.366  12.243  21.921  0.00  0.00    +0.000 OA
ATOM      5  O   UNL     1       8.818  13.150  19.894  0.00  0.00    +0.000 OA
ATOM      6  C   UNL     1       9.462  13.003  18.642  0.00  0.00    +0.000 A 
ATOM      7  C   UNL     1       9.987  11.740  18.320  0.00  0.00    +0.000 A 
ATOM      8  C   UNL     1      11.052  11.844  17.406  0.00  0.00    +0.000 A 
ATOM      9  C   UNL     1      11.488  13.138  16.879  0.00  0.00    +0.000 A 
ATOM     10  C   UNL     1      10.846  14.363  17.182  0.00  0.00    +0.000 A 
ATOM     11  C   UNL     1      11.234  15.692  16.794  0.00  0.00    +0.000 A 
ATOM     12  C   UNL     1      10.475  16.845  17.130  0.00  0.00    +0.000 A 
ATOM     13  C   UNL     1       9.292  16.678  17.859  0.00  0.00    +0.000 A 
ATOM     14  C   UNL     1       8.943  15.403  18.296  0.00  0.00    +0.000 A 
ATOM     15  C   UNL     1       9.743  14.259  18.024  0.00  0.00    +0.000 A 
ENDROOT
BRANCH   1  17
ATOM     16  C   UNL     1       8.411   8.568  18.025  0.00  0.00    +0.000 C 
ATOM     17  C   UNL     1       8.639   9.354  19.143  0.00  0.00    +0.000 C 
BRANCH  16  20
ATOM     18  C   UNL     1       6.466   5.125  18.363  0.00  0.00    +0.000 A 
ATOM     19  C   UNL     1       7.243   6.306  18.675  0.00  0.00    +0.000 A 
ATOM     20  C   UNL     1       7.631   7.253  17.714  0.00  0.00    +0.000 A 
ATOM     21  C   UNL     1       7.253   6.896  16.386  0.00  0.00    +0.000 A 
ATOM     22  C   UNL     1       6.455   5.740  16.050  0.00  0.00    +0.000 A 
ATOM     23  C   UNL     1       6.041   4.837  17.054  0.00  0.00    +0.000 A 
BRANCH  18  25
ATOM     24  C   UNL     1       4.847   4.353  19.921  0.00  0.00    +0.000 C 
ATOM     25  O   UNL     1       6.128   4.207  19.328  0.00  0.00    +0.000 OA
ENDBRANCH  18  25
BRANCH  22  26
ATOM     26  O   UNL     1       6.197   5.611  14.694  0.00  0.00    +0.000 OA
ATOM     27  C   UNL     1       6.947   4.666  13.918  0.00  0.00    +0.000 C 
ENDBRANCH  22  26
BRANCH  23  28
ATOM     28  O   UNL     1       5.212   3.831  16.642  0.00  0.00    +0.000 OA
ATOM     29  C   UNL     1       3.799   3.782  16.759  0.00  0.00    +0.000 C 
ENDBRANCH  23  28
ENDBRANCH  16  20
ENDBRANCH   1  17
TORSDOF 5
ENDMDL
MODEL 4
REMARK VINA RESULT:      -8.0      1.844     10.054
REMARK  Name = 
REMARK  8 active torsions:
REMARK  status: ('A' for Active; 'I' for Inactive)
REMARK    1  A    between atoms: C_1  and  O_2
REMARK    2  A    between atoms: O_2  and  C_3
REMARK    3  A    between atoms: C_5  and  C_6
REMARK    4  A    between atoms: C_7  and  C_8
REMARK    5  A    between atoms: C_24  and  O_25
REMARK    6  A    between atoms: O_25  and  C_26
REMARK    7  A    between atoms: C_27  and  O_28
REMARK    8  A    between atoms: O_28  and  C_29
REMARK                            x       y       z     vdW  Elec       q    Type
REMARK                         _______ _______ _______ _____ _____    ______ ____
ROOT
ATOM      1  C   UNL     1       6.881   6.843  17.495  0.00  0.00    +0.000 A 
ATOM      2  C   UNL     1       6.780   6.481  16.198  0.00  0.00    +0.000 A 
ATOM      3  C   UNL     1       5.382   6.515  15.696  0.00  0.00    +0.000 A 
ATOM      4  O   UNL     1       5.139   7.006  14.598  0.00  0.00    +0.000 OA
ATOM      5  O   UNL     1       4.374   6.102  16.530  0.00  0.00    +0.000 OA
ATOM      6  C   UNL     1       4.686   5.627  17.827  0.00  0.00    +0.000 A 
ATOM      7  C   UNL     1       5.976   5.880  18.323  0.00  0.00    +0.000 A 
ATOM      8  C   UNL     1       6.355   4.921  19.281  0.00  0.00    +0.000 A 
ATOM      9  C   UNL     1       5.455   3.838  19.681  0.00  0.00    +0.000 A 
ATOM     10  C   UNL     1       4.130   3.704  19.200  0.00  0.00    +0.000 A 
ATOM     11  C   UNL     1       3.192   2.644  19.455  0.00  0.00    +0.000 A 
ATOM     12  C   UNL     1       1.867   2.647  18.944  0.00  0.00    +0.000 A 
ATOM     13  C   UNL     1       1.453   3.737  18.169  0.00  0.00    +0.000 A 
ATOM     14  C   UNL     1       2.373   4.736  17.862  0.00  0.00    +0.000 A 
ATOM     15  C   UNL     1       3.721   4.694  18.312  0.00  0.00    +0.000 A 
ENDROOT
BRANCH   1  17
ATOM     16  C   UNL     1       8.342   8.800  18.509  0.00  0.00    +0.000 C 
ATOM     17  C   UNL     1       7.319   8.328  17.702  0.00  0.00    +0.000 C 
BRANCH  16  20
ATOM     18  C   UNL     1      10.130  12.300  17.960  0.00  0.00    +0.000 A 
ATOM     19  C   UNL     1       9.528  11.006  17.717  0.00  0.00    +0.000 A 
ATOM     20  C   UNL     1       9.054  10.169  18.739  0.00  0.00    +0.000 A 
ATOM     21  C   UNL     1       9.295  10.684  20.047  0.00  0.00    +0.000 A 
ATOM     22  C   UNL     1       9.867  11.982  20.318  0.00  0.00    +0.000 A 
ATOM     23  C   UNL     1      10.287  12.817  19.259  0.00  0.00    +0.000 A 
BRANCH  18  25
ATOM     24  C   UNL     1      11.986  12.946  16.624  0.00  0.00    +0.000 C 
ATOM     25  O   UNL     1      10.607  13.080  16.934  0.00  0.00    +0.000 OA
ENDBRANCH  18  25
BRANCH  22  26
ATOM     26  O   UNL     1       9.986  12.273  21.668  0.00  0.00    +0.000 OA
ATOM     27  C   UNL     1       8.815  12.280  22.497  0.00  0.00    +0.000 C 
ENDBRANCH  22  26
BRANCH  23  28
ATOM     28  O   UNL     1      10.725  14.060  19.622  0.00  0.00    +0.000 OA
ATOM     29  C   UNL     1      12.070  14.483  19.782  0.00  0.00    +0.000 C 
ENDBRANCH  23  28
ENDBRANCH  16  20
ENDBRANCH   1  17
TORSDOF 5
ENDMDL
MODEL 5
REMARK VINA RESULT:      -7.9      6.507      9.466
REMARK  Name = 
REMARK  8 active torsions:
REMARK  status: ('A' for Active; 'I' for Inactive)
REMARK    1  A    between atoms: C_1  and  O_2
REMARK    2  A    between atoms: O_2  and  C_3
REMARK    3  A    between atoms: C_5  and  C_6
REMARK    4  A    between atoms: C_7  and  C_8
REMARK    5  A    between atoms: C_24  and  O_25
REMARK    6  A    between atoms: O_25  and  C_26
REMARK    7  A    between atoms: C_27  and  O_28
REMARK    8  A    between atoms: O_28  and  C_29
REMARK                            x       y       z     vdW  Elec       q    Type
REMARK                         _______ _______ _______ _____ _____    ______ ____
ROOT
ATOM      1  C   UNL     1       0.905  10.820  18.427  0.00  0.00    +0.000 A 
ATOM      2  C   UNL     1       1.549  11.954  18.777  0.00  0.00    +0.000 A 
ATOM      3  C   UNL     1       1.368  12.303  20.210  0.00  0.00    +0.000 A 
ATOM      4  O   UNL     1       2.330  12.671  20.876  0.00  0.00    +0.000 OA
ATOM      5  O   UNL     1       0.142  12.088  20.788  0.00  0.00    +0.000 OA
ATOM      6  C   UNL     1      -0.921  11.574  20.008  0.00  0.00    +0.000 A 
ATOM      7  C   UNL     1      -0.606  11.018  18.756  0.00  0.00    +0.000 A 
ATOM      8  C   UNL     1      -1.699  11.089  17.872  0.00  0.00    +0.000 A 
ATOM      9  C   UNL     1      -2.983  11.660  18.283  0.00  0.00    +0.000 A 
ATOM     10  C   UNL     1      -3.251  12.117  19.596  0.00  0.00    +0.000 A 
ATOM     11  C   UNL     1      -4.436  12.769  20.087  0.00  0.00    +0.000 A 
ATOM     12  C   UNL     1      -4.600  13.144  21.448  0.00  0.00    +0.000 A 
ATOM     13  C   UNL     1      -3.570  12.855  22.350  0.00  0.00    +0.000 A 
ATOM     14  C   UNL     1      -2.393  12.285  21.872  0.00  0.00    +0.000 A 
ATOM     15  C   UNL     1      -2.200  11.978  20.497  0.00  0.00    +0.000 A 
ENDROOT
BRANCH   1  17
ATOM     16  C   UNL     1       1.701   8.400  19.135  0.00  0.00    +0.000 C 
ATOM     17  C   UNL     1       1.827   9.559  18.386  0.00  0.00    +0.000 C 
BRANCH  16  20
ATOM     18  C   UNL     1       2.779   4.706  20.106  0.00  0.00    +0.000 A 
ATOM     19  C   UNL     1       2.193   6.029  20.154  0.00  0.00    +0.000 A 
ATOM     20  C   UNL     1       2.369   6.990  19.147  0.00  0.00    +0.000 A 
ATOM     21  C   UNL     1       3.249   6.563  18.108  0.00  0.00    +0.000 A 
ATOM     22  C   UNL     1       3.823   5.241  18.020  0.00  0.00    +0.000 A 
ATOM     23  C   UNL     1       3.581   4.285  19.030  0.00  0.00    +0.000 A 
BRANCH  18  25
ATOM     24  C   UNL     1       1.364   3.110  21.154  0.00  0.00    +0.000 C 
ATOM     25  O   UNL     1       2.604   3.800  21.125  0.00  0.00    +0.000 OA
ENDBRANCH  18  25
BRANCH  22  26
ATOM     26  O   UNL     1       4.631   5.053  16.909  0.00  0.00    +0.000 OA
ATOM     27  C   UNL     1       5.095   6.191  16.170  0.00  0.00    +0.000 C 
ENDBRANCH  22  26
BRANCH  23  28
ATOM     28  O   UNL     1       4.094   3.038  18.802  0.00  0.00    +0.000 OA
ATOM     29  C   UNL     1       3.419   1.922  18.245  0.00  0.00    +0.000 C 
ENDBRANCH  23  28
ENDBRANCH  16  20
ENDBRANCH   1  17
TORSDOF 5
ENDMDL
MODEL 6
REMARK VINA RESULT:      -7.9      0.243      2.323
REMARK  Name = 
REMARK  8 active torsions:
REMARK  status: ('A' for Active; 'I' for Inactive)
REMARK    1  A    between atoms: C_1  and  O_2
REMARK    2  A    between atoms: O_2  and  C_3
REMARK    3  A    between atoms: C_5  and  C_6
REMARK    4  A    between atoms: C_7  and  C_8
REMARK    5  A    between atoms: C_24  and  O_25
REMARK    6  A    between atoms: O_25  and  C_26
REMARK    7  A    between atoms: C_27  and  O_28
REMARK    8  A    between atoms: O_28  and  C_29
REMARK                            x       y       z     vdW  Elec       q    Type
REMARK                         _______ _______ _______ _____ _____    ______ ____
ROOT
ATOM      1  C   UNL     1       9.354  10.512  18.577  0.00  0.00    +0.000 A 
ATOM      2  C   UNL     1       9.646  10.453  19.894  0.00  0.00    +0.000 A 
ATOM      3  C   UNL     1       9.135  11.625  20.652  0.00  0.00    +0.000 A 
ATOM      4  O   UNL     1       8.579  11.458  21.733  0.00  0.00    +0.000 OA
ATOM      5  O   UNL     1       9.193  12.864  20.064  0.00  0.00    +0.000 OA
ATOM      6  C   UNL     1       9.759  13.002  18.774  0.00  0.00    +0.000 A 
ATOM      7  C   UNL     1       9.964  11.834  18.019  0.00  0.00    +0.000 A 
ATOM      8  C   UNL     1      11.005  12.000  17.087  0.00  0.00    +0.000 A 
ATOM      9  C   UNL     1      11.724  13.268  16.957  0.00  0.00    +0.000 A 
ATOM     10  C   UNL     1      11.397  14.432  17.694  0.00  0.00    +0.000 A 
ATOM     11  C   UNL     1      12.081  15.697  17.711  0.00  0.00    +0.000 A 
ATOM     12  C   UNL     1      11.624  16.811  18.466  0.00  0.00    +0.000 A 
ATOM     13  C   UNL     1      10.450  16.673  19.215  0.00  0.00    +0.000 A 
ATOM     14  C   UNL     1       9.817  15.433  19.257  0.00  0.00    +0.000 A 
ATOM     15  C   UNL     1      10.317  14.299  18.561  0.00  0.00    +0.000 A 
ENDROOT
BRANCH   1  17
ATOM     16  C   UNL     1       8.080   8.330  17.792  0.00  0.00    +0.000 C 
ATOM     17  C   UNL     1       8.106   9.664  18.170  0.00  0.00    +0.000 C 
BRANCH  16  20
ATOM     18  C   UNL     1       4.641   6.354  17.658  0.00  0.00    +0.000 A 
ATOM     19  C   UNL     1       5.657   7.335  17.980  0.00  0.00    +0.000 A 
ATOM     20  C   UNL     1       6.980   7.260  17.518  0.00  0.00    +0.000 A 
ATOM     21  C   UNL     1       7.247   6.079  16.764  0.00  0.00    +0.000 A 
ATOM     22  C   UNL     1       6.248   5.100  16.404  0.00  0.00    +0.000 A 
ATOM     23  C   UNL     1       4.915   5.237  16.848  0.00  0.00    +0.000 A 
BRANCH  18  25
ATOM     24  C   UNL     1       3.164   6.005  19.485  0.00  0.00    +0.000 C 
ATOM     25  O   UNL     1       3.362   6.448  18.152  0.00  0.00    +0.000 OA
ENDBRANCH  18  25
BRANCH  22  26
ATOM     26  O   UNL     1       6.742   4.046  15.649  0.00  0.00    +0.000 OA
ATOM     27  C   UNL     1       6.639   4.091  14.219  0.00  0.00    +0.000 C 
ENDBRANCH  22  26
BRANCH  23  28
ATOM     28  O   UNL     1       4.032   4.308  16.372  0.00  0.00    +0.000 OA
ATOM     29  C   UNL     1       3.450   3.232  17.089  0.00  0.00    +0.000 C 
ENDBRANCH  23  28
ENDBRANCH  16  20
ENDBRANCH   1  17
TORSDOF 5
ENDMDL
MODEL 7
REMARK VINA RESULT:      -7.9      6.379      9.496
REMARK  Name = 
REMARK  8 active torsions:
REMARK  status: ('A' for Active; 'I' for Inactive)
REMARK    1  A    between atoms: C_1  and  O_2
REMARK    2  A    between atoms: O_2  and  C_3
REMARK    3  A    between atoms: C_5  and  C_6
REMARK    4  A    between atoms: C_7  and  C_8
REMARK    5  A    between atoms: C_24  and  O_25
REMARK    6  A    between atoms: O_25  and  C_26
REMARK    7  A    between atoms: C_27  and  O_28
REMARK    8  A    between atoms: O_28  and  C_29
REMARK                            x       y       z     vdW  Elec       q    Type
REMARK                         _______ _______ _______ _____ _____    ______ ____
ROOT
ATOM      1  C   UNL     1       0.815   9.874  18.207  0.00  0.00    +0.000 A 
ATOM      2  C   UNL     1       1.430  11.075  18.266  0.00  0.00    +0.000 A 
ATOM      3  C   UNL     1       1.002  11.887  19.434  0.00  0.00    +0.000 A 
ATOM      4  O   UNL     1       1.839  12.484  20.104  0.00  0.00    +0.000 OA
ATOM      5  O   UNL     1      -0.318  11.853  19.809  0.00  0.00    +0.000 OA
ATOM      6  C   UNL     1      -1.239  11.077  19.065  0.00  0.00    +0.000 A 
ATOM      7  C   UNL     1      -0.721  10.135  18.160  0.00  0.00    +0.000 A 
ATOM      8  C   UNL     1      -1.628   9.873  17.116  0.00  0.00    +0.000 A 
ATOM      9  C   UNL     1      -2.941  10.519  17.059  0.00  0.00    +0.000 A 
ATOM     10  C   UNL     1      -3.428  11.390  18.062  0.00  0.00    +0.000 A 
ATOM     11  C   UNL     1      -4.655  12.141  18.071  0.00  0.00    +0.000 A 
ATOM     12  C   UNL     1      -5.053  12.954  19.166  0.00  0.00    +0.000 A 
ATOM     13  C   UNL     1      -4.220  13.016  20.290  0.00  0.00    +0.000 A 
ATOM     14  C   UNL     1      -3.000  12.346  20.264  0.00  0.00    +0.000 A 
ATOM     15  C   UNL     1      -2.568  11.593  19.138  0.00  0.00    +0.000 A 
ENDROOT
BRANCH   1  17
ATOM     16  C   UNL     1       1.920   7.471  18.174  0.00  0.00    +0.000 C 
ATOM     17  C   UNL     1       1.675   8.698  18.772  0.00  0.00    +0.000 C 
BRANCH  16  20
ATOM     18  C   UNL     1       4.990   5.184  19.220  0.00  0.00    +0.000 A 
ATOM     19  C   UNL     1       4.172   6.339  18.913  0.00  0.00    +0.000 A 
ATOM     20  C   UNL     1       2.850   6.250  18.452  0.00  0.00    +0.000 A 
ATOM     21  C   UNL     1       2.416   4.908  18.239  0.00  0.00    +0.000 A 
ATOM     22  C   UNL     1       3.200   3.738  18.562  0.00  0.00    +0.000 A 
ATOM     23  C   UNL     1       4.510   3.871  19.072  0.00  0.00    +0.000 A 
BRANCH  18  25
ATOM     24  C   UNL     1       7.249   5.656  18.656  0.00  0.00    +0.000 C 
ATOM     25  O   UNL     1       6.291   5.312  19.645  0.00  0.00    +0.000 OA
ENDBRANCH  18  25
BRANCH  22  26
ATOM     26  O   UNL     1       2.560   2.539  18.285  0.00  0.00    +0.000 OA
ATOM     27  C   UNL     1       1.297   2.253  18.901  0.00  0.00    +0.000 C 
ENDBRANCH  22  26
BRANCH  23  28
ATOM     28  O   UNL     1       5.126   2.705  19.433  0.00  0.00    +0.000 OA
ATOM     29  C   UNL     1       4.773   1.844  20.503  0.00  0.00    +0.000 C 
ENDBRANCH  23  28
ENDBRANCH  16  20
ENDBRANCH   1  17
TORSDOF 5
ENDMDL
MODEL 8
REMARK VINA RESULT:      -7.9      6.426      9.397
REMARK  Name = 
REMARK  8 active torsions:
REMARK  status: ('A' for Active; 'I' for Inactive)
REMARK    1  A    between atoms: C_1  and  O_2
REMARK    2  A    between atoms: O_2  and  C_3
REMARK    3  A    between atoms: C_5  and  C_6
REMARK    4  A    between atoms: C_7  and  C_8
REMARK    5  A    between atoms: C_24  and  O_25
REMARK    6  A    between atoms: O_25  and  C_26
REMARK    7  A    between atoms: C_27  and  O_28
REMARK    8  A    between atoms: O_28  and  C_29
REMARK                            x       y       z     vdW  Elec       q    Type
REMARK                         _______ _______ _______ _____ _____    ______ ____
ROOT
ATOM      1  C   UNL     1       0.501  11.331  18.876  0.00  0.00    +0.000 A 
ATOM      2  C   UNL     1       1.245  12.403  19.222  0.00  0.00    +0.000 A 
ATOM      3  C   UNL     1       1.355  12.580  20.693  0.00  0.00    +0.000 A 
ATOM      4  O   UNL     1       2.441  12.849  21.196  0.00  0.00    +0.000 OA
ATOM      5  O   UNL     1       0.254  12.319  21.470  0.00  0.00    +0.000 OA
ATOM      6  C   UNL     1      -0.958  11.921  20.858  0.00  0.00    +0.000 A 
ATOM      7  C   UNL     1      -0.911  11.514  19.514  0.00  0.00    +0.000 A 
ATOM      8  C   UNL     1      -2.149  11.709  18.874  0.00  0.00    +0.000 A 
ATOM      9  C   UNL     1      -3.306  12.249  19.589  0.00  0.00    +0.000 A 
ATOM     10  C   UNL     1      -3.300  12.551  20.972  0.00  0.00    +0.000 A 
ATOM     11  C   UNL     1      -4.342  13.159  21.756  0.00  0.00    +0.000 A 
ATOM     12  C   UNL     1      -4.228  13.371  23.156  0.00  0.00    +0.000 A 
ATOM     13  C   UNL     1      -3.057  12.958  23.802  0.00  0.00    +0.000 A 
ATOM     14  C   UNL     1      -2.017  12.429  23.041  0.00  0.00    +0.000 A 
ATOM     15  C   UNL     1      -2.102  12.286  21.630  0.00  0.00    +0.000 A 
ENDROOT
BRANCH   1  17
ATOM     16  C   UNL     1       1.591   8.961  19.310  0.00  0.00    +0.000 C 
ATOM     17  C   UNL     1       1.346  10.068  18.513  0.00  0.00    +0.000 C 
BRANCH  16  20
ATOM     18  C   UNL     1       3.645   5.880  17.883  0.00  0.00    +0.000 A 
ATOM     19  C   UNL     1       3.010   7.175  18.007  0.00  0.00    +0.000 A 
ATOM     20  C   UNL     1       2.235   7.553  19.114  0.00  0.00    +0.000 A 
ATOM     21  C   UNL     1       2.068   6.508  20.069  0.00  0.00    +0.000 A 
ATOM     22  C   UNL     1       2.712   5.218  19.985  0.00  0.00    +0.000 A 
ATOM     23  C   UNL     1       3.526   4.893  18.877  0.00  0.00    +0.000 A 
BRANCH  18  25
ATOM     24  C   UNL     1       5.283   6.512  16.282  0.00  0.00    +0.000 C 
ATOM     25  O   UNL     1       4.376   5.536  16.770  0.00  0.00    +0.000 OA
ENDBRANCH  18  25
BRANCH  22  26
ATOM     26  O   UNL     1       2.414   4.371  21.042  0.00  0.00    +0.000 OA
ATOM     27  C   UNL     1       1.294   3.480  20.941  0.00  0.00    +0.000 C 
ENDBRANCH  22  26
BRANCH  23  28
ATOM     28  O   UNL     1       4.162   3.684  18.943  0.00  0.00    +0.000 OA
ATOM     29  C   UNL     1       3.752   2.465  18.346  0.00  0.00    +0.000 C 
ENDBRANCH  23  28
ENDBRANCH  16  20
ENDBRANCH   1  17
TORSDOF 5
ENDMDL
MODEL 9
REMARK VINA RESULT:      -7.9      5.920      9.532
REMARK  Name = 
REMARK  8 active torsions:
REMARK  status: ('A' for Active; 'I' for Inactive)
REMARK    1  A    between atoms: C_1  and  O_2
REMARK    2  A    between atoms: O_2  and  C_3
REMARK    3  A    between atoms: C_5  and  C_6
REMARK    4  A    between atoms: C_7  and  C_8
REMARK    5  A    between atoms: C_24  and  O_25
REMARK    6  A    between atoms: O_25  and  C_26
REMARK    7  A    between atoms: C_27  and  O_28
REMARK    8  A    between atoms: O_28  and  C_29
REMARK                            x       y       z     vdW  Elec       q    Type
REMARK                         _______ _______ _______ _____ _____    ______ ____
ROOT
ATOM      1  C   UNL     1       0.510  10.720  18.818  0.00  0.00    +0.000 A 
ATOM      2  C   UNL     1       1.198  11.855  19.066  0.00  0.00    +0.000 A 
ATOM      3  C   UNL     1       1.003  12.357  20.451  0.00  0.00    +0.000 A 
ATOM      4  O   UNL     1       1.968  12.750  21.100  0.00  0.00    +0.000 OA
ATOM      5  O   UNL     1      -0.243  12.257  21.017  0.00  0.00    +0.000 OA
ATOM      6  C   UNL     1      -1.312  11.712  20.267  0.00  0.00    +0.000 A 
ATOM      7  C   UNL     1      -0.997  11.016  19.087  0.00  0.00    +0.000 A 
ATOM      8  C   UNL     1      -2.067  11.043  18.173  0.00  0.00    +0.000 A 
ATOM      9  C   UNL     1      -3.332  11.709  18.491  0.00  0.00    +0.000 A 
ATOM     10  C   UNL     1      -3.606  12.311  19.742  0.00  0.00    +0.000 A 
ATOM     11  C   UNL     1      -4.769  13.060  20.134  0.00  0.00    +0.000 A 
ATOM     12  C   UNL     1      -4.945  13.581  21.445  0.00  0.00    +0.000 A 
ATOM     13  C   UNL     1      -3.948  13.342  22.397  0.00  0.00    +0.000 A 
ATOM     14  C   UNL     1      -2.789  12.675  22.010  0.00  0.00    +0.000 A 
ATOM     15  C   UNL     1      -2.581  12.220  20.679  0.00  0.00    +0.000 A 
ENDROOT
BRANCH   1  17
ATOM     16  C   UNL     1       1.836   8.627  17.893  0.00  0.00    +0.000 C 
ATOM     17  C   UNL     1       1.373   9.423  18.929  0.00  0.00    +0.000 C 
BRANCH  16  20
ATOM     18  C   UNL     1       3.429   4.992  17.864  0.00  0.00    +0.000 A 
ATOM     19  C   UNL     1       2.512   6.094  18.066  0.00  0.00    +0.000 A 
ATOM     20  C   UNL     1       2.821   7.426  17.750  0.00  0.00    +0.000 A 
ATOM     21  C   UNL     1       4.159   7.599  17.286  0.00  0.00    +0.000 A 
ATOM     22  C   UNL     1       5.084   6.516  17.049  0.00  0.00    +0.000 A 
ATOM     23  C   UNL     1       4.717   5.182  17.333  0.00  0.00    +0.000 A 
BRANCH  18  25
ATOM     24  C   UNL     1       2.534   3.519  19.499  0.00  0.00    +0.000 C 
ATOM     25  O   UNL     1       3.098   3.704  18.210  0.00  0.00    +0.000 OA
ENDBRANCH  18  25
BRANCH  22  26
ATOM     26  O   UNL     1       6.322   6.928  16.578  0.00  0.00    +0.000 OA
ATOM     27  C   UNL     1       7.406   7.107  17.500  0.00  0.00    +0.000 C 
ENDBRANCH  22  26
BRANCH  23  28
ATOM     28  O   UNL     1       5.631   4.228  16.983  0.00  0.00    +0.000 OA
ATOM     29  C   UNL     1       5.871   3.703  15.688  0.00  0.00    +0.000 C 
ENDBRANCH  23  28
ENDBRANCH  16  20
ENDBRANCH   1  17
TORSDOF 5
ENDMDL
