MODEL 1
REMARK VINA RESULT:      -6.5      0.000      0.000
REMARK  Name = 
REMARK  6 active torsions:
REMARK  status: ('A' for Active; 'I' for Inactive)
REMARK    1  A    between atoms: C_1  and  O_2
REMARK    2  A    between atoms: O_2  and  C_3
REMARK    3  A    between atoms: C_3  and  C_4
REMARK    4  A    between atoms: N_13  and  C_14
REMARK    5  A    between atoms: C_14  and  C_15
REMARK    6  A    between atoms: C_18  and  C_19
REMARK                            x       y       z     vdW  Elec       q    Type
REMARK                         _______ _______ _______ _____ _____    ______ ____
ROOT
ATOM      1  C   UNL     1       7.210   4.753  13.400  0.00  0.00    +0.000 C 
ATOM      2  O   UNL     1       7.957   5.684  13.089  0.00  0.00    +0.000 OA
ATOM      3  N   UNL     1       6.698   4.601  14.683  0.00  0.00    +0.000 N 
ATOM      4  C   UNL     1       6.910   5.666  15.654  0.00  0.00    +0.000 C 
ATOM      5  C   UNL     1       5.588   6.024  16.332  0.00  0.00    +0.000 C 
ATOM      6  C   UNL     1       4.923   4.796  17.010  0.00  0.00    +0.000 C 
ATOM      7  C   UNL     1       5.760   4.259  18.194  0.00  0.00    +0.000 C 
ATOM      8  C   UNL     1       5.825   5.272  19.329  0.00  0.00    +0.000 C 
ATOM      9  C   UNL     1       4.425   5.698  19.770  0.00  0.00    +0.000 C 
ATOM     10  N   UNL     1       3.594   6.181  18.653  0.00  0.00    +0.000 NA
ATOM     11  C   UNL     1       3.526   5.185  17.565  0.00  0.00    +0.000 C 
ATOM     12  C   UNL     1       4.760   3.693  15.930  0.00  0.00    +0.000 C 
ATOM     13  C   UNL     1       6.066   3.384  15.194  0.00  0.00    +0.000 C 
ENDROOT
BRANCH   1  14
ATOM     14  C   UNL     1       6.748   3.755  12.331  0.00  0.00    +0.000 C 
BRANCH  14  16
ATOM     15  C   UNL     1       4.952   2.581  11.334  0.00  0.00    +0.000 C 
ATOM     16  O   UNL     1       5.335   3.683  12.153  0.00  0.00    +0.000 OA
ENDBRANCH  14  16
ENDBRANCH   1  14
BRANCH  10  17
ATOM     17  C   UNL     1       2.224   6.502  19.112  0.00  0.00    +0.000 C 
BRANCH  17  18
ATOM     18  C   UNL     1       1.876   7.974  19.013  0.00  0.00    +0.000 A 
ATOM     19  C   UNL     1       2.253   8.722  17.887  0.00  0.00    +0.000 A 
ATOM     20  C   UNL     1       1.983  10.091  17.821  0.00  0.00    +0.000 A 
ATOM     21  C   UNL     1       1.322  10.728  18.877  0.00  0.00    +0.000 A 
ATOM     22  C   UNL     1       0.919   9.984  19.991  0.00  0.00    +0.000 A 
ATOM     23  C   UNL     1       1.192   8.616  20.056  0.00  0.00    +0.000 A 
BRANCH  21  24
ATOM     24  C   UNL     1       1.075  12.140  18.829  0.00  0.00    +0.000 C 
ATOM     25  N   UNL     1       0.882  13.281  18.783  0.00  0.00    +0.000 NA
ENDBRANCH  21  24
ENDBRANCH  17  18
ENDBRANCH  10  17
TORSDOF 5
ENDMDL
MODEL 2
REMARK VINA RESULT:      -6.5      6.153     10.569
REMARK  Name = 
REMARK  6 active torsions:
REMARK  status: ('A' for Active; 'I' for Inactive)
REMARK    1  A    between atoms: C_1  and  O_2
REMARK    2  A    between atoms: O_2  and  C_3
REMARK    3  A    between atoms: C_3  and  C_4
REMARK    4  A    between atoms: N_13  and  C_14
REMARK    5  A    between atoms: C_14  and  C_15
REMARK    6  A    between atoms: C_18  and  C_19
REMARK                            x       y       z     vdW  Elec       q    Type
REMARK                         _______ _______ _______ _____ _____    ______ ____
ROOT
ATOM      1  C   UNL     1      -2.437  12.846  22.531  0.00  0.00    +0.000 C 
ATOM      2  O   UNL     1      -1.953  13.041  23.648  0.00  0.00    +0.000 OA
ATOM      3  N   UNL     1      -1.656  12.701  21.391  0.00  0.00    +0.000 N 
ATOM      4  C   UNL     1      -0.210  12.606  21.539  0.00  0.00    +0.000 C 
ATOM      5  C   UNL     1       0.319  11.414  20.744  0.00  0.00    +0.000 C 
ATOM      6  C   UNL     1      -0.069  11.489  19.242  0.00  0.00    +0.000 C 
ATOM      7  C   UNL     1       0.605  12.681  18.524  0.00  0.00    +0.000 C 
ATOM      8  C   UNL     1       2.117  12.510  18.470  0.00  0.00    +0.000 C 
ATOM      9  C   UNL     1       2.499  11.175  17.833  0.00  0.00    +0.000 C 
ATOM     10  N   UNL     1       1.842  10.023  18.477  0.00  0.00    +0.000 NA
ATOM     11  C   UNL     1       0.376  10.193  18.511  0.00  0.00    +0.000 C 
ATOM     12  C   UNL     1      -1.613  11.622  19.161  0.00  0.00    +0.000 C 
ATOM     13  C   UNL     1      -2.157  12.770  20.017  0.00  0.00    +0.000 C 
ENDROOT
BRANCH   1  14
ATOM     14  C   UNL     1      -3.953  12.673  22.376  0.00  0.00    +0.000 C 
BRANCH  14  16
ATOM     15  C   UNL     1      -5.777  13.232  23.774  0.00  0.00    +0.000 C 
ATOM     16  O   UNL     1      -4.647  12.384  23.587  0.00  0.00    +0.000 OA
ENDBRANCH  14  16
ENDBRANCH   1  14
BRANCH  10  17
ATOM     17  C   UNL     1       2.175   8.763  17.776  0.00  0.00    +0.000 C 
BRANCH  17  18
ATOM     18  C   UNL     1       2.128   7.538  18.668  0.00  0.00    +0.000 A 
ATOM     19  C   UNL     1       1.856   7.663  20.038  0.00  0.00    +0.000 A 
ATOM     20  C   UNL     1       1.869   6.540  20.870  0.00  0.00    +0.000 A 
ATOM     21  C   UNL     1       2.146   5.277  20.339  0.00  0.00    +0.000 A 
ATOM     22  C   UNL     1       2.392   5.139  18.969  0.00  0.00    +0.000 A 
ATOM     23  C   UNL     1       2.380   6.263  18.140  0.00  0.00    +0.000 A 
BRANCH  21  24
ATOM     24  C   UNL     1       2.195   4.127  21.197  0.00  0.00    +0.000 C 
ATOM     25  N   UNL     1       2.236   3.194  21.881  0.00  0.00    +0.000 NA
ENDBRANCH  21  24
ENDBRANCH  17  18
ENDBRANCH  10  17
TORSDOF 5
ENDMDL
MODEL 3
REMARK VINA RESULT:      -6.3      6.332     10.592
REMARK  Name = 
REMARK  6 active torsions:
REMARK  status: ('A' for Active; 'I' for Inactive)
REMARK    1  A    between atoms: C_1  and  O_2
REMARK    2  A    between atoms: O_2  and  C_3
REMARK    3  A    between atoms: C_3  and  C_4
REMARK    4  A    between atoms: N_13  and  C_14
REMARK    5  A    between atoms: C_14  and  C_15
REMARK    6  A    between atoms: C_18  and  C_19
REMARK                            x       y       z     vdW  Elec       q    Type
REMARK                         _______ _______ _______ _____ _____    ______ ____
ROOT
ATOM      1  C   UNL     1      -4.627  12.385  21.299  0.00  0.00    +0.000 C 
ATOM      2  O   UNL     1      -4.604  12.395  22.532  0.00  0.00    +0.000 OA
ATOM      3  N   UNL     1      -3.475  12.470  20.527  0.00  0.00    +0.000 N 
ATOM      4  C   UNL     1      -2.180  12.399  21.190  0.00  0.00    +0.000 C 
ATOM      5  C   UNL     1      -1.286  11.383  20.480  0.00  0.00    +0.000 C 
ATOM      6  C   UNL     1      -1.106  11.709  18.973  0.00  0.00    +0.000 C 
ATOM      7  C   UNL     1      -0.337  13.032  18.749  0.00  0.00    +0.000 C 
ATOM      8  C   UNL     1       1.101  12.923  19.240  0.00  0.00    +0.000 C 
ATOM      9  C   UNL     1       1.816  11.735  18.599  0.00  0.00    +0.000 C 
ATOM     10  N   UNL     1       1.084  10.467  18.767  0.00  0.00    +0.000 NA
ATOM     11  C   UNL     1      -0.303  10.578  18.274  0.00  0.00    +0.000 C 
ATOM     12  C   UNL     1      -2.521  11.803  18.341  0.00  0.00    +0.000 C 
ATOM     13  C   UNL     1      -3.447  12.763  19.093  0.00  0.00    +0.000 C 
ENDROOT
BRANCH   1  14
ATOM     14  C   UNL     1      -5.959  12.191  20.563  0.00  0.00    +0.000 C 
BRANCH  14  16
ATOM     15  C   UNL     1      -6.970  10.246  19.674  0.00  0.00    +0.000 C 
ATOM     16  O   UNL     1      -6.629  10.967  20.855  0.00  0.00    +0.000 OA
ENDBRANCH  14  16
ENDBRANCH   1  14
BRANCH  10  17
ATOM     17  C   UNL     1       1.769   9.362  18.060  0.00  0.00    +0.000 C 
BRANCH  17  18
ATOM     18  C   UNL     1       1.911   8.100  18.889  0.00  0.00    +0.000 A 
ATOM     19  C   UNL     1       2.407   6.920  18.315  0.00  0.00    +0.000 A 
ATOM     20  C   UNL     1       2.484   5.744  19.064  0.00  0.00    +0.000 A 
ATOM     21  C   UNL     1       2.073   5.736  20.401  0.00  0.00    +0.000 A 
ATOM     22  C   UNL     1       1.602   6.914  20.990  0.00  0.00    +0.000 A 
ATOM     23  C   UNL     1       1.525   8.089  20.238  0.00  0.00    +0.000 A 
BRANCH  21  24
ATOM     24  C   UNL     1       2.117   4.521  21.163  0.00  0.00    +0.000 C 
ATOM     25  N   UNL     1       2.160   3.541  21.780  0.00  0.00    +0.000 NA
ENDBRANCH  21  24
ENDBRANCH  17  18
ENDBRANCH  10  17
TORSDOF 5
ENDMDL
MODEL 4
REMARK VINA RESULT:      -6.2      1.664      2.510
REMARK  Name = 
REMARK  6 active torsions:
REMARK  status: ('A' for Active; 'I' for Inactive)
REMARK    1  A    between atoms: C_1  and  O_2
REMARK    2  A    between atoms: O_2  and  C_3
REMARK    3  A    between atoms: C_3  and  C_4
REMARK    4  A    between atoms: N_13  and  C_14
REMARK    5  A    between atoms: C_14  and  C_15
REMARK    6  A    between atoms: C_18  and  C_19
REMARK                            x       y       z     vdW  Elec       q    Type
REMARK                         _______ _______ _______ _____ _____    ______ ____
ROOT
ATOM      1  C   UNL     1       6.979   4.484  16.401  0.00  0.00    +0.000 C 
ATOM      2  O   UNL     1       8.082   4.690  16.914  0.00  0.00    +0.000 OA
ATOM      3  N   UNL     1       5.829   4.279  17.152  0.00  0.00    +0.000 N 
ATOM      4  C   UNL     1       5.889   4.482  18.594  0.00  0.00    +0.000 C 
ATOM      5  C   UNL     1       4.729   5.368  19.045  0.00  0.00    +0.000 C 
ATOM      6  C   UNL     1       3.349   4.785  18.635  0.00  0.00    +0.000 C 
ATOM      7  C   UNL     1       3.040   3.454  19.359  0.00  0.00    +0.000 C 
ATOM      8  C   UNL     1       2.881   3.664  20.859  0.00  0.00    +0.000 C 
ATOM      9  C   UNL     1       1.829   4.731  21.158  0.00  0.00    +0.000 C 
ATOM     10  N   UNL     1       2.081   6.000  20.451  0.00  0.00    +0.000 NA
ATOM     11  C   UNL     1       2.218   5.786  18.998  0.00  0.00    +0.000 C 
ATOM     12  C   UNL     1       3.369   4.564  17.099  0.00  0.00    +0.000 C 
ATOM     13  C   UNL     1       4.572   3.740  16.632  0.00  0.00    +0.000 C 
ENDROOT
BRANCH   1  14
ATOM     14  C   UNL     1       6.828   4.529  14.874  0.00  0.00    +0.000 C 
BRANCH  14  16
ATOM     15  C   UNL     1       7.784   5.163  12.806  0.00  0.00    +0.000 C 
ATOM     16  O   UNL     1       7.737   5.403  14.211  0.00  0.00    +0.000 OA
ENDBRANCH  14  16
ENDBRANCH   1  14
BRANCH  10  17
ATOM     17  C   UNL     1       0.994   6.972  20.705  0.00  0.00    +0.000 C 
BRANCH  17  18
ATOM     18  C   UNL     1       1.221   8.324  20.057  0.00  0.00    +0.000 A 
ATOM     19  C   UNL     1       1.859   8.420  18.811  0.00  0.00    +0.000 A 
ATOM     20  C   UNL     1       2.119   9.668  18.241  0.00  0.00    +0.000 A 
ATOM     21  C   UNL     1       1.734  10.837  18.906  0.00  0.00    +0.000 A 
ATOM     22  C   UNL     1       1.074  10.750  20.135  0.00  0.00    +0.000 A 
ATOM     23  C   UNL     1       0.817   9.500  20.705  0.00  0.00    +0.000 A 
BRANCH  21  24
ATOM     24  C   UNL     1       2.032  12.122  18.340  0.00  0.00    +0.000 C 
ATOM     25  N   UNL     1       2.277  13.160  17.890  0.00  0.00    +0.000 NA
ENDBRANCH  21  24
ENDBRANCH  17  18
ENDBRANCH  10  17
TORSDOF 5
ENDMDL
MODEL 5
REMARK VINA RESULT:      -6.0      1.661      2.377
REMARK  Name = 
REMARK  6 active torsions:
REMARK  status: ('A' for Active; 'I' for Inactive)
REMARK    1  A    between atoms: C_1  and  O_2
REMARK    2  A    between atoms: O_2  and  C_3
REMARK    3  A    between atoms: C_3  and  C_4
REMARK    4  A    between atoms: N_13  and  C_14
REMARK    5  A    between atoms: C_14  and  C_15
REMARK    6  A    between atoms: C_18  and  C_19
REMARK                            x       y       z     vdW  Elec       q    Type
REMARK                         _______ _______ _______ _____ _____    ______ ____
ROOT
ATOM      1  C   UNL     1       6.627   4.530  15.836  0.00  0.00    +0.000 C 
ATOM      2  O   UNL     1       7.774   4.808  16.192  0.00  0.00    +0.000 OA
ATOM      3  N   UNL     1       5.616   4.222  16.738  0.00  0.00    +0.000 N 
ATOM      4  C   UNL     1       5.869   4.398  18.162  0.00  0.00    +0.000 C 
ATOM      5  C   UNL     1       4.726   5.183  18.802  0.00  0.00    +0.000 C 
ATOM      6  C   UNL     1       3.348   4.506  18.576  0.00  0.00    +0.000 C 
ATOM      7  C   UNL     1       3.244   3.139  19.293  0.00  0.00    +0.000 C 
ATOM      8  C   UNL     1       3.290   3.305  20.806  0.00  0.00    +0.000 C 
ATOM      9  C   UNL     1       2.218   4.282  21.288  0.00  0.00    +0.000 C 
ATOM     10  N   UNL     1       2.273   5.581  20.594  0.00  0.00    +0.000 NA
ATOM     11  C   UNL     1       2.212   5.410  19.129  0.00  0.00    +0.000 C 
ATOM     12  C   UNL     1       3.160   4.320  17.047  0.00  0.00    +0.000 C 
ATOM     13  C   UNL     1       4.339   3.600  16.386  0.00  0.00    +0.000 C 
ENDROOT
BRANCH   1  14
ATOM     14  C   UNL     1       6.252   4.597  14.349  0.00  0.00    +0.000 C 
BRANCH  14  16
ATOM     15  C   UNL     1       6.430   3.587  12.218  0.00  0.00    +0.000 C 
ATOM     16  O   UNL     1       6.456   3.384  13.628  0.00  0.00    +0.000 OA
ENDBRANCH  14  16
ENDBRANCH   1  14
BRANCH  10  17
ATOM     17  C   UNL     1       1.167   6.462  21.032  0.00  0.00    +0.000 C 
BRANCH  17  18
ATOM     18  C   UNL     1       1.253   7.871  20.478  0.00  0.00    +0.000 A 
ATOM     19  C   UNL     1       0.751   8.957  21.211  0.00  0.00    +0.000 A 
ATOM     20  C   UNL     1       0.779  10.248  20.676  0.00  0.00    +0.000 A 
ATOM     21  C   UNL     1       1.318  10.469  19.405  0.00  0.00    +0.000 A 
ATOM     22  C   UNL     1       1.844   9.395  18.678  0.00  0.00    +0.000 A 
ATOM     23  C   UNL     1       1.813   8.105  19.214  0.00  0.00    +0.000 A 
BRANCH  21  24
ATOM     24  C   UNL     1       1.315  11.787  18.838  0.00  0.00    +0.000 C 
ATOM     25  N   UNL     1       1.310  12.854  18.388  0.00  0.00    +0.000 NA
ENDBRANCH  21  24
ENDBRANCH  17  18
ENDBRANCH  10  17
TORSDOF 5
ENDMDL
MODEL 6
REMARK VINA RESULT:      -6.0      4.873      9.739
REMARK  Name = 
REMARK  6 active torsions:
REMARK  status: ('A' for Active; 'I' for Inactive)
REMARK    1  A    between atoms: C_1  and  O_2
REMARK    2  A    between atoms: O_2  and  C_3
REMARK    3  A    between atoms: C_3  and  C_4
REMARK    4  A    between atoms: N_13  and  C_14
REMARK    5  A    between atoms: C_14  and  C_15
REMARK    6  A    between atoms: C_18  and  C_19
REMARK                            x       y       z     vdW  Elec       q    Type
REMARK                         _______ _______ _______ _____ _____    ______ ____
ROOT
ATOM      1  C   UNL     1       2.719  15.864  18.621  0.00  0.00    +0.000 C 
ATOM      2  O   UNL     1       3.131  15.925  17.460  0.00  0.00    +0.000 OA
ATOM      3  N   UNL     1       1.858  14.866  19.059  0.00  0.00    +0.000 N 
ATOM      4  C   UNL     1       1.563  13.753  18.167  0.00  0.00    +0.000 C 
ATOM      5  C   UNL     1       1.743  12.428  18.906  0.00  0.00    +0.000 C 
ATOM      6  C   UNL     1       0.868  12.344  20.185  0.00  0.00    +0.000 C 
ATOM      7  C   UNL     1      -0.644  12.330  19.858  0.00  0.00    +0.000 C 
ATOM      8  C   UNL     1      -1.033  11.065  19.104  0.00  0.00    +0.000 C 
ATOM      9  C   UNL     1      -0.605   9.813  19.868  0.00  0.00    +0.000 C 
ATOM     10  N   UNL     1       0.825   9.819  20.224  0.00  0.00    +0.000 NA
ATOM     11  C   UNL     1       1.188  11.041  20.967  0.00  0.00    +0.000 C 
ATOM     12  C   UNL     1       1.208  13.573  21.070  0.00  0.00    +0.000 C 
ATOM     13  C   UNL     1       1.103  14.900  20.313  0.00  0.00    +0.000 C 
ENDROOT
BRANCH   1  14
ATOM     14  C   UNL     1       3.223  16.871  19.664  0.00  0.00    +0.000 C 
BRANCH  14  16
ATOM     15  C   UNL     1       5.565  17.090  19.907  0.00  0.00    +0.000 C 
ATOM     16  O   UNL     1       4.389  17.594  19.279  0.00  0.00    +0.000 OA
ENDBRANCH  14  16
ENDBRANCH   1  14
BRANCH  10  17
ATOM     17  C   UNL     1       1.174   8.629  21.033  0.00  0.00    +0.000 C 
BRANCH  17  18
ATOM     18  C   UNL     1       1.727   7.477  20.217  0.00  0.00    +0.000 A 
ATOM     19  C   UNL     1       2.319   7.707  18.967  0.00  0.00    +0.000 A 
ATOM     20  C   UNL     1       2.777   6.640  18.190  0.00  0.00    +0.000 A 
ATOM     21  C   UNL     1       2.655   5.328  18.659  0.00  0.00    +0.000 A 
ATOM     22  C   UNL     1       2.090   5.091  19.916  0.00  0.00    +0.000 A 
ATOM     23  C   UNL     1       1.631   6.160  20.691  0.00  0.00    +0.000 A 
BRANCH  21  24
ATOM     24  C   UNL     1       3.091   4.227  17.849  0.00  0.00    +0.000 C 
ATOM     25  N   UNL     1       3.434   3.337  17.193  0.00  0.00    +0.000 NA
ENDBRANCH  21  24
ENDBRANCH  17  18
ENDBRANCH  10  17
TORSDOF 5
ENDMDL
MODEL 7
REMARK VINA RESULT:      -5.8      5.082      9.689
REMARK  Name = 
REMARK  6 active torsions:
REMARK  status: ('A' for Active; 'I' for Inactive)
REMARK    1  A    between atoms: C_1  and  O_2
REMARK    2  A    between atoms: O_2  and  C_3
REMARK    3  A    between atoms: C_3  and  C_4
REMARK    4  A    between atoms: N_13  and  C_14
REMARK    5  A    between atoms: C_14  and  C_15
REMARK    6  A    between atoms: C_18  and  C_19
REMARK                            x       y       z     vdW  Elec       q    Type
REMARK                         _______ _______ _______ _____ _____    ______ ____
ROOT
ATOM      1  C   UNL     1       6.332  15.316  19.143  0.00  0.00    +0.000 C 
ATOM      2  O   UNL     1       6.783  15.503  18.011  0.00  0.00    +0.000 OA
ATOM      3  N   UNL     1       4.978  15.130  19.391  0.00  0.00    +0.000 N 
ATOM      4  C   UNL     1       4.073  14.982  18.259  0.00  0.00    +0.000 C 
ATOM      5  C   UNL     1       3.176  13.762  18.464  0.00  0.00    +0.000 C 
ATOM      6  C   UNL     1       2.376  13.837  19.792  0.00  0.00    +0.000 C 
ATOM      7  C   UNL     1       1.352  14.995  19.793  0.00  0.00    +0.000 C 
ATOM      8  C   UNL     1       0.259  14.766  18.757  0.00  0.00    +0.000 C 
ATOM      9  C   UNL     1      -0.417  13.411  18.959  0.00  0.00    +0.000 C 
ATOM     10  N   UNL     1       0.542  12.292  18.998  0.00  0.00    +0.000 NA
ATOM     11  C   UNL     1       1.587  12.517  20.015  0.00  0.00    +0.000 C 
ATOM     12  C   UNL     1       3.397  14.028  20.946  0.00  0.00    +0.000 C 
ATOM     13  C   UNL     1       4.349  15.204  20.709  0.00  0.00    +0.000 C 
ENDROOT
BRANCH   1  14
ATOM     14  C   UNL     1       7.291  15.199  20.336  0.00  0.00    +0.000 C 
BRANCH  14  16
ATOM     15  C   UNL     1       7.362  17.491  20.914  0.00  0.00    +0.000 C 
ATOM     16  O   UNL     1       8.119  16.340  20.550  0.00  0.00    +0.000 OA
ENDBRANCH  14  16
ENDBRANCH   1  14
BRANCH  10  17
ATOM     17  C   UNL     1      -0.149  11.013  19.278  0.00  0.00    +0.000 C 
BRANCH  17  18
ATOM     18  C   UNL     1       0.759   9.800  19.206  0.00  0.00    +0.000 A 
ATOM     19  C   UNL     1       1.375   9.442  17.998  0.00  0.00    +0.000 A 
ATOM     20  C   UNL     1       2.166   8.293  17.918  0.00  0.00    +0.000 A 
ATOM     21  C   UNL     1       2.358   7.493  19.049  0.00  0.00    +0.000 A 
ATOM     22  C   UNL     1       1.769   7.858  20.264  0.00  0.00    +0.000 A 
ATOM     23  C   UNL     1       0.977   9.006  20.342  0.00  0.00    +0.000 A 
BRANCH  21  24
ATOM     24  C   UNL     1       3.139   6.293  18.962  0.00  0.00    +0.000 C 
ATOM     25  N   UNL     1       3.771   5.324  18.900  0.00  0.00    +0.000 NA
ENDBRANCH  21  24
ENDBRANCH  17  18
ENDBRANCH  10  17
TORSDOF 5
ENDMDL
MODEL 8
REMARK VINA RESULT:      -5.8      5.116      9.486
REMARK  Name = 
REMARK  6 active torsions:
REMARK  status: ('A' for Active; 'I' for Inactive)
REMARK    1  A    between atoms: C_1  and  O_2
REMARK    2  A    between atoms: O_2  and  C_3
REMARK    3  A    between atoms: C_3  and  C_4
REMARK    4  A    between atoms: N_13  and  C_14
REMARK    5  A    between atoms: C_14  and  C_15
REMARK    6  A    between atoms: C_18  and  C_19
REMARK                            x       y       z     vdW  Elec       q    Type
REMARK                         _______ _______ _______ _____ _____    ______ ____
ROOT
ATOM      1  C   UNL     1       6.628  15.130  18.796  0.00  0.00    +0.000 C 
ATOM      2  O   UNL     1       7.034  15.200  17.633  0.00  0.00    +0.000 OA
ATOM      3  N   UNL     1       5.278  15.056  19.114  0.00  0.00    +0.000 N 
ATOM      4  C   UNL     1       4.312  14.884  18.037  0.00  0.00    +0.000 C 
ATOM      5  C   UNL     1       3.349  13.747  18.376  0.00  0.00    +0.000 C 
ATOM      6  C   UNL     1       2.620  13.977  19.728  0.00  0.00    +0.000 C 
ATOM      7  C   UNL     1       1.674  15.199  19.680  0.00  0.00    +0.000 C 
ATOM      8  C   UNL     1       0.520  14.967  18.714  0.00  0.00    +0.000 C 
ATOM      9  C   UNL     1      -0.232  13.680  19.050  0.00  0.00    +0.000 C 
ATOM     10  N   UNL     1       0.653  12.505  19.137  0.00  0.00    +0.000 NA
ATOM     11  C   UNL     1       1.759  12.735  20.087  0.00  0.00    +0.000 C 
ATOM     12  C   UNL     1       3.705  14.185  20.818  0.00  0.00    +0.000 C 
ATOM     13  C   UNL     1       4.718  15.272  20.449  0.00  0.00    +0.000 C 
ENDROOT
BRANCH   1  14
ATOM     14  C   UNL     1       7.633  15.038  19.951  0.00  0.00    +0.000 C 
BRANCH  14  16
ATOM     15  C   UNL     1       9.880  15.123  20.686  0.00  0.00    +0.000 C 
ATOM     16  O   UNL     1       8.992  15.247  19.577  0.00  0.00    +0.000 OA
ENDBRANCH  14  16
ENDBRANCH   1  14
BRANCH  10  17
ATOM     17  C   UNL     1      -0.104  11.301  19.546  0.00  0.00    +0.000 C 
BRANCH  17  18
ATOM     18  C   UNL     1       0.687  10.013  19.429  0.00  0.00    +0.000 A 
ATOM     19  C   UNL     1       0.816   9.153  20.530  0.00  0.00    +0.000 A 
ATOM     20  C   UNL     1       1.592   7.995  20.440  0.00  0.00    +0.000 A 
ATOM     21  C   UNL     1       2.243   7.678  19.243  0.00  0.00    +0.000 A 
ATOM     22  C   UNL     1       2.098   8.516  18.132  0.00  0.00    +0.000 A 
ATOM     23  C   UNL     1       1.323   9.675  18.226  0.00  0.00    +0.000 A 
BRANCH  21  24
ATOM     24  C   UNL     1       3.070   6.509  19.157  0.00  0.00    +0.000 C 
ATOM     25  N   UNL     1       3.732   5.562  19.082  0.00  0.00    +0.000 NA
ENDBRANCH  21  24
ENDBRANCH  17  18
ENDBRANCH  10  17
TORSDOF 5
ENDMDL
MODEL 9
REMARK VINA RESULT:      -5.7      5.066     10.182
REMARK  Name = 
REMARK  6 active torsions:
REMARK  status: ('A' for Active; 'I' for Inactive)
REMARK    1  A    between atoms: C_1  and  O_2
REMARK    2  A    between atoms: O_2  and  C_3
REMARK    3  A    between atoms: C_3  and  C_4
REMARK    4  A    between atoms: N_13  and  C_14
REMARK    5  A    between atoms: C_14  and  C_15
REMARK    6  A    between atoms: C_18  and  C_19
REMARK                            x       y       z     vdW  Elec       q    Type
REMARK                         _______ _______ _______ _____ _____    ______ ____
ROOT
ATOM      1  C   UNL     1       1.651  16.312  19.099  0.00  0.00    +0.000 C 
ATOM      2  O   UNL     1       2.016  16.504  17.937  0.00  0.00    +0.000 OA
ATOM      3  N   UNL     1       0.973  15.165  19.492  0.00  0.00    +0.000 N 
ATOM      4  C   UNL     1       0.835  14.071  18.539  0.00  0.00    +0.000 C 
ATOM      5  C   UNL     1       1.245  12.754  19.194  0.00  0.00    +0.000 C 
ATOM      6  C   UNL     1       0.429  12.457  20.481  0.00  0.00    +0.000 C 
ATOM      7  C   UNL     1      -1.069  12.218  20.180  0.00  0.00    +0.000 C 
ATOM      8  C   UNL     1      -1.272  10.952  19.358  0.00  0.00    +0.000 C 
ATOM      9  C   UNL     1      -0.629   9.743  20.037  0.00  0.00    +0.000 C 
ATOM     10  N   UNL     1       0.791   9.960  20.367  0.00  0.00    +0.000 NA
ATOM     11  C   UNL     1       0.974  11.180  21.177  0.00  0.00    +0.000 C 
ATOM     12  C   UNL     1       0.593  13.673  21.432  0.00  0.00    +0.000 C 
ATOM     13  C   UNL     1       0.257  15.006  20.758  0.00  0.00    +0.000 C 
ENDROOT
BRANCH   1  14
ATOM     14  C   UNL     1       2.015  17.326  20.192  0.00  0.00    +0.000 C 
BRANCH  14  16
ATOM     15  C   UNL     1       4.367  17.240  20.425  0.00  0.00    +0.000 C 
ATOM     16  O   UNL     1       3.250  18.008  19.985  0.00  0.00    +0.000 OA
ENDBRANCH  14  16
ENDBRANCH   1  14
BRANCH  10  17
ATOM     17  C   UNL     1       1.348   8.798  21.097  0.00  0.00    +0.000 C 
BRANCH  17  18
ATOM     18  C   UNL     1       1.758   7.650  20.195  0.00  0.00    +0.000 A 
ATOM     19  C   UNL     1       1.636   6.322  20.630  0.00  0.00    +0.000 A 
ATOM     20  C   UNL     1       2.068   5.268  19.821  0.00  0.00    +0.000 A 
ATOM     21  C   UNL     1       2.618   5.529  18.563  0.00  0.00    +0.000 A 
ATOM     22  C   UNL     1       2.719   6.848  18.110  0.00  0.00    +0.000 A 
ATOM     23  C   UNL     1       2.289   7.901  18.921  0.00  0.00    +0.000 A 
BRANCH  21  24
ATOM     24  C   UNL     1       3.095   4.451  17.745  0.00  0.00    +0.000 C 
ATOM     25  N   UNL     1       3.481   3.576  17.092  0.00  0.00    +0.000 NA
ENDBRANCH  21  24
ENDBRANCH  17  18
ENDBRANCH  10  17
TORSDOF 5
ENDMDL
