MODEL 1
REMARK VINA RESULT:      -6.9      0.000      0.000
REMARK  Name = 
REMARK  7 active torsions:
REMARK  status: ('A' for Active; 'I' for Inactive)
REMARK    1  A    between atoms: C_1  and  O_2
REMARK    2  A    between atoms: O_2  and  C_3
REMARK    3  A    between atoms: C_3  and  C_4
REMARK    4  A    between atoms: C_4  and  N_5
REMARK    5  A    between atoms: C_6  and  C_8
REMARK    6  A    between atoms: C_8  and  C_9
REMARK    7  A    between atoms: C_14  and  C_16
REMARK                            x       y       z     vdW  Elec       q    Type
REMARK                         _______ _______ _______ _____ _____    ______ ____
ROOT
ATOM      1  C   UNL     1      10.202  12.068  19.549  0.00  0.00    +0.000 C 
ATOM      2  C   UNL     1       9.806  11.438  20.904  0.00  0.00    +0.000 C 
ATOM      3  C   UNL     1      11.685  11.765  19.263  0.00  0.00    +0.000 C 
ATOM      4  C   UNL     1      12.257  12.592  18.112  0.00  0.00    +0.000 C 
ATOM      5  C   UNL     1      11.983  14.083  18.294  0.00  0.00    +0.000 C 
ATOM      6  N   UNL     1      10.562  14.339  18.534  0.00  0.00    +0.000 N 
ATOM      7  C   UNL     1       9.936  15.373  17.812  0.00  0.00    +0.000 C 
ATOM      8  O   UNL     1      10.510  15.946  16.882  0.00  0.00    +0.000 OA
ATOM      9  C   UNL     1       9.971  13.586  19.653  0.00  0.00    +0.000 C 
ENDROOT
BRANCH   7  10
ATOM     10  C   UNL     1       8.529  15.780  18.099  0.00  0.00    +0.000 A 
ATOM     11  C   UNL     1       8.284  17.011  18.681  0.00  0.00    +0.000 A 
ATOM     12  N   UNL     1       7.030  17.435  18.990  0.00  0.00    +0.000 NA
ATOM     13  C   UNL     1       6.023  16.588  18.697  0.00  0.00    +0.000 A 
ATOM     14  C   UNL     1       4.712  16.934  18.996  0.00  0.00    +0.000 A 
ATOM     15  C   UNL     1       3.648  16.080  18.698  0.00  0.00    +0.000 A 
ATOM     16  C   UNL     1       3.896  14.866  18.071  0.00  0.00    +0.000 A 
ATOM     17  C   UNL     1       5.208  14.505  17.769  0.00  0.00    +0.000 A 
ATOM     18  C   UNL     1       6.276  15.331  18.091  0.00  0.00    +0.000 A 
ATOM     19  N   UNL     1       7.523  14.917  17.816  0.00  0.00    +0.000 NA
ENDBRANCH   7  10
BRANCH   1  21
ATOM     20  N   UNL     1       8.963  10.103  18.659  0.00  0.00    +0.000 N 
ATOM     21  C   UNL     1       9.284  11.426  18.484  0.00  0.00    +0.000 C 
ATOM     22  O   UNL     1       8.820  12.075  17.546  0.00  0.00    +0.000 OA
ATOM     23  H   UNL     1       9.182   9.651  19.542  0.00  0.00    +0.000 HD
BRANCH  20  24
ATOM     24  C   UNL     1       8.083   9.391  17.751  0.00  0.00    +0.000 C 
BRANCH  24  25
ATOM     25  C   UNL     1       8.042   7.891  18.057  0.00  0.00    +0.000 C 
BRANCH  25  27
ATOM     26  C   UNL     1       6.133   6.842  17.082  0.00  0.00    +0.000 C 
ATOM     27  O   UNL     1       7.525   7.114  16.972  0.00  0.00    +0.000 OA
ENDBRANCH  25  27
ENDBRANCH  24  25
ENDBRANCH  20  24
ENDBRANCH   1  21
TORSDOF 5
ENDMDL
MODEL 2
REMARK VINA RESULT:      -6.9      6.784     10.856
REMARK  Name = 
REMARK  7 active torsions:
REMARK  status: ('A' for Active; 'I' for Inactive)
REMARK    1  A    between atoms: C_1  and  O_2
REMARK    2  A    between atoms: O_2  and  C_3
REMARK    3  A    between atoms: C_3  and  C_4
REMARK    4  A    between atoms: C_4  and  N_5
REMARK    5  A    between atoms: C_6  and  C_8
REMARK    6  A    between atoms: C_8  and  C_9
REMARK    7  A    between atoms: C_14  and  C_16
REMARK                            x       y       z     vdW  Elec       q    Type
REMARK                         _______ _______ _______ _____ _____    ______ ____
ROOT
ATOM      1  C   UNL     1       2.216   3.426  20.413  0.00  0.00    +0.000 C 
ATOM      2  C   UNL     1       2.441   3.185  21.923  0.00  0.00    +0.000 C 
ATOM      3  C   UNL     1       1.134   2.456  19.901  0.00  0.00    +0.000 C 
ATOM      4  C   UNL     1       1.052   2.397  18.376  0.00  0.00    +0.000 C 
ATOM      5  C   UNL     1       2.419   2.145  17.744  0.00  0.00    +0.000 C 
ATOM      6  N   UNL     1       3.414   3.102  18.228  0.00  0.00    +0.000 N 
ATOM      7  C   UNL     1       4.253   3.730  17.288  0.00  0.00    +0.000 C 
ATOM      8  O   UNL     1       4.057   3.616  16.075  0.00  0.00    +0.000 OA
ATOM      9  C   UNL     1       3.552   3.174  19.693  0.00  0.00    +0.000 C 
ENDROOT
BRANCH   7  10
ATOM     10  C   UNL     1       5.378   4.612  17.717  0.00  0.00    +0.000 A 
ATOM     11  C   UNL     1       6.285   4.148  18.654  0.00  0.00    +0.000 A 
ATOM     12  N   UNL     1       7.318   4.906  19.105  0.00  0.00    +0.000 NA
ATOM     13  C   UNL     1       7.421   6.147  18.589  0.00  0.00    +0.000 A 
ATOM     14  C   UNL     1       8.438   6.994  19.009  0.00  0.00    +0.000 A 
ATOM     15  C   UNL     1       8.573   8.283  18.487  0.00  0.00    +0.000 A 
ATOM     16  C   UNL     1       7.688   8.726  17.512  0.00  0.00    +0.000 A 
ATOM     17  C   UNL     1       6.660   7.887  17.086  0.00  0.00    +0.000 A 
ATOM     18  C   UNL     1       6.497   6.617  17.622  0.00  0.00    +0.000 A 
ATOM     19  N   UNL     1       5.465   5.864  17.206  0.00  0.00    +0.000 NA
ENDBRANCH   7  10
BRANCH   1  21
ATOM     20  N   UNL     1       2.656   5.769  19.702  0.00  0.00    +0.000 N 
ATOM     21  C   UNL     1       1.761   4.897  20.269  0.00  0.00    +0.000 C 
ATOM     22  O   UNL     1       0.634   5.267  20.601  0.00  0.00    +0.000 OA
ATOM     23  H   UNL     1       3.488   5.404  19.249  0.00  0.00    +0.000 HD
BRANCH  20  24
ATOM     24  C   UNL     1       2.340   7.168  19.479  0.00  0.00    +0.000 C 
BRANCH  24  25
ATOM     25  C   UNL     1       2.514   7.563  18.009  0.00  0.00    +0.000 C 
BRANCH  25  27
ATOM     26  C   UNL     1       1.215   9.565  18.005  0.00  0.00    +0.000 C 
ATOM     27  O   UNL     1       2.496   8.979  17.806  0.00  0.00    +0.000 OA
ENDBRANCH  25  27
ENDBRANCH  24  25
ENDBRANCH  20  24
ENDBRANCH   1  21
TORSDOF 5
ENDMDL
MODEL 3
REMARK VINA RESULT:      -6.6      8.583     11.332
REMARK  Name = 
REMARK  7 active torsions:
REMARK  status: ('A' for Active; 'I' for Inactive)
REMARK    1  A    between atoms: C_1  and  O_2
REMARK    2  A    between atoms: O_2  and  C_3
REMARK    3  A    between atoms: C_3  and  C_4
REMARK    4  A    between atoms: C_4  and  N_5
REMARK    5  A    between atoms: C_6  and  C_8
REMARK    6  A    between atoms: C_8  and  C_9
REMARK    7  A    between atoms: C_14  and  C_16
REMARK                            x       y       z     vdW  Elec       q    Type
REMARK                         _______ _______ _______ _____ _____    ______ ____
ROOT
ATOM      1  C   UNL     1       2.839   3.384  18.675  0.00  0.00    +0.000 C 
ATOM      2  C   UNL     1       2.057   2.160  18.146  0.00  0.00    +0.000 C 
ATOM      3  C   UNL     1       2.002   4.089  19.759  0.00  0.00    +0.000 C 
ATOM      4  C   UNL     1       2.539   5.472  20.128  0.00  0.00    +0.000 C 
ATOM      5  C   UNL     1       2.760   6.342  18.893  0.00  0.00    +0.000 C 
ATOM      6  N   UNL     1       3.582   5.655  17.897  0.00  0.00    +0.000 N 
ATOM      7  C   UNL     1       4.647   6.361  17.304  0.00  0.00    +0.000 C 
ATOM      8  O   UNL     1       4.993   7.469  17.720  0.00  0.00    +0.000 OA
ATOM      9  C   UNL     1       3.090   4.329  17.486  0.00  0.00    +0.000 C 
ENDROOT
BRANCH   7  10
ATOM     10  C   UNL     1       5.442   5.773  16.186  0.00  0.00    +0.000 A 
ATOM     11  C   UNL     1       6.811   5.970  16.150  0.00  0.00    +0.000 A 
ATOM     12  N   UNL     1       7.592   5.482  15.151  0.00  0.00    +0.000 NA
ATOM     13  C   UNL     1       6.961   4.787  14.183  0.00  0.00    +0.000 A 
ATOM     14  C   UNL     1       7.681   4.268  13.115  0.00  0.00    +0.000 A 
ATOM     15  C   UNL     1       7.055   3.538  12.102  0.00  0.00    +0.000 A 
ATOM     16  C   UNL     1       5.688   3.303  12.168  0.00  0.00    +0.000 A 
ATOM     17  C   UNL     1       4.953   3.822  13.233  0.00  0.00    +0.000 A 
ATOM     18  C   UNL     1       5.560   4.577  14.228  0.00  0.00    +0.000 A 
ATOM     19  N   UNL     1       4.799   5.088  15.209  0.00  0.00    +0.000 NA
ENDBRANCH   7  10
BRANCH   1  21
ATOM     20  N   UNL     1       4.134   1.569  19.779  0.00  0.00    +0.000 N 
ATOM     21  C   UNL     1       4.163   2.838  19.257  0.00  0.00    +0.000 C 
ATOM     22  O   UNL     1       5.210   3.485  19.215  0.00  0.00    +0.000 OA
ATOM     23  H   UNL     1       3.322   0.982  19.613  0.00  0.00    +0.000 HD
BRANCH  20  24
ATOM     24  C   UNL     1       5.316   0.927  20.324  0.00  0.00    +0.000 C 
BRANCH  24  25
ATOM     25  C   UNL     1       5.330   0.967  21.855  0.00  0.00    +0.000 C 
BRANCH  25  27
ATOM     26  C   UNL     1       6.702  -0.947  22.241  0.00  0.00    +0.000 C 
ATOM     27  O   UNL     1       6.543   0.456  22.415  0.00  0.00    +0.000 OA
ENDBRANCH  25  27
ENDBRANCH  24  25
ENDBRANCH  20  24
ENDBRANCH   1  21
TORSDOF 5
ENDMDL
MODEL 4
REMARK VINA RESULT:      -6.5      0.900      1.578
REMARK  Name = 
REMARK  7 active torsions:
REMARK  status: ('A' for Active; 'I' for Inactive)
REMARK    1  A    between atoms: C_1  and  O_2
REMARK    2  A    between atoms: O_2  and  C_3
REMARK    3  A    between atoms: C_3  and  C_4
REMARK    4  A    between atoms: C_4  and  N_5
REMARK    5  A    between atoms: C_6  and  C_8
REMARK    6  A    between atoms: C_8  and  C_9
REMARK    7  A    between atoms: C_14  and  C_16
REMARK                            x       y       z     vdW  Elec       q    Type
REMARK                         _______ _______ _______ _____ _____    ______ ____
ROOT
ATOM      1  C   UNL     1       9.873  11.786  19.746  0.00  0.00    +0.000 C 
ATOM      2  C   UNL     1       9.452  11.043  21.034  0.00  0.00    +0.000 C 
ATOM      3  C   UNL     1      11.392  11.630  19.544  0.00  0.00    +0.000 C 
ATOM      4  C   UNL     1      11.957  12.572  18.480  0.00  0.00    +0.000 C 
ATOM      5  C   UNL     1      11.539  14.020  18.725  0.00  0.00    +0.000 C 
ATOM      6  N   UNL     1      10.089  14.136  18.882  0.00  0.00    +0.000 N 
ATOM      7  C   UNL     1       9.418  15.154  18.177  0.00  0.00    +0.000 C 
ATOM      8  O   UNL     1       9.994  15.829  17.321  0.00  0.00    +0.000 OA
ATOM      9  C   UNL     1       9.500  13.269  19.917  0.00  0.00    +0.000 C 
ENDROOT
BRANCH   7  10
ATOM     10  C   UNL     1       7.965  15.420  18.391  0.00  0.00    +0.000 A 
ATOM     11  C   UNL     1       7.031  14.743  17.626  0.00  0.00    +0.000 A 
ATOM     12  N   UNL     1       5.695  14.952  17.754  0.00  0.00    +0.000 NA
ATOM     13  C   UNL     1       5.316  15.862  18.673  0.00  0.00    +0.000 A 
ATOM     14  C   UNL     1       3.970  16.151  18.856  0.00  0.00    +0.000 A 
ATOM     15  C   UNL     1       3.548  17.084  19.806  0.00  0.00    +0.000 A 
ATOM     16  C   UNL     1       4.487  17.725  20.603  0.00  0.00    +0.000 A 
ATOM     17  C   UNL     1       5.841  17.448  20.427  0.00  0.00    +0.000 A 
ATOM     18  C   UNL     1       6.274  16.547  19.463  0.00  0.00    +0.000 A 
ATOM     19  N   UNL     1       7.592  16.347  19.307  0.00  0.00    +0.000 NA
ENDBRANCH   7  10
BRANCH   1  21
ATOM     20  N   UNL     1       8.793   9.796  18.713  0.00  0.00    +0.000 N 
ATOM     21  C   UNL     1       9.084  11.132  18.588  0.00  0.00    +0.000 C 
ATOM     22  O   UNL     1       8.691  11.781  17.618  0.00  0.00    +0.000 OA
ATOM     23  H   UNL     1       8.941   9.337  19.606  0.00  0.00    +0.000 HD
BRANCH  20  24
ATOM     24  C   UNL     1       8.030   9.072  17.714  0.00  0.00    +0.000 C 
BRANCH  24  25
ATOM     25  C   UNL     1       7.998   7.568  18.002  0.00  0.00    +0.000 C 
BRANCH  25  27
ATOM     26  C   UNL     1       5.946   6.850  17.019  0.00  0.00    +0.000 C 
ATOM     27  O   UNL     1       7.367   6.814  16.963  0.00  0.00    +0.000 OA
ENDBRANCH  25  27
ENDBRANCH  24  25
ENDBRANCH  20  24
ENDBRANCH   1  21
TORSDOF 5
ENDMDL
MODEL 5
REMARK VINA RESULT:      -6.4      3.728      4.975
REMARK  Name = 
REMARK  7 active torsions:
REMARK  status: ('A' for Active; 'I' for Inactive)
REMARK    1  A    between atoms: C_1  and  O_2
REMARK    2  A    between atoms: O_2  and  C_3
REMARK    3  A    between atoms: C_3  and  C_4
REMARK    4  A    between atoms: C_4  and  N_5
REMARK    5  A    between atoms: C_6  and  C_8
REMARK    6  A    between atoms: C_8  and  C_9
REMARK    7  A    between atoms: C_14  and  C_16
REMARK                            x       y       z     vdW  Elec       q    Type
REMARK                         _______ _______ _______ _____ _____    ______ ____
ROOT
ATOM      1  C   UNL     1      10.512  12.393  19.699  0.00  0.00    +0.000 C 
ATOM      2  C   UNL     1      11.957  12.011  20.090  0.00  0.00    +0.000 C 
ATOM      3  C   UNL     1      10.497  12.892  18.242  0.00  0.00    +0.000 C 
ATOM      4  C   UNL     1       9.187  13.579  17.855  0.00  0.00    +0.000 C 
ATOM      5  C   UNL     1       8.799  14.665  18.855  0.00  0.00    +0.000 C 
ATOM      6  N   UNL     1       8.794  14.150  20.225  0.00  0.00    +0.000 N 
ATOM      7  C   UNL     1       7.694  14.452  21.051  0.00  0.00    +0.000 C 
ATOM      8  O   UNL     1       6.681  14.992  20.599  0.00  0.00    +0.000 OA
ATOM      9  C   UNL     1      10.046  13.505  20.656  0.00  0.00    +0.000 C 
ENDROOT
BRANCH   7  10
ATOM     10  C   UNL     1       7.681  14.078  22.496  0.00  0.00    +0.000 A 
ATOM     11  C   UNL     1       8.378  14.855  23.405  0.00  0.00    +0.000 A 
ATOM     12  N   UNL     1       8.426  14.559  24.730  0.00  0.00    +0.000 NA
ATOM     13  C   UNL     1       7.754  13.458  25.123  0.00  0.00    +0.000 A 
ATOM     14  C   UNL     1       7.766  13.073  26.457  0.00  0.00    +0.000 A 
ATOM     15  C   UNL     1       7.072  11.942  26.894  0.00  0.00    +0.000 A 
ATOM     16  C   UNL     1       6.336  11.193  25.985  0.00  0.00    +0.000 A 
ATOM     17  C   UNL     1       6.320  11.567  24.643  0.00  0.00    +0.000 A 
ATOM     18  C   UNL     1       7.032  12.670  24.192  0.00  0.00    +0.000 A 
ATOM     19  N   UNL     1       7.016  12.962  22.881  0.00  0.00    +0.000 NA
ENDBRANCH   7  10
BRANCH   1  21
ATOM     20  N   UNL     1       9.497  10.334  18.741  0.00  0.00    +0.000 N 
ATOM     21  C   UNL     1       9.663  11.111  19.860  0.00  0.00    +0.000 C 
ATOM     22  O   UNL     1       9.194  10.772  20.947  0.00  0.00    +0.000 OA
ATOM     23  H   UNL     1      10.061  10.520  17.918  0.00  0.00    +0.000 HD
BRANCH  20  24
ATOM     24  C   UNL     1       8.752   9.088  18.766  0.00  0.00    +0.000 C 
BRANCH  24  25
ATOM     25  C   UNL     1       7.783   8.981  17.585  0.00  0.00    +0.000 C 
BRANCH  25  27
ATOM     26  C   UNL     1       7.697   6.674  18.188  0.00  0.00    +0.000 C 
ATOM     27  O   UNL     1       7.586   7.634  17.144  0.00  0.00    +0.000 OA
ENDBRANCH  25  27
ENDBRANCH  24  25
ENDBRANCH  20  24
ENDBRANCH   1  21
TORSDOF 5
ENDMDL
MODEL 6
REMARK VINA RESULT:      -6.4      6.864     10.736
REMARK  Name = 
REMARK  7 active torsions:
REMARK  status: ('A' for Active; 'I' for Inactive)
REMARK    1  A    between atoms: C_1  and  O_2
REMARK    2  A    between atoms: O_2  and  C_3
REMARK    3  A    between atoms: C_3  and  C_4
REMARK    4  A    between atoms: C_4  and  N_5
REMARK    5  A    between atoms: C_6  and  C_8
REMARK    6  A    between atoms: C_8  and  C_9
REMARK    7  A    between atoms: C_14  and  C_16
REMARK                            x       y       z     vdW  Elec       q    Type
REMARK                         _______ _______ _______ _____ _____    ______ ____
ROOT
ATOM      1  C   UNL     1       2.363   4.023  20.183  0.00  0.00    +0.000 C 
ATOM      2  C   UNL     1       2.393   4.019  21.728  0.00  0.00    +0.000 C 
ATOM      3  C   UNL     1       1.366   2.956  19.693  0.00  0.00    +0.000 C 
ATOM      4  C   UNL     1       1.483   2.665  18.197  0.00  0.00    +0.000 C 
ATOM      5  C   UNL     1       2.922   2.359  17.790  0.00  0.00    +0.000 C 
ATOM      6  N   UNL     1       3.838   3.406  18.244  0.00  0.00    +0.000 N 
ATOM      7  C   UNL     1       4.786   3.909  17.332  0.00  0.00    +0.000 C 
ATOM      8  O   UNL     1       4.750   3.608  16.137  0.00  0.00    +0.000 OA
ATOM      9  C   UNL     1       3.784   3.703  19.686  0.00  0.00    +0.000 C 
ENDROOT
BRANCH   7  10
ATOM     10  C   UNL     1       5.838   4.878  17.760  0.00  0.00    +0.000 A 
ATOM     11  C   UNL     1       6.798   4.478  18.674  0.00  0.00    +0.000 A 
ATOM     12  N   UNL     1       7.770   5.314  19.123  0.00  0.00    +0.000 NA
ATOM     13  C   UNL     1       7.756   6.568  18.629  0.00  0.00    +0.000 A 
ATOM     14  C   UNL     1       8.703   7.493  19.048  0.00  0.00    +0.000 A 
ATOM     15  C   UNL     1       8.718   8.797  18.549  0.00  0.00    +0.000 A 
ATOM     16  C   UNL     1       7.781   9.179  17.597  0.00  0.00    +0.000 A 
ATOM     17  C   UNL     1       6.822   8.262  17.171  0.00  0.00    +0.000 A 
ATOM     18  C   UNL     1       6.778   6.973  17.685  0.00  0.00    +0.000 A 
ATOM     19  N   UNL     1       5.809   6.141  17.272  0.00  0.00    +0.000 NA
ENDBRANCH   7  10
BRANCH   1  21
ATOM     20  N   UNL     1       1.952   6.416  20.724  0.00  0.00    +0.000 N 
ATOM     21  C   UNL     1       1.918   5.441  19.758  0.00  0.00    +0.000 C 
ATOM     22  O   UNL     1       1.594   5.704  18.599  0.00  0.00    +0.000 OA
ATOM     23  H   UNL     1       2.418   6.227  21.605  0.00  0.00    +0.000 HD
BRANCH  20  24
ATOM     24  C   UNL     1       1.593   7.795  20.447  0.00  0.00    +0.000 C 
BRANCH  24  25
ATOM     25  C   UNL     1       0.461   8.282  21.357  0.00  0.00    +0.000 C 
BRANCH  25  27
ATOM     26  C   UNL     1      -0.111   9.587  23.271  0.00  0.00    +0.000 C 
ATOM     27  O   UNL     1       0.933   9.025  22.485  0.00  0.00    +0.000 OA
ENDBRANCH  25  27
ENDBRANCH  24  25
ENDBRANCH  20  24
ENDBRANCH   1  21
TORSDOF 5
ENDMDL
MODEL 7
REMARK VINA RESULT:      -6.3      8.580     11.678
REMARK  Name = 
REMARK  7 active torsions:
REMARK  status: ('A' for Active; 'I' for Inactive)
REMARK    1  A    between atoms: C_1  and  O_2
REMARK    2  A    between atoms: O_2  and  C_3
REMARK    3  A    between atoms: C_3  and  C_4
REMARK    4  A    between atoms: C_4  and  N_5
REMARK    5  A    between atoms: C_6  and  C_8
REMARK    6  A    between atoms: C_8  and  C_9
REMARK    7  A    between atoms: C_14  and  C_16
REMARK                            x       y       z     vdW  Elec       q    Type
REMARK                         _______ _______ _______ _____ _____    ______ ____
ROOT
ATOM      1  C   UNL     1      -0.880  12.411  19.284  0.00  0.00    +0.000 C 
ATOM      2  C   UNL     1      -0.267  13.397  18.263  0.00  0.00    +0.000 C 
ATOM      3  C   UNL     1      -1.671  13.203  20.342  0.00  0.00    +0.000 C 
ATOM      4  C   UNL     1      -2.057  12.362  21.559  0.00  0.00    +0.000 C 
ATOM      5  C   UNL     1      -0.853  11.629  22.146  0.00  0.00    +0.000 C 
ATOM      6  N   UNL     1      -0.143  10.863  21.122  0.00  0.00    +0.000 N 
ATOM      7  C   UNL     1       0.220   9.534  21.410  0.00  0.00    +0.000 C 
ATOM      8  O   UNL     1      -0.185   8.963  22.426  0.00  0.00    +0.000 OA
ATOM      9  C   UNL     1       0.277  11.637  19.941  0.00  0.00    +0.000 C 
ENDROOT
BRANCH   7  10
ATOM     10  C   UNL     1       1.062   8.737  20.470  0.00  0.00    +0.000 A 
ATOM     11  C   UNL     1       1.420   9.283  19.250  0.00  0.00    +0.000 A 
ATOM     12  N   UNL     1       2.166   8.605  18.339  0.00  0.00    +0.000 NA
ATOM     13  C   UNL     1       2.546   7.359  18.684  0.00  0.00    +0.000 A 
ATOM     14  C   UNL     1       3.294   6.589  17.803  0.00  0.00    +0.000 A 
ATOM     15  C   UNL     1       3.708   5.297  18.136  0.00  0.00    +0.000 A 
ATOM     16  C   UNL     1       3.386   4.772  19.381  0.00  0.00    +0.000 A 
ATOM     17  C   UNL     1       2.631   5.533  20.272  0.00  0.00    +0.000 A 
ATOM     18  C   UNL     1       2.186   6.805  19.938  0.00  0.00    +0.000 A 
ATOM     19  N   UNL     1       1.427   7.479  20.817  0.00  0.00    +0.000 NA
ENDBRANCH   7  10
BRANCH   1  21
ATOM     20  N   UNL     1      -2.771  12.067  17.704  0.00  0.00    +0.000 N 
ATOM     21  C   UNL     1      -1.808  11.471  18.480  0.00  0.00    +0.000 C 
ATOM     22  O   UNL     1      -1.666  10.248  18.491  0.00  0.00    +0.000 OA
ATOM     23  H   UNL     1      -2.733  13.069  17.547  0.00  0.00    +0.000 HD
BRANCH  20  24
ATOM     24  C   UNL     1      -3.683  11.300  16.874  0.00  0.00    +0.000 C 
BRANCH  24  25
ATOM     25  C   UNL     1      -5.110  11.323  17.428  0.00  0.00    +0.000 C 
BRANCH  25  27
ATOM     26  C   UNL     1      -7.056  12.676  17.708  0.00  0.00    +0.000 C 
ATOM     27  O   UNL     1      -5.875  12.434  16.952  0.00  0.00    +0.000 OA
ENDBRANCH  25  27
ENDBRANCH  24  25
ENDBRANCH  20  24
ENDBRANCH   1  21
TORSDOF 5
ENDMDL
MODEL 8
REMARK VINA RESULT:      -6.2      7.952     10.824
REMARK  Name = 
REMARK  7 active torsions:
REMARK  status: ('A' for Active; 'I' for Inactive)
REMARK    1  A    between atoms: C_1  and  O_2
REMARK    2  A    between atoms: O_2  and  C_3
REMARK    3  A    between atoms: C_3  and  C_4
REMARK    4  A    between atoms: C_4  and  N_5
REMARK    5  A    between atoms: C_6  and  C_8
REMARK    6  A    between atoms: C_8  and  C_9
REMARK    7  A    between atoms: C_14  and  C_16
REMARK                            x       y       z     vdW  Elec       q    Type
REMARK                         _______ _______ _______ _____ _____    ______ ____
ROOT
ATOM      1  C   UNL     1      -0.039  12.953  20.483  0.00  0.00    +0.000 C 
ATOM      2  C   UNL     1       0.940  14.085  20.096  0.00  0.00    +0.000 C 
ATOM      3  C   UNL     1      -0.932  13.430  21.644  0.00  0.00    +0.000 C 
ATOM      4  C   UNL     1      -1.718  12.297  22.302  0.00  0.00    +0.000 C 
ATOM      5  C   UNL     1      -0.813  11.132  22.694  0.00  0.00    +0.000 C 
ATOM      6  N   UNL     1      -0.001  10.684  21.562  0.00  0.00    +0.000 N 
ATOM      7  C   UNL     1       0.080   9.302  21.300  0.00  0.00    +0.000 C 
ATOM      8  O   UNL     1      -0.637   8.493  21.894  0.00  0.00    +0.000 OA
ATOM      9  C   UNL     1       0.799  11.735  20.911  0.00  0.00    +0.000 C 
ENDROOT
BRANCH   7  10
ATOM     10  C   UNL     1       0.993   8.763  20.250  0.00  0.00    +0.000 A 
ATOM     11  C   UNL     1       1.126   9.443  19.052  0.00  0.00    +0.000 A 
ATOM     12  N   UNL     1       1.923   8.996  18.046  0.00  0.00    +0.000 NA
ATOM     13  C   UNL     1       2.586   7.845  18.272  0.00  0.00    +0.000 A 
ATOM     14  C   UNL     1       3.407   7.308  17.290  0.00  0.00    +0.000 A 
ATOM     15  C   UNL     1       4.112   6.121  17.499  0.00  0.00    +0.000 A 
ATOM     16  C   UNL     1       4.011   5.468  18.721  0.00  0.00    +0.000 A 
ATOM     17  C   UNL     1       3.186   5.994  19.714  0.00  0.00    +0.000 A 
ATOM     18  C   UNL     1       2.456   7.156  19.504  0.00  0.00    +0.000 A 
ATOM     19  N   UNL     1       1.644   7.597  20.479  0.00  0.00    +0.000 NA
ENDBRANCH   7  10
BRANCH   1  21
ATOM     20  N   UNL     1      -1.975  11.842  19.383  0.00  0.00    +0.000 N 
ATOM     21  C   UNL     1      -0.877  12.651  19.220  0.00  0.00    +0.000 C 
ATOM     22  O   UNL     1      -0.609  13.146  18.125  0.00  0.00    +0.000 OA
ATOM     23  H   UNL     1      -2.293  11.621  20.321  0.00  0.00    +0.000 HD
BRANCH  20  24
ATOM     24  C   UNL     1      -2.864  11.510  18.285  0.00  0.00    +0.000 C 
BRANCH  24  25
ATOM     25  C   UNL     1      -2.678  10.063  17.821  0.00  0.00    +0.000 C 
BRANCH  25  27
ATOM     26  C   UNL     1      -2.751  10.279  15.446  0.00  0.00    +0.000 C 
ATOM     27  O   UNL     1      -1.962   9.961  16.586  0.00  0.00    +0.000 OA
ENDBRANCH  25  27
ENDBRANCH  24  25
ENDBRANCH  20  24
ENDBRANCH   1  21
TORSDOF 5
ENDMDL
MODEL 9
REMARK VINA RESULT:      -6.2      8.817     11.116
REMARK  Name = 
REMARK  7 active torsions:
REMARK  status: ('A' for Active; 'I' for Inactive)
REMARK    1  A    between atoms: C_1  and  O_2
REMARK    2  A    between atoms: O_2  and  C_3
REMARK    3  A    between atoms: C_3  and  C_4
REMARK    4  A    between atoms: C_4  and  N_5
REMARK    5  A    between atoms: C_6  and  C_8
REMARK    6  A    between atoms: C_8  and  C_9
REMARK    7  A    between atoms: C_14  and  C_16
REMARK                            x       y       z     vdW  Elec       q    Type
REMARK                         _______ _______ _______ _____ _____    ______ ____
ROOT
ATOM      1  C   UNL     1      -1.209  13.438  19.910  0.00  0.00    +0.000 C 
ATOM      2  C   UNL     1      -0.539  14.189  18.737  0.00  0.00    +0.000 C 
ATOM      3  C   UNL     1      -1.876  14.459  20.851  0.00  0.00    +0.000 C 
ATOM      4  C   UNL     1      -2.298  13.856  22.191  0.00  0.00    +0.000 C 
ATOM      5  C   UNL     1      -1.153  13.099  22.858  0.00  0.00    +0.000 C 
ATOM      6  N   UNL     1      -0.562  12.117  21.948  0.00  0.00    +0.000 N 
ATOM      7  C   UNL     1      -0.323  10.815  22.430  0.00  0.00    +0.000 C 
ATOM      8  O   UNL     1      -0.745  10.450  23.530  0.00  0.00    +0.000 OA
ATOM      9  C   UNL     1      -0.112  12.655  20.653  0.00  0.00    +0.000 C 
ENDROOT
BRANCH   7  10
ATOM     10  C   UNL     1       0.399   9.802  21.605  0.00  0.00    +0.000 A 
ATOM     11  C   UNL     1       0.798   8.612  22.188  0.00  0.00    +0.000 A 
ATOM     12  N   UNL     1       1.477   7.656  21.502  0.00  0.00    +0.000 NA
ATOM     13  C   UNL     1       1.748   7.925  20.209  0.00  0.00    +0.000 A 
ATOM     14  C   UNL     1       2.454   7.010  19.440  0.00  0.00    +0.000 A 
ATOM     15  C   UNL     1       2.743   7.259  18.096  0.00  0.00    +0.000 A 
ATOM     16  C   UNL     1       2.299   8.434  17.504  0.00  0.00    +0.000 A 
ATOM     17  C   UNL     1       1.592   9.363  18.266  0.00  0.00    +0.000 A 
ATOM     18  C   UNL     1       1.329   9.140  19.611  0.00  0.00    +0.000 A 
ATOM     19  N   UNL     1       0.681  10.086  20.311  0.00  0.00    +0.000 NA
ENDBRANCH   7  10
BRANCH   1  21
ATOM     20  N   UNL     1      -1.776  11.381  18.630  0.00  0.00    +0.000 N 
ATOM     21  C   UNL     1      -2.256  12.490  19.281  0.00  0.00    +0.000 C 
ATOM     22  O   UNL     1      -3.466  12.688  19.395  0.00  0.00    +0.000 OA
ATOM     23  H   UNL     1      -0.797  11.131  18.730  0.00  0.00    +0.000 HD
BRANCH  20  24
ATOM     24  C   UNL     1      -2.653  10.395  18.026  0.00  0.00    +0.000 C 
BRANCH  24  25
ATOM     25  C   UNL     1      -2.204  10.026  16.610  0.00  0.00    +0.000 C 
BRANCH  25  27
ATOM     26  C   UNL     1      -3.135  10.163  14.416  0.00  0.00    +0.000 C 
ATOM     27  O   UNL     1      -2.784  10.863  15.604  0.00  0.00    +0.000 OA
ENDBRANCH  25  27
ENDBRANCH  24  25
ENDBRANCH  20  24
ENDBRANCH   1  21
TORSDOF 5
ENDMDL
