MODEL 1
REMARK VINA RESULT:      -8.0      0.000      0.000
REMARK  Name = 
REMARK  1 active torsions:
REMARK  status: ('A' for Active; 'I' for Inactive)
REMARK    1  A    between atoms: C_10  and  C_11
REMARK                            x       y       z     vdW  Elec       q    Type
REMARK                         _______ _______ _______ _____ _____    ______ ____
ROOT
ATOM      1  O   UNL     1       7.522   5.558  20.103  0.00  0.00    +0.000 OA
ATOM      2  C   UNL     1       7.027   5.222  19.028  0.00  0.00    +0.000 C 
ATOM      3  C   UNL     1       7.333   5.966  17.745  0.00  0.00    +0.000 C 
ATOM      4  C   UNL     1       6.893   5.278  16.476  0.00  0.00    +0.000 A 
ATOM      5  C   UNL     1       7.300   5.793  15.237  0.00  0.00    +0.000 A 
ATOM      6  C   UNL     1       7.002   5.113  14.058  0.00  0.00    +0.000 A 
ATOM      7  C   UNL     1       6.306   3.910  14.107  0.00  0.00    +0.000 A 
ATOM      8  C   UNL     1       5.833   3.428  15.328  0.00  0.00    +0.000 A 
ATOM      9  C   UNL     1       6.083   4.133  16.518  0.00  0.00    +0.000 A 
ATOM     10  C   UNL     1       5.475   3.667  17.826  0.00  0.00    +0.000 C 
ATOM     11  N   UNL     1       6.179   4.158  18.991  0.00  0.00    +0.000 N 
ATOM     12  H   UNL     1       6.041   3.693  19.878  0.00  0.00    +0.000 HD
ENDROOT
BRANCH  10  13
ATOM     13  C   UNL     1       3.961   3.871  17.951  0.00  0.00    +0.000 A 
ATOM     14  C   UNL     1       3.111   2.768  18.207  0.00  0.00    +0.000 A 
ATOM     15 CL   UNL     1       3.698   1.152  18.425  0.00  0.00    +0.000 Cl
ATOM     16  C   UNL     1       1.719   2.916  18.312  0.00  0.00    +0.000 A 
ATOM     17  C   UNL     1       1.122   4.160  18.173  0.00  0.00    +0.000 A 
ATOM     18  C   UNL     1       1.931   5.264  17.936  0.00  0.00    +0.000 A 
ATOM     19  C   UNL     1       3.324   5.129  17.827  0.00  0.00    +0.000 A 
ATOM     20 CL   UNL     1       4.144   6.618  17.561  0.00  0.00    +0.000 Cl
ENDBRANCH  10  13
TORSDOF 1
ENDMDL
MODEL 2
REMARK VINA RESULT:      -7.3      2.293      5.262
REMARK  Name = 
REMARK  1 active torsions:
REMARK  status: ('A' for Active; 'I' for Inactive)
REMARK    1  A    between atoms: C_10  and  C_11
REMARK                            x       y       z     vdW  Elec       q    Type
REMARK                         _______ _______ _______ _____ _____    ______ ____
ROOT
ATOM      1  O   UNL     1       5.179   1.136  20.460  0.00  0.00    +0.000 OA
ATOM      2  C   UNL     1       4.695   2.221  20.136  0.00  0.00    +0.000 C 
ATOM      3  C   UNL     1       3.207   2.486  20.223  0.00  0.00    +0.000 C 
ATOM      4  C   UNL     1       2.795   3.929  20.072  0.00  0.00    +0.000 A 
ATOM      5  C   UNL     1       1.466   4.296  20.327  0.00  0.00    +0.000 A 
ATOM      6  C   UNL     1       1.089   5.637  20.305  0.00  0.00    +0.000 A 
ATOM      7  C   UNL     1       2.035   6.622  20.039  0.00  0.00    +0.000 A 
ATOM      8  C   UNL     1       3.342   6.261  19.712  0.00  0.00    +0.000 A 
ATOM      9  C   UNL     1       3.721   4.908  19.680  0.00  0.00    +0.000 A 
ATOM     10  C   UNL     1       5.110   4.512  19.217  0.00  0.00    +0.000 C 
ATOM     11  N   UNL     1       5.518   3.206  19.685  0.00  0.00    +0.000 N 
ATOM     12  H   UNL     1       6.501   2.970  19.678  0.00  0.00    +0.000 HD
ENDROOT
BRANCH  10  13
ATOM     13  C   UNL     1       5.370   4.684  17.716  0.00  0.00    +0.000 A 
ATOM     14  C   UNL     1       6.517   5.383  17.266  0.00  0.00    +0.000 A 
ATOM     15 CL   UNL     1       7.700   6.052  18.342  0.00  0.00    +0.000 Cl
ATOM     16  C   UNL     1       6.778   5.573  15.900  0.00  0.00    +0.000 A 
ATOM     17  C   UNL     1       5.918   5.073  14.933  0.00  0.00    +0.000 A 
ATOM     18  C   UNL     1       4.791   4.370  15.344  0.00  0.00    +0.000 A 
ATOM     19  C   UNL     1       4.519   4.176  16.707  0.00  0.00    +0.000 A 
ATOM     20 CL   UNL     1       3.093   3.257  17.001  0.00  0.00    +0.000 Cl
ENDBRANCH  10  13
TORSDOF 1
ENDMDL
MODEL 3
REMARK VINA RESULT:      -7.3      2.857      5.051
REMARK  Name = 
REMARK  1 active torsions:
REMARK  status: ('A' for Active; 'I' for Inactive)
REMARK    1  A    between atoms: C_10  and  C_11
REMARK                            x       y       z     vdW  Elec       q    Type
REMARK                         _______ _______ _______ _____ _____    ______ ____
ROOT
ATOM      1  O   UNL     1       6.543   4.615  18.850  0.00  0.00    +0.000 OA
ATOM      2  C   UNL     1       5.315   4.587  18.937  0.00  0.00    +0.000 C 
ATOM      3  C   UNL     1       4.490   3.539  18.219  0.00  0.00    +0.000 C 
ATOM      4  C   UNL     1       3.045   3.449  18.642  0.00  0.00    +0.000 A 
ATOM      5  C   UNL     1       2.256   2.389  18.175  0.00  0.00    +0.000 A 
ATOM      6  C   UNL     1       0.954   2.221  18.640  0.00  0.00    +0.000 A 
ATOM      7  C   UNL     1       0.433   3.103  19.582  0.00  0.00    +0.000 A 
ATOM      8  C   UNL     1       1.185   4.202  19.997  0.00  0.00    +0.000 A 
ATOM      9  C   UNL     1       2.480   4.410  19.494  0.00  0.00    +0.000 A 
ATOM     10  C   UNL     1       3.252   5.663  19.860  0.00  0.00    +0.000 C 
ATOM     11  N   UNL     1       4.682   5.523  19.695  0.00  0.00    +0.000 N 
ATOM     12  H   UNL     1       5.295   6.175  20.166  0.00  0.00    +0.000 HD
ENDROOT
BRANCH  10  13
ATOM     13  C   UNL     1       2.731   6.958  19.226  0.00  0.00    +0.000 A 
ATOM     14  C   UNL     1       1.837   7.792  19.939  0.00  0.00    +0.000 A 
ATOM     15 CL   UNL     1       1.298   7.445  21.549  0.00  0.00    +0.000 Cl
ATOM     16  C   UNL     1       1.328   8.977  19.383  0.00  0.00    +0.000 A 
ATOM     17  C   UNL     1       1.692   9.379  18.106  0.00  0.00    +0.000 A 
ATOM     18  C   UNL     1       2.580   8.588  17.387  0.00  0.00    +0.000 A 
ATOM     19  C   UNL     1       3.094   7.401  17.932  0.00  0.00    +0.000 A 
ATOM     20 CL   UNL     1       4.197   6.586  16.892  0.00  0.00    +0.000 Cl
ENDBRANCH  10  13
TORSDOF 1
ENDMDL
MODEL 4
REMARK VINA RESULT:      -7.3      0.085      2.110
REMARK  Name = 
REMARK  1 active torsions:
REMARK  status: ('A' for Active; 'I' for Inactive)
REMARK    1  A    between atoms: C_10  and  C_11
REMARK                            x       y       z     vdW  Elec       q    Type
REMARK                         _______ _______ _______ _____ _____    ______ ____
ROOT
ATOM      1  O   UNL     1       7.517   5.620  20.104  0.00  0.00    +0.000 OA
ATOM      2  C   UNL     1       7.026   5.268  19.031  0.00  0.00    +0.000 C 
ATOM      3  C   UNL     1       7.316   6.008  17.742  0.00  0.00    +0.000 C 
ATOM      4  C   UNL     1       6.887   5.304  16.479  0.00  0.00    +0.000 A 
ATOM      5  C   UNL     1       7.282   5.817  15.236  0.00  0.00    +0.000 A 
ATOM      6  C   UNL     1       6.995   5.124  14.063  0.00  0.00    +0.000 A 
ATOM      7  C   UNL     1       6.320   3.908  14.121  0.00  0.00    +0.000 A 
ATOM      8  C   UNL     1       5.858   3.427  15.346  0.00  0.00    +0.000 A 
ATOM      9  C   UNL     1       6.097   4.145  16.531  0.00  0.00    +0.000 A 
ATOM     10  C   UNL     1       5.500   3.678  17.844  0.00  0.00    +0.000 C 
ATOM     11  N   UNL     1       6.197   4.189  19.003  0.00  0.00    +0.000 N 
ATOM     12  H   UNL     1       6.068   3.728  19.894  0.00  0.00    +0.000 HD
ENDROOT
BRANCH  10  13
ATOM     13  C   UNL     1       3.983   3.856  17.970  0.00  0.00    +0.000 A 
ATOM     14  C   UNL     1       3.398   5.135  17.809  0.00  0.00    +0.000 A 
ATOM     15 CL   UNL     1       4.318   6.556  17.437  0.00  0.00    +0.000 Cl
ATOM     16  C   UNL     1       2.014   5.337  17.932  0.00  0.00    +0.000 A 
ATOM     17  C   UNL     1       1.162   4.279  18.213  0.00  0.00    +0.000 A 
ATOM     18  C   UNL     1       1.704   3.008  18.362  0.00  0.00    +0.000 A 
ATOM     19  C   UNL     1       3.087   2.795  18.243  0.00  0.00    +0.000 A 
ATOM     20 CL   UNL     1       3.550   1.148  18.434  0.00  0.00    +0.000 Cl
ENDBRANCH  10  13
TORSDOF 1
ENDMDL
MODEL 5
REMARK VINA RESULT:      -7.2      2.900      3.599
REMARK  Name = 
REMARK  1 active torsions:
REMARK  status: ('A' for Active; 'I' for Inactive)
REMARK    1  A    between atoms: C_10  and  C_11
REMARK                            x       y       z     vdW  Elec       q    Type
REMARK                         _______ _______ _______ _____ _____    ______ ____
ROOT
ATOM      1  O   UNL     1       1.838   8.320  17.973  0.00  0.00    +0.000 OA
ATOM      2  C   UNL     1       2.770   7.527  18.114  0.00  0.00    +0.000 C 
ATOM      3  C   UNL     1       3.988   7.565  17.216  0.00  0.00    +0.000 C 
ATOM      4  C   UNL     1       5.162   6.739  17.679  0.00  0.00    +0.000 A 
ATOM      5  C   UNL     1       6.393   6.860  17.020  0.00  0.00    +0.000 A 
ATOM      6  C   UNL     1       7.518   6.194  17.499  0.00  0.00    +0.000 A 
ATOM      7  C   UNL     1       7.427   5.410  18.645  0.00  0.00    +0.000 A 
ATOM      8  C   UNL     1       6.191   5.225  19.265  0.00  0.00    +0.000 A 
ATOM      9  C   UNL     1       5.038   5.850  18.758  0.00  0.00    +0.000 A 
ATOM     10  C   UNL     1       3.679   5.560  19.365  0.00  0.00    +0.000 C 
ATOM     11  N   UNL     1       2.701   6.591  19.099  0.00  0.00    +0.000 N 
ATOM     12  H   UNL     1       1.873   6.640  19.677  0.00  0.00    +0.000 HD
ENDROOT
BRANCH  10  13
ATOM     13  C   UNL     1       3.122   4.161  19.076  0.00  0.00    +0.000 A 
ATOM     14  C   UNL     1       2.410   3.455  20.076  0.00  0.00    +0.000 A 
ATOM     15 CL   UNL     1       2.093   4.107  21.650  0.00  0.00    +0.000 Cl
ATOM     16  C   UNL     1       1.899   2.167  19.850  0.00  0.00    +0.000 A 
ATOM     17  C   UNL     1       2.070   1.537  18.626  0.00  0.00    +0.000 A 
ATOM     18  C   UNL     1       2.752   2.210  17.620  0.00  0.00    +0.000 A 
ATOM     19  C   UNL     1       3.269   3.498  17.834  0.00  0.00    +0.000 A 
ATOM     20 CL   UNL     1       4.052   4.165  16.455  0.00  0.00    +0.000 Cl
ENDBRANCH  10  13
TORSDOF 1
ENDMDL
MODEL 6
REMARK VINA RESULT:      -7.0      1.245      1.251
REMARK  Name = 
REMARK  1 active torsions:
REMARK  status: ('A' for Active; 'I' for Inactive)
REMARK    1  A    between atoms: C_10  and  C_11
REMARK                            x       y       z     vdW  Elec       q    Type
REMARK                         _______ _______ _______ _____ _____    ______ ____
ROOT
ATOM      1  O   UNL     1       8.307   6.754  19.315  0.00  0.00    +0.000 OA
ATOM      2  C   UNL     1       7.561   6.137  18.555  0.00  0.00    +0.000 C 
ATOM      3  C   UNL     1       7.453   6.489  17.086  0.00  0.00    +0.000 C 
ATOM      4  C   UNL     1       6.732   5.480  16.228  0.00  0.00    +0.000 A 
ATOM      5  C   UNL     1       6.748   5.624  14.834  0.00  0.00    +0.000 A 
ATOM      6  C   UNL     1       6.187   4.645  14.017  0.00  0.00    +0.000 A 
ATOM      7  C   UNL     1       5.614   3.511  14.584  0.00  0.00    +0.000 A 
ATOM      8  C   UNL     1       5.528   3.394  15.971  0.00  0.00    +0.000 A 
ATOM      9  C   UNL     1       6.044   4.401  16.805  0.00  0.00    +0.000 A 
ATOM     10  C   UNL     1       5.850   4.326  18.307  0.00  0.00    +0.000 C 
ATOM     11  N   UNL     1       6.810   5.115  19.048  0.00  0.00    +0.000 N 
ATOM     12  H   UNL     1       6.951   4.917  20.029  0.00  0.00    +0.000 HD
ENDROOT
BRANCH  10  13
ATOM     13  C   UNL     1       4.418   4.574  18.793  0.00  0.00    +0.000 A 
ATOM     14  C   UNL     1       3.772   3.628  19.626  0.00  0.00    +0.000 A 
ATOM     15 CL   UNL     1       4.538   2.172  20.173  0.00  0.00    +0.000 Cl
ATOM     16  C   UNL     1       2.456   3.815  20.076  0.00  0.00    +0.000 A 
ATOM     17  C   UNL     1       1.735   4.946  19.723  0.00  0.00    +0.000 A 
ATOM     18  C   UNL     1       2.347   5.900  18.918  0.00  0.00    +0.000 A 
ATOM     19  C   UNL     1       3.662   5.723  18.460  0.00  0.00    +0.000 A 
ATOM     20 CL   UNL     1       4.241   7.031  17.502  0.00  0.00    +0.000 Cl
ENDBRANCH  10  13
TORSDOF 1
ENDMDL
MODEL 7
REMARK VINA RESULT:      -7.0      2.499      5.516
REMARK  Name = 
REMARK  1 active torsions:
REMARK  status: ('A' for Active; 'I' for Inactive)
REMARK    1  A    between atoms: C_10  and  C_11
REMARK                            x       y       z     vdW  Elec       q    Type
REMARK                         _______ _______ _______ _____ _____    ______ ____
ROOT
ATOM      1  O   UNL     1       2.057   8.448  19.908  0.00  0.00    +0.000 OA
ATOM      2  C   UNL     1       2.221   7.288  19.528  0.00  0.00    +0.000 C 
ATOM      3  C   UNL     1       1.755   6.107  20.354  0.00  0.00    +0.000 C 
ATOM      4  C   UNL     1       1.760   4.777  19.644  0.00  0.00    +0.000 A 
ATOM      5  C   UNL     1       1.169   3.665  20.259  0.00  0.00    +0.000 A 
ATOM      6  C   UNL     1       1.062   2.455  19.577  0.00  0.00    +0.000 A 
ATOM      7  C   UNL     1       1.534   2.348  18.272  0.00  0.00    +0.000 A 
ATOM      8  C   UNL     1       2.189   3.427  17.679  0.00  0.00    +0.000 A 
ATOM      9  C   UNL     1       2.350   4.636  18.378  0.00  0.00    +0.000 A 
ATOM     10  C   UNL     1       3.158   5.768  17.775  0.00  0.00    +0.000 C 
ATOM     11  N   UNL     1       2.842   7.061  18.339  0.00  0.00    +0.000 N 
ATOM     12  H   UNL     1       3.103   7.894  17.829  0.00  0.00    +0.000 HD
ENDROOT
BRANCH  10  13
ATOM     13  C   UNL     1       4.671   5.529  17.717  0.00  0.00    +0.000 A 
ATOM     14  C   UNL     1       5.436   6.048  16.643  0.00  0.00    +0.000 A 
ATOM     15 CL   UNL     1       4.749   6.994  15.364  0.00  0.00    +0.000 Cl
ATOM     16  C   UNL     1       6.820   5.836  16.551  0.00  0.00    +0.000 A 
ATOM     17  C   UNL     1       7.496   5.108  17.519  0.00  0.00    +0.000 A 
ATOM     18  C   UNL     1       6.776   4.598  18.592  0.00  0.00    +0.000 A 
ATOM     19  C   UNL     1       5.391   4.802  18.695  0.00  0.00    +0.000 A 
ATOM     20 CL   UNL     1       4.695   4.114  20.110  0.00  0.00    +0.000 Cl
ENDBRANCH  10  13
TORSDOF 1
ENDMDL
MODEL 8
REMARK VINA RESULT:      -6.9      2.858      5.058
REMARK  Name = 
REMARK  1 active torsions:
REMARK  status: ('A' for Active; 'I' for Inactive)
REMARK    1  A    between atoms: C_10  and  C_11
REMARK                            x       y       z     vdW  Elec       q    Type
REMARK                         _______ _______ _______ _____ _____    ______ ____
ROOT
ATOM      1  O   UNL     1       6.525   4.554  18.863  0.00  0.00    +0.000 OA
ATOM      2  C   UNL     1       5.298   4.531  18.961  0.00  0.00    +0.000 C 
ATOM      3  C   UNL     1       4.463   3.486  18.251  0.00  0.00    +0.000 C 
ATOM      4  C   UNL     1       3.021   3.402  18.687  0.00  0.00    +0.000 A 
ATOM      5  C   UNL     1       2.223   2.345  18.229  0.00  0.00    +0.000 A 
ATOM      6  C   UNL     1       0.924   2.183  18.705  0.00  0.00    +0.000 A 
ATOM      7  C   UNL     1       0.415   3.068  19.651  0.00  0.00    +0.000 A 
ATOM      8  C   UNL     1       1.175   4.165  20.058  0.00  0.00    +0.000 A 
ATOM      9  C   UNL     1       2.468   4.367  19.543  0.00  0.00    +0.000 A 
ATOM     10  C   UNL     1       3.248   5.617  19.900  0.00  0.00    +0.000 C 
ATOM     11  N   UNL     1       4.676   5.471  19.723  0.00  0.00    +0.000 N 
ATOM     12  H   UNL     1       5.295   6.120  20.188  0.00  0.00    +0.000 HD
ENDROOT
BRANCH  10  13
ATOM     13  C   UNL     1       2.727   6.913  19.269  0.00  0.00    +0.000 A 
ATOM     14  C   UNL     1       3.126   7.281  17.961  0.00  0.00    +0.000 A 
ATOM     15 CL   UNL     1       4.180   6.311  16.986  0.00  0.00    +0.000 Cl
ATOM     16  C   UNL     1       2.681   8.468  17.359  0.00  0.00    +0.000 A 
ATOM     17  C   UNL     1       1.821   9.328  18.027  0.00  0.00    +0.000 A 
ATOM     18  C   UNL     1       1.399   8.987  19.306  0.00  0.00    +0.000 A 
ATOM     19  C   UNL     1       1.840   7.803  19.920  0.00  0.00    +0.000 A 
ATOM     20 CL   UNL     1       1.180   7.553  21.490  0.00  0.00    +0.000 Cl
ENDBRANCH  10  13
TORSDOF 1
ENDMDL
MODEL 9
REMARK VINA RESULT:      -6.9      1.869      2.305
REMARK  Name = 
REMARK  1 active torsions:
REMARK  status: ('A' for Active; 'I' for Inactive)
REMARK    1  A    between atoms: C_10  and  C_11
REMARK                            x       y       z     vdW  Elec       q    Type
REMARK                         _______ _______ _______ _____ _____    ______ ____
ROOT
ATOM      1  O   UNL     1       7.918   5.388  20.376  0.00  0.00    +0.000 OA
ATOM      2  C   UNL     1       7.191   5.250  19.392  0.00  0.00    +0.000 C 
ATOM      3  C   UNL     1       7.734   5.354  17.982  0.00  0.00    +0.000 C 
ATOM      4  C   UNL     1       6.803   4.883  16.892  0.00  0.00    +0.000 A 
ATOM      5  C   UNL     1       7.283   4.762  15.581  0.00  0.00    +0.000 A 
ATOM      6  C   UNL     1       6.477   4.222  14.582  0.00  0.00    +0.000 A 
ATOM      7  C   UNL     1       5.190   3.789  14.885  0.00  0.00    +0.000 A 
ATOM      8  C   UNL     1       4.678   3.973  16.169  0.00  0.00    +0.000 A 
ATOM      9  C   UNL     1       5.465   4.565  17.172  0.00  0.00    +0.000 A 
ATOM     10  C   UNL     1       4.871   4.865  18.535  0.00  0.00    +0.000 C 
ATOM     11  N   UNL     1       5.866   5.001  19.576  0.00  0.00    +0.000 N 
ATOM     12  H   UNL     1       5.578   4.918  20.541  0.00  0.00    +0.000 HD
ENDROOT
BRANCH  10  13
ATOM     13  C   UNL     1       3.858   6.015  18.565  0.00  0.00    +0.000 A 
ATOM     14  C   UNL     1       2.815   6.023  19.522  0.00  0.00    +0.000 A 
ATOM     15 CL   UNL     1       2.623   4.786  20.722  0.00  0.00    +0.000 Cl
ATOM     16  C   UNL     1       1.861   7.052  19.569  0.00  0.00    +0.000 A 
ATOM     17  C   UNL     1       1.910   8.110  18.674  0.00  0.00    +0.000 A 
ATOM     18  C   UNL     1       2.931   8.138  17.731  0.00  0.00    +0.000 A 
ATOM     19  C   UNL     1       3.889   7.114  17.674  0.00  0.00    +0.000 A 
ATOM     20 CL   UNL     1       5.082   7.353  16.456  0.00  0.00    +0.000 Cl
ENDBRANCH  10  13
TORSDOF 1
ENDMDL
