MODEL 1
REMARK VINA RESULT:      -8.1      0.000      0.000
REMARK  Name = 
REMARK  9 active torsions:
REMARK  status: ('A' for Active; 'I' for Inactive)
REMARK    1  A    between atoms: C_1  and  N_2
REMARK    2  A    between atoms: N_2  and  C_3
REMARK    3  A    between atoms: N_2  and  S_20
REMARK    4  A    between atoms: C_6  and  N_7
REMARK    5  A    between atoms: C_8  and  C_10
REMARK    6  A    between atoms: C_10  and  C_11
REMARK    7  A    between atoms: C_10  and  O_12
REMARK    8  A    between atoms: C_10  and  C_13
REMARK    9  A    between atoms: S_20  and  C_23
REMARK                            x       y       z     vdW  Elec       q    Type
REMARK                         _______ _______ _______ _____ _____    ______ ____
ROOT
ATOM      1  C   UNL     1       2.931   6.226  18.907  0.00  0.00    +0.000 A 
ATOM      2  C   UNL     1       3.098   7.071  17.813  0.00  0.00    +0.000 A 
ATOM      3  C   UNL     1       2.536   8.349  17.832  0.00  0.00    +0.000 A 
ATOM      4  C   UNL     1       1.826   8.829  18.939  0.00  0.00    +0.000 A 
ATOM      5  C   UNL     1       1.709   7.979  20.057  0.00  0.00    +0.000 A 
ATOM      6 CL   UNL     1       0.848   8.486  21.469  0.00  0.00    +0.000 Cl
ATOM      7  C   UNL     1       2.269   6.691  20.043  0.00  0.00    +0.000 A 
ENDROOT
BRANCH   4   8
ATOM      8  N   UNL     1       1.192  10.105  18.929  0.00  0.00    +0.000 N 
ATOM      9  C   UNL     1      -0.061  10.380  18.406  0.00  0.00    +0.000 C 
ATOM     10  O   UNL     1      -0.773   9.556  17.822  0.00  0.00    +0.000 OA
ATOM     11  H   UNL     1       1.758  10.907  19.203  0.00  0.00    +0.000 HD
BRANCH   9  12
ATOM     12  C   UNL     1      -0.567  11.808  18.596  0.00  0.00    +0.000 C 
ATOM     13  C   UNL     1      -1.867  11.963  17.791  0.00  0.00    +0.000 C 
BRANCH  12  14
ATOM     14  C   UNL     1      -0.829  11.993  20.105  0.00  0.00    +0.000 C 
ATOM     15  F   UNL     1      -1.138  10.857  20.763  0.00  0.00    +0.000 F 
ATOM     16  F   UNL     1       0.290  12.494  20.699  0.00  0.00    +0.000 F 
ATOM     17  F   UNL     1      -1.814  12.890  20.353  0.00  0.00    +0.000 F 
ENDBRANCH  12  14
BRANCH  12  18
ATOM     18  O   UNL     1       0.382  12.761  18.070  0.00  0.00    +0.000 OA
ATOM     19  H   UNL     1       1.075  12.880  18.753  0.00  0.00    +0.000 HD
ENDBRANCH  12  18
ENDBRANCH   9  12
ENDBRANCH   4   8
BRANCH   1  21
ATOM     20  C   UNL     1       2.453   4.022  17.911  0.00  0.00    +0.000 C 
ATOM     21  N   UNL     1       3.288   4.843  18.807  0.00  0.00    +0.000 N 
BRANCH  21  22
ATOM     22  S   UNL     1       4.907   4.374  19.017  0.00  0.00    +0.000 S 
ATOM     23  O   UNL     1       5.553   5.367  19.857  0.00  0.00    +0.000 OA
ATOM     24  O   UNL     1       4.923   2.988  19.425  0.00  0.00    +0.000 OA
BRANCH  22  25
ATOM     25  C   UNL     1       5.679   4.498  17.403  0.00  0.00    +0.000 A 
ATOM     26  C   UNL     1       5.021   3.864  16.336  0.00  0.00    +0.000 A 
ATOM     27  C   UNL     1       5.432   4.077  15.016  0.00  0.00    +0.000 A 
ATOM     28  C   UNL     1       6.492   4.934  14.749  0.00  0.00    +0.000 A 
ATOM     29  C   UNL     1       7.161   5.556  15.802  0.00  0.00    +0.000 A 
ATOM     30  C   UNL     1       6.766   5.339  17.135  0.00  0.00    +0.000 A 
ATOM     31 CL   UNL     1       7.730   6.131  18.329  0.00  0.00    +0.000 Cl
ENDBRANCH  22  25
ENDBRANCH  21  22
ENDBRANCH   1  21
TORSDOF 7
ENDMDL
MODEL 2
REMARK VINA RESULT:      -8.0      4.115      9.095
REMARK  Name = 
REMARK  9 active torsions:
REMARK  status: ('A' for Active; 'I' for Inactive)
REMARK    1  A    between atoms: C_1  and  N_2
REMARK    2  A    between atoms: N_2  and  C_3
REMARK    3  A    between atoms: N_2  and  S_20
REMARK    4  A    between atoms: C_6  and  N_7
REMARK    5  A    between atoms: C_8  and  C_10
REMARK    6  A    between atoms: C_10  and  C_11
REMARK    7  A    between atoms: C_10  and  O_12
REMARK    8  A    between atoms: C_10  and  C_13
REMARK    9  A    between atoms: S_20  and  C_23
REMARK                            x       y       z     vdW  Elec       q    Type
REMARK                         _______ _______ _______ _____ _____    ______ ____
ROOT
ATOM      1  C   UNL     1       1.238   9.883  18.944  0.00  0.00    +0.000 A 
ATOM      2  C   UNL     1       1.901   9.590  17.756  0.00  0.00    +0.000 A 
ATOM      3  C   UNL     1       2.535   8.356  17.602  0.00  0.00    +0.000 A 
ATOM      4  C   UNL     1       2.502   7.377  18.602  0.00  0.00    +0.000 A 
ATOM      5  C   UNL     1       1.784   7.671  19.778  0.00  0.00    +0.000 A 
ATOM      6 CL   UNL     1       1.690   6.523  21.068  0.00  0.00    +0.000 Cl
ATOM      7  C   UNL     1       1.146   8.912  19.941  0.00  0.00    +0.000 A 
ENDROOT
BRANCH   4   8
ATOM      8  N   UNL     1       3.210   6.148  18.472  0.00  0.00    +0.000 N 
ATOM      9  C   UNL     1       2.664   4.940  18.067  0.00  0.00    +0.000 C 
ATOM     10  O   UNL     1       1.466   4.760  17.819  0.00  0.00    +0.000 OA
ATOM     11  H   UNL     1       4.161   6.118  18.837  0.00  0.00    +0.000 HD
BRANCH   9  12
ATOM     12  C   UNL     1       3.644   3.780  17.916  0.00  0.00    +0.000 C 
ATOM     13  C   UNL     1       4.718   4.193  16.898  0.00  0.00    +0.000 C 
BRANCH  12  14
ATOM     14  C   UNL     1       4.268   3.538  19.307  0.00  0.00    +0.000 C 
ATOM     15  F   UNL     1       5.360   4.285  19.568  0.00  0.00    +0.000 F 
ATOM     16  F   UNL     1       3.352   3.838  20.270  0.00  0.00    +0.000 F 
ATOM     17  F   UNL     1       4.604   2.240  19.505  0.00  0.00    +0.000 F 
ENDBRANCH  12  14
BRANCH  12  18
ATOM     18  O   UNL     1       2.978   2.612  17.389  0.00  0.00    +0.000 OA
ATOM     19  H   UNL     1       2.404   2.264  18.104  0.00  0.00    +0.000 HD
ENDBRANCH  12  18
ENDBRANCH   9  12
ENDBRANCH   4   8
BRANCH   1  21
ATOM     20  C   UNL     1       1.806  12.280  19.047  0.00  0.00    +0.000 C 
ATOM     21  N   UNL     1       0.795  11.219  19.210  0.00  0.00    +0.000 N 
BRANCH  21  22
ATOM     22  S   UNL     1      -0.830  11.637  18.942  0.00  0.00    +0.000 S 
ATOM     23  O   UNL     1      -0.855  12.946  18.313  0.00  0.00    +0.000 OA
ATOM     24  O   UNL     1      -1.475  10.525  18.280  0.00  0.00    +0.000 OA
BRANCH  22  25
ATOM     25  C   UNL     1      -1.570  11.839  20.562  0.00  0.00    +0.000 A 
ATOM     26  C   UNL     1      -0.722  11.681  21.670  0.00  0.00    +0.000 A 
ATOM     27  C   UNL     1      -1.156  12.019  22.957  0.00  0.00    +0.000 A 
ATOM     28  C   UNL     1      -2.433  12.532  23.145  0.00  0.00    +0.000 A 
ATOM     29  C   UNL     1      -3.288  12.679  22.053  0.00  0.00    +0.000 A 
ATOM     30  C   UNL     1      -2.868  12.329  20.757  0.00  0.00    +0.000 A 
ATOM     31 CL   UNL     1      -4.059  12.510  19.520  0.00  0.00    +0.000 Cl
ENDBRANCH  22  25
ENDBRANCH  21  22
ENDBRANCH   1  21
TORSDOF 7
ENDMDL
MODEL 3
REMARK VINA RESULT:      -8.0      4.379      8.774
REMARK  Name = 
REMARK  9 active torsions:
REMARK  status: ('A' for Active; 'I' for Inactive)
REMARK    1  A    between atoms: C_1  and  N_2
REMARK    2  A    between atoms: N_2  and  C_3
REMARK    3  A    between atoms: N_2  and  S_20
REMARK    4  A    between atoms: C_6  and  N_7
REMARK    5  A    between atoms: C_8  and  C_10
REMARK    6  A    between atoms: C_10  and  C_11
REMARK    7  A    between atoms: C_10  and  O_12
REMARK    8  A    between atoms: C_10  and  C_13
REMARK    9  A    between atoms: S_20  and  C_23
REMARK                            x       y       z     vdW  Elec       q    Type
REMARK                         _______ _______ _______ _____ _____    ______ ____
ROOT
ATOM      1  C   UNL     1       1.491   9.414  19.100  0.00  0.00    +0.000 A 
ATOM      2  C   UNL     1       1.987   9.284  17.806  0.00  0.00    +0.000 A 
ATOM      3  C   UNL     1       2.603   8.093  17.416  0.00  0.00    +0.000 A 
ATOM      4  C   UNL     1       2.714   6.999  18.282  0.00  0.00    +0.000 A 
ATOM      5  C   UNL     1       2.162   7.130  19.572  0.00  0.00    +0.000 A 
ATOM      6 CL   UNL     1       2.253   5.832  20.711  0.00  0.00    +0.000 Cl
ATOM      7  C   UNL     1       1.543   8.326  19.972  0.00  0.00    +0.000 A 
ENDROOT
BRANCH   4   8
ATOM      8  N   UNL     1       3.406   5.812  17.907  0.00  0.00    +0.000 N 
ATOM      9  C   UNL     1       4.780   5.680  17.789  0.00  0.00    +0.000 C 
ATOM     10  O   UNL     1       5.588   6.605  17.939  0.00  0.00    +0.000 OA
ATOM     11  H   UNL     1       2.843   5.035  17.565  0.00  0.00    +0.000 HD
BRANCH   9  12
ATOM     12  C   UNL     1       5.294   4.281  17.463  0.00  0.00    +0.000 C 
ATOM     13  C   UNL     1       4.092   3.324  17.450  0.00  0.00    +0.000 C 
BRANCH  12  14
ATOM     14  C   UNL     1       5.948   4.359  16.067  0.00  0.00    +0.000 C 
ATOM     15  F   UNL     1       7.233   4.768  16.074  0.00  0.00    +0.000 F 
ATOM     16  F   UNL     1       5.937   3.123  15.494  0.00  0.00    +0.000 F 
ATOM     17  F   UNL     1       5.266   5.168  15.220  0.00  0.00    +0.000 F 
ENDBRANCH  12  14
BRANCH  12  18
ATOM     18  O   UNL     1       6.203   3.817  18.484  0.00  0.00    +0.000 OA
ATOM     19  H   UNL     1       7.104   3.845  18.097  0.00  0.00    +0.000 HD
ENDBRANCH  12  18
ENDBRANCH   9  12
ENDBRANCH   4   8
BRANCH   1  21
ATOM     20  C   UNL     1       1.677  11.866  18.915  0.00  0.00    +0.000 C 
ATOM     21  N   UNL     1       1.079  10.697  19.586  0.00  0.00    +0.000 N 
BRANCH  21  22
ATOM     22  S   UNL     1      -0.470  10.886  20.256  0.00  0.00    +0.000 S 
ATOM     23  O   UNL     1      -0.793   9.671  20.984  0.00  0.00    +0.000 OA
ATOM     24  O   UNL     1      -0.506  12.153  20.951  0.00  0.00    +0.000 OA
BRANCH  22  25
ATOM     25  C   UNL     1      -1.609  10.965  18.874  0.00  0.00    +0.000 A 
ATOM     26  C   UNL     1      -1.345  10.116  17.786  0.00  0.00    +0.000 A 
ATOM     27  C   UNL     1      -2.282   9.957  16.760  0.00  0.00    +0.000 A 
ATOM     28  C   UNL     1      -3.495  10.632  16.818  0.00  0.00    +0.000 A 
ATOM     29  C   UNL     1      -3.760  11.489  17.885  0.00  0.00    +0.000 A 
ATOM     30  C   UNL     1      -2.820  11.668  18.916  0.00  0.00    +0.000 A 
ATOM     31 CL   UNL     1      -3.267  12.807  20.134  0.00  0.00    +0.000 Cl
ENDBRANCH  22  25
ENDBRANCH  21  22
ENDBRANCH   1  21
TORSDOF 7
ENDMDL
MODEL 4
REMARK VINA RESULT:      -8.0      4.220      9.107
REMARK  Name = 
REMARK  9 active torsions:
REMARK  status: ('A' for Active; 'I' for Inactive)
REMARK    1  A    between atoms: C_1  and  N_2
REMARK    2  A    between atoms: N_2  and  C_3
REMARK    3  A    between atoms: N_2  and  S_20
REMARK    4  A    between atoms: C_6  and  N_7
REMARK    5  A    between atoms: C_8  and  C_10
REMARK    6  A    between atoms: C_10  and  C_11
REMARK    7  A    between atoms: C_10  and  O_12
REMARK    8  A    between atoms: C_10  and  C_13
REMARK    9  A    between atoms: S_20  and  C_23
REMARK                            x       y       z     vdW  Elec       q    Type
REMARK                         _______ _______ _______ _____ _____    ______ ____
ROOT
ATOM      1  C   UNL     1       1.251   9.903  18.903  0.00  0.00    +0.000 A 
ATOM      2  C   UNL     1       2.021   9.557  17.796  0.00  0.00    +0.000 A 
ATOM      3  C   UNL     1       2.674   8.324  17.764  0.00  0.00    +0.000 A 
ATOM      4  C   UNL     1       2.556   7.397  18.806  0.00  0.00    +0.000 A 
ATOM      5  C   UNL     1       1.733   7.742  19.896  0.00  0.00    +0.000 A 
ATOM      6 CL   UNL     1       1.529   6.661  21.230  0.00  0.00    +0.000 Cl
ATOM      7  C   UNL     1       1.075   8.983  19.936  0.00  0.00    +0.000 A 
ENDROOT
BRANCH   4   8
ATOM      8  N   UNL     1       3.280   6.170  18.805  0.00  0.00    +0.000 N 
ATOM      9  C   UNL     1       2.837   4.971  18.270  0.00  0.00    +0.000 C 
ATOM     10  O   UNL     1       1.720   4.796  17.772  0.00  0.00    +0.000 OA
ATOM     11  H   UNL     1       4.133   6.133  19.362  0.00  0.00    +0.000 HD
BRANCH   9  12
ATOM     12  C   UNL     1       3.831   3.813  18.308  0.00  0.00    +0.000 C 
ATOM     13  C   UNL     1       5.186   4.364  18.779  0.00  0.00    +0.000 C 
BRANCH  12  14
ATOM     14  C   UNL     1       3.278   2.781  19.313  0.00  0.00    +0.000 C 
ATOM     15  F   UNL     1       2.416   1.890  18.783  0.00  0.00    +0.000 F 
ATOM     16  F   UNL     1       4.311   2.060  19.833  0.00  0.00    +0.000 F 
ATOM     17  F   UNL     1       2.664   3.365  20.370  0.00  0.00    +0.000 F 
ENDBRANCH  12  14
BRANCH  12  18
ATOM     18  O   UNL     1       4.026   3.262  16.987  0.00  0.00    +0.000 OA
ATOM     19  H   UNL     1       4.367   3.989  16.423  0.00  0.00    +0.000 HD
ENDBRANCH  12  18
ENDBRANCH   9  12
ENDBRANCH   4   8
BRANCH   1  21
ATOM     20  C   UNL     1       1.748  12.313  18.749  0.00  0.00    +0.000 C 
ATOM     21  N   UNL     1       0.778  11.247  19.057  0.00  0.00    +0.000 N 
BRANCH  21  22
ATOM     22  S   UNL     1      -0.868  11.592  18.820  0.00  0.00    +0.000 S 
ATOM     23  O   UNL     1      -0.961  12.858  18.115  0.00  0.00    +0.000 OA
ATOM     24  O   UNL     1      -1.494  10.420  18.249  0.00  0.00    +0.000 OA
BRANCH  22  25
ATOM     25  C   UNL     1      -1.563  11.869  20.449  0.00  0.00    +0.000 A 
ATOM     26  C   UNL     1      -0.675  11.804  21.536  0.00  0.00    +0.000 A 
ATOM     27  C   UNL     1      -1.079  12.206  22.814  0.00  0.00    +0.000 A 
ATOM     28  C   UNL     1      -2.366  12.688  23.014  0.00  0.00    +0.000 A 
ATOM     29  C   UNL     1      -3.259  12.742  21.945  0.00  0.00    +0.000 A 
ATOM     30  C   UNL     1      -2.870  12.328  20.659  0.00  0.00    +0.000 A 
ATOM     31 CL   UNL     1      -4.105  12.397  19.454  0.00  0.00    +0.000 Cl
ENDBRANCH  22  25
ENDBRANCH  21  22
ENDBRANCH   1  21
TORSDOF 7
ENDMDL
MODEL 5
REMARK VINA RESULT:      -8.0      4.236      9.161
REMARK  Name = 
REMARK  9 active torsions:
REMARK  status: ('A' for Active; 'I' for Inactive)
REMARK    1  A    between atoms: C_1  and  N_2
REMARK    2  A    between atoms: N_2  and  C_3
REMARK    3  A    between atoms: N_2  and  S_20
REMARK    4  A    between atoms: C_6  and  N_7
REMARK    5  A    between atoms: C_8  and  C_10
REMARK    6  A    between atoms: C_10  and  C_11
REMARK    7  A    between atoms: C_10  and  O_12
REMARK    8  A    between atoms: C_10  and  C_13
REMARK    9  A    between atoms: S_20  and  C_23
REMARK                            x       y       z     vdW  Elec       q    Type
REMARK                         _______ _______ _______ _____ _____    ______ ____
ROOT
ATOM      1  C   UNL     1       1.230   9.899  18.962  0.00  0.00    +0.000 A 
ATOM      2  C   UNL     1       1.965   9.598  17.819  0.00  0.00    +0.000 A 
ATOM      3  C   UNL     1       2.623   8.371  17.720  0.00  0.00    +0.000 A 
ATOM      4  C   UNL     1       2.545   7.406  18.730  0.00  0.00    +0.000 A 
ATOM      5  C   UNL     1       1.756   7.706  19.859  0.00  0.00    +0.000 A 
ATOM      6 CL   UNL     1       1.602   6.575  21.158  0.00  0.00    +0.000 Cl
ATOM      7  C   UNL     1       1.093   8.940  19.966  0.00  0.00    +0.000 A 
ENDROOT
BRANCH   4   8
ATOM      8  N   UNL     1       3.274   6.184  18.660  0.00  0.00    +0.000 N 
ATOM      9  C   UNL     1       2.817   5.000  18.104  0.00  0.00    +0.000 C 
ATOM     10  O   UNL     1       1.681   4.835  17.645  0.00  0.00    +0.000 OA
ATOM     11  H   UNL     1       4.149   6.135  19.182  0.00  0.00    +0.000 HD
BRANCH   9  12
ATOM     12  C   UNL     1       3.818   3.849  18.064  0.00  0.00    +0.000 C 
ATOM     13  C   UNL     1       3.061   2.573  17.664  0.00  0.00    +0.000 C 
BRANCH  12  14
ATOM     14  C   UNL     1       4.878   4.215  17.004  0.00  0.00    +0.000 C 
ATOM     15  F   UNL     1       4.515   5.208  16.168  0.00  0.00    +0.000 F 
ATOM     16  F   UNL     1       6.016   4.629  17.628  0.00  0.00    +0.000 F 
ATOM     17  F   UNL     1       5.238   3.152  16.243  0.00  0.00    +0.000 F 
ENDBRANCH  12  14
BRANCH  12  18
ATOM     18  O   UNL     1       4.388   3.619  19.371  0.00  0.00    +0.000 OA
ATOM     19  H   UNL     1       5.012   4.355  19.543  0.00  0.00    +0.000 HD
ENDBRANCH  12  18
ENDBRANCH   9  12
ENDBRANCH   4   8
BRANCH   1  21
ATOM     20  C   UNL     1       1.735  12.312  18.958  0.00  0.00    +0.000 C 
ATOM     21  N   UNL     1       0.755  11.232  19.181  0.00  0.00    +0.000 N 
BRANCH  21  22
ATOM     22  S   UNL     1      -0.884  11.595  18.924  0.00  0.00    +0.000 S 
ATOM     23  O   UNL     1      -0.955  12.870  18.231  0.00  0.00    +0.000 OA
ATOM     24  O   UNL     1      -1.512  10.435  18.333  0.00  0.00    +0.000 OA
BRANCH  22  25
ATOM     25  C   UNL     1      -1.599  11.862  20.547  0.00  0.00    +0.000 A 
ATOM     26  C   UNL     1      -0.730  11.765  21.646  0.00  0.00    +0.000 A 
ATOM     27  C   UNL     1      -1.146  12.156  22.923  0.00  0.00    +0.000 A 
ATOM     28  C   UNL     1      -2.428  12.660  23.110  0.00  0.00    +0.000 A 
ATOM     29  C   UNL     1      -3.302  12.745  22.029  0.00  0.00    +0.000 A 
ATOM     30  C   UNL     1      -2.900  12.342  20.743  0.00  0.00    +0.000 A 
ATOM     31 CL   UNL     1      -4.115  12.451  19.520  0.00  0.00    +0.000 Cl
ENDBRANCH  22  25
ENDBRANCH  21  22
ENDBRANCH   1  21
TORSDOF 7
ENDMDL
MODEL 6
REMARK VINA RESULT:      -8.0      1.376      1.930
REMARK  Name = 
REMARK  9 active torsions:
REMARK  status: ('A' for Active; 'I' for Inactive)
REMARK    1  A    between atoms: C_1  and  N_2
REMARK    2  A    between atoms: N_2  and  C_3
REMARK    3  A    between atoms: N_2  and  S_20
REMARK    4  A    between atoms: C_6  and  N_7
REMARK    5  A    between atoms: C_8  and  C_10
REMARK    6  A    between atoms: C_10  and  C_11
REMARK    7  A    between atoms: C_10  and  O_12
REMARK    8  A    between atoms: C_10  and  C_13
REMARK    9  A    between atoms: S_20  and  C_23
REMARK                            x       y       z     vdW  Elec       q    Type
REMARK                         _______ _______ _______ _____ _____    ______ ____
ROOT
ATOM      1  C   UNL     1       2.509   5.698  18.801  0.00  0.00    +0.000 A 
ATOM      2  C   UNL     1       2.714   6.495  17.678  0.00  0.00    +0.000 A 
ATOM      3  C   UNL     1       2.457   7.865  17.743  0.00  0.00    +0.000 A 
ATOM      4  C   UNL     1       2.023   8.481  18.923  0.00  0.00    +0.000 A 
ATOM      5  C   UNL     1       1.869   7.669  20.064  0.00  0.00    +0.000 A 
ATOM      6 CL   UNL     1       1.335   8.341  21.565  0.00  0.00    +0.000 Cl
ATOM      7  C   UNL     1       2.123   6.288  20.004  0.00  0.00    +0.000 A 
ENDROOT
BRANCH   4   8
ATOM      8  N   UNL     1       1.692   9.866  18.970  0.00  0.00    +0.000 N 
ATOM      9  C   UNL     1       0.460  10.413  18.650  0.00  0.00    +0.000 C 
ATOM     10  O   UNL     1      -0.504   9.768  18.223  0.00  0.00    +0.000 OA
ATOM     11  H   UNL     1       2.458  10.522  19.116  0.00  0.00    +0.000 HD
BRANCH   9  12
ATOM     12  C   UNL     1       0.319  11.917  18.866  0.00  0.00    +0.000 C 
ATOM     13  C   UNL     1      -1.038  12.356  18.294  0.00  0.00    +0.000 C 
BRANCH  12  14
ATOM     14  C   UNL     1       0.376  12.158  20.390  0.00  0.00    +0.000 C 
ATOM     15  F   UNL     1       1.621  12.312  20.886  0.00  0.00    +0.000 F 
ATOM     16  F   UNL     1      -0.306  13.298  20.692  0.00  0.00    +0.000 F 
ATOM     17  F   UNL     1      -0.224  11.168  21.093  0.00  0.00    +0.000 F 
ENDBRANCH  12  14
BRANCH  12  18
ATOM     18  O   UNL     1       1.343  12.637  18.146  0.00  0.00    +0.000 OA
ATOM     19  H   UNL     1       1.729  12.010  17.498  0.00  0.00    +0.000 HD
ENDBRANCH  12  18
ENDBRANCH   9  12
ENDBRANCH   4   8
BRANCH   1  21
ATOM     20  C   UNL     1       1.486   3.672  17.837  0.00  0.00    +0.000 C 
ATOM     21  N   UNL     1       2.535   4.271  18.683  0.00  0.00    +0.000 N 
BRANCH  21  22
ATOM     22  S   UNL     1       4.013   3.443  18.803  0.00  0.00    +0.000 S 
ATOM     23  O   UNL     1       4.240   3.136  20.205  0.00  0.00    +0.000 OA
ATOM     24  O   UNL     1       4.003   2.366  17.839  0.00  0.00    +0.000 OA
BRANCH  22  25
ATOM     25  C   UNL     1       5.285   4.614  18.329  0.00  0.00    +0.000 A 
ATOM     26  C   UNL     1       6.043   5.181  19.368  0.00  0.00    +0.000 A 
ATOM     27  C   UNL     1       7.184   5.940  19.088  0.00  0.00    +0.000 A 
ATOM     28  C   UNL     1       7.585   6.129  17.771  0.00  0.00    +0.000 A 
ATOM     29  C   UNL     1       6.831   5.583  16.733  0.00  0.00    +0.000 A 
ATOM     30  C   UNL     1       5.675   4.829  17.001  0.00  0.00    +0.000 A 
ATOM     31 CL   UNL     1       4.815   4.273  15.610  0.00  0.00    +0.000 Cl
ENDBRANCH  22  25
ENDBRANCH  21  22
ENDBRANCH   1  21
TORSDOF 7
ENDMDL
MODEL 7
REMARK VINA RESULT:      -7.9      1.397      1.891
REMARK  Name = 
REMARK  9 active torsions:
REMARK  status: ('A' for Active; 'I' for Inactive)
REMARK    1  A    between atoms: C_1  and  N_2
REMARK    2  A    between atoms: N_2  and  C_3
REMARK    3  A    between atoms: N_2  and  S_20
REMARK    4  A    between atoms: C_6  and  N_7
REMARK    5  A    between atoms: C_8  and  C_10
REMARK    6  A    between atoms: C_10  and  C_11
REMARK    7  A    between atoms: C_10  and  O_12
REMARK    8  A    between atoms: C_10  and  C_13
REMARK    9  A    between atoms: S_20  and  C_23
REMARK                            x       y       z     vdW  Elec       q    Type
REMARK                         _______ _______ _______ _____ _____    ______ ____
ROOT
ATOM      1  C   UNL     1       2.581   6.002  18.953  0.00  0.00    +0.000 A 
ATOM      2  C   UNL     1       2.674   6.766  17.793  0.00  0.00    +0.000 A 
ATOM      3  C   UNL     1       2.282   8.106  17.812  0.00  0.00    +0.000 A 
ATOM      4  C   UNL     1       1.821   8.726  18.979  0.00  0.00    +0.000 A 
ATOM      5  C   UNL     1       1.780   7.952  20.156  0.00  0.00    +0.000 A 
ATOM      6 CL   UNL     1       1.223   8.633  21.645  0.00  0.00    +0.000 Cl
ATOM      7  C   UNL     1       2.170   6.603  20.143  0.00  0.00    +0.000 A 
ENDROOT
BRANCH   4   8
ATOM      8  N   UNL     1       1.354  10.072  18.980  0.00  0.00    +0.000 N 
ATOM      9  C   UNL     1       0.080  10.486  18.624  0.00  0.00    +0.000 C 
ATOM     10  O   UNL     1      -0.806   9.736  18.198  0.00  0.00    +0.000 OA
ATOM     11  H   UNL     1       2.048  10.804  19.121  0.00  0.00    +0.000 HD
BRANCH   9  12
ATOM     12  C   UNL     1      -0.212  11.973  18.794  0.00  0.00    +0.000 C 
ATOM     13  C   UNL     1      -1.519  12.290  18.050  0.00  0.00    +0.000 C 
BRANCH  12  14
ATOM     14  C   UNL     1      -0.368  12.228  20.309  0.00  0.00    +0.000 C 
ATOM     15  F   UNL     1      -0.881  11.191  21.001  0.00  0.00    +0.000 F 
ATOM     16  F   UNL     1       0.856  12.489  20.849  0.00  0.00    +0.000 F 
ATOM     17  F   UNL     1      -1.131  13.315  20.575  0.00  0.00    +0.000 F 
ENDBRANCH  12  14
BRANCH  12  18
ATOM     18  O   UNL     1       0.830  12.773  18.195  0.00  0.00    +0.000 OA
ATOM     19  H   UNL     1       1.488  12.956  18.898  0.00  0.00    +0.000 HD
ENDBRANCH  12  18
ENDBRANCH   9  12
ENDBRANCH   4   8
BRANCH   1  21
ATOM     20  C   UNL     1       1.514   3.780  19.016  0.00  0.00    +0.000 C 
ATOM     21  N   UNL     1       2.746   4.581  18.892  0.00  0.00    +0.000 N 
BRANCH  21  22
ATOM     22  S   UNL     1       4.023   3.920  17.988  0.00  0.00    +0.000 S 
ATOM     23  O   UNL     1       4.437   2.688  18.636  0.00  0.00    +0.000 OA
ATOM     24  O   UNL     1       3.618   3.885  16.601  0.00  0.00    +0.000 OA
BRANCH  22  25
ATOM     25  C   UNL     1       5.396   5.061  18.148  0.00  0.00    +0.000 A 
ATOM     26  C   UNL     1       6.073   5.070  19.380  0.00  0.00    +0.000 A 
ATOM     27  C   UNL     1       7.274   5.770  19.530  0.00  0.00    +0.000 A 
ATOM     28  C   UNL     1       7.817   6.455  18.451  0.00  0.00    +0.000 A 
ATOM     29  C   UNL     1       7.146   6.466  17.229  0.00  0.00    +0.000 A 
ATOM     30  C   UNL     1       5.930   5.777  17.069  0.00  0.00    +0.000 A 
ATOM     31 CL   UNL     1       5.189   5.935  15.517  0.00  0.00    +0.000 Cl
ENDBRANCH  22  25
ENDBRANCH  21  22
ENDBRANCH   1  21
TORSDOF 7
ENDMDL
MODEL 8
REMARK VINA RESULT:      -7.9      4.407      9.246
REMARK  Name = 
REMARK  9 active torsions:
REMARK  status: ('A' for Active; 'I' for Inactive)
REMARK    1  A    between atoms: C_1  and  N_2
REMARK    2  A    between atoms: N_2  and  C_3
REMARK    3  A    between atoms: N_2  and  S_20
REMARK    4  A    between atoms: C_6  and  N_7
REMARK    5  A    between atoms: C_8  and  C_10
REMARK    6  A    between atoms: C_10  and  C_11
REMARK    7  A    between atoms: C_10  and  O_12
REMARK    8  A    between atoms: C_10  and  C_13
REMARK    9  A    between atoms: S_20  and  C_23
REMARK                            x       y       z     vdW  Elec       q    Type
REMARK                         _______ _______ _______ _____ _____    ______ ____
ROOT
ATOM      1  C   UNL     1       1.317   9.572  18.991  0.00  0.00    +0.000 A 
ATOM      2  C   UNL     1       1.903   9.410  17.739  0.00  0.00    +0.000 A 
ATOM      3  C   UNL     1       2.555   8.215  17.429  0.00  0.00    +0.000 A 
ATOM      4  C   UNL     1       2.615   7.148  18.333  0.00  0.00    +0.000 A 
ATOM      5  C   UNL     1       1.973   7.311  19.577  0.00  0.00    +0.000 A 
ATOM      6 CL   UNL     1       1.997   6.047  20.757  0.00  0.00    +0.000 Cl
ATOM      7  C   UNL     1       1.318   8.511  19.896  0.00  0.00    +0.000 A 
ENDROOT
BRANCH   4   8
ATOM      8  N   UNL     1       3.342   5.958  18.043  0.00  0.00    +0.000 N 
ATOM      9  C   UNL     1       4.707   5.880  17.813  0.00  0.00    +0.000 C 
ATOM     10  O   UNL     1       5.467   6.854  17.771  0.00  0.00    +0.000 OA
ATOM     11  H   UNL     1       2.800   5.117  17.852  0.00  0.00    +0.000 HD
BRANCH   9  12
ATOM     12  C   UNL     1       5.273   4.477  17.613  0.00  0.00    +0.000 C 
ATOM     13  C   UNL     1       4.121   3.472  17.768  0.00  0.00    +0.000 C 
BRANCH  12  14
ATOM     14  C   UNL     1       5.856   4.429  16.184  0.00  0.00    +0.000 C 
ATOM     15  F   UNL     1       5.918   3.194  15.647  0.00  0.00    +0.000 F 
ATOM     16  F   UNL     1       5.074   5.175  15.354  0.00  0.00    +0.000 F 
ATOM     17  F   UNL     1       7.096   4.970  16.113  0.00  0.00    +0.000 F 
ENDBRANCH  12  14
BRANCH  12  18
ATOM     18  O   UNL     1       6.252   4.170  18.629  0.00  0.00    +0.000 OA
ATOM     19  H   UNL     1       7.131   4.192  18.193  0.00  0.00    +0.000 HD
ENDBRANCH  12  18
ENDBRANCH   9  12
ENDBRANCH   4   8
BRANCH   1  21
ATOM     20  C   UNL     1       1.888  11.920  19.484  0.00  0.00    +0.000 C 
ATOM     21  N   UNL     1       0.861  10.864  19.408  0.00  0.00    +0.000 N 
BRANCH  21  22
ATOM     22  S   UNL     1      -0.733  11.345  19.070  0.00  0.00    +0.000 S 
ATOM     23  O   UNL     1      -0.679  12.644  18.423  0.00  0.00    +0.000 OA
ATOM     24  O   UNL     1      -1.397  10.251  18.398  0.00  0.00    +0.000 OA
BRANCH  22  25
ATOM     25  C   UNL     1      -1.528  11.602  20.656  0.00  0.00    +0.000 A 
ATOM     26  C   UNL     1      -0.761  11.325  21.801  0.00  0.00    +0.000 A 
ATOM     27  C   UNL     1      -1.219  11.689  23.072  0.00  0.00    +0.000 A 
ATOM     28  C   UNL     1      -2.437  12.342  23.210  0.00  0.00    +0.000 A 
ATOM     29  C   UNL     1      -3.212  12.607  22.082  0.00  0.00    +0.000 A 
ATOM     30  C   UNL     1      -2.769  12.235  20.800  0.00  0.00    +0.000 A 
ATOM     31 CL   UNL     1      -3.866  12.576  19.510  0.00  0.00    +0.000 Cl
ENDBRANCH  22  25
ENDBRANCH  21  22
ENDBRANCH   1  21
TORSDOF 7
ENDMDL
MODEL 9
REMARK VINA RESULT:      -7.9      1.804      2.394
REMARK  Name = 
REMARK  9 active torsions:
REMARK  status: ('A' for Active; 'I' for Inactive)
REMARK    1  A    between atoms: C_1  and  N_2
REMARK    2  A    between atoms: N_2  and  C_3
REMARK    3  A    between atoms: N_2  and  S_20
REMARK    4  A    between atoms: C_6  and  N_7
REMARK    5  A    between atoms: C_8  and  C_10
REMARK    6  A    between atoms: C_10  and  C_11
REMARK    7  A    between atoms: C_10  and  O_12
REMARK    8  A    between atoms: C_10  and  C_13
REMARK    9  A    between atoms: S_20  and  C_23
REMARK                            x       y       z     vdW  Elec       q    Type
REMARK                         _______ _______ _______ _____ _____    ______ ____
ROOT
ATOM      1  C   UNL     1       2.392   6.564  19.880  0.00  0.00    +0.000 A 
ATOM      2  C   UNL     1       2.585   7.276  18.699  0.00  0.00    +0.000 A 
ATOM      3  C   UNL     1       1.985   8.525  18.536  0.00  0.00    +0.000 A 
ATOM      4  C   UNL     1       1.209   9.111  19.543  0.00  0.00    +0.000 A 
ATOM      5  C   UNL     1       1.064   8.400  20.751  0.00  0.00    +0.000 A 
ATOM      6 CL   UNL     1       0.122   9.043  22.051  0.00  0.00    +0.000 Cl
ATOM      7  C   UNL     1       1.663   7.140  20.921  0.00  0.00    +0.000 A 
ENDROOT
BRANCH   4   8
ATOM      8  N   UNL     1       0.538  10.352  19.348  0.00  0.00    +0.000 N 
ATOM      9  C   UNL     1      -0.437  10.603  18.396  0.00  0.00    +0.000 C 
ATOM     10  O   UNL     1      -0.810   9.788  17.544  0.00  0.00    +0.000 OA
ATOM     11  H   UNL     1       0.897  11.159  19.856  0.00  0.00    +0.000 HD
BRANCH   9  12
ATOM     12  C   UNL     1      -1.076  11.988  18.441  0.00  0.00    +0.000 C 
ATOM     13  C   UNL     1      -2.078  12.012  19.606  0.00  0.00    +0.000 C 
BRANCH  12  14
ATOM     14  C   UNL     1       0.065  13.000  18.676  0.00  0.00    +0.000 C 
ATOM     15  F   UNL     1       1.230  12.680  18.078  0.00  0.00    +0.000 F 
ATOM     16  F   UNL     1      -0.303  14.216  18.184  0.00  0.00    +0.000 F 
ATOM     17  F   UNL     1       0.321  13.194  19.993  0.00  0.00    +0.000 F 
ENDBRANCH  12  14
BRANCH  12  18
ATOM     18  O   UNL     1      -1.818  12.250  17.230  0.00  0.00    +0.000 OA
ATOM     19  H   UNL     1      -1.969  11.384  16.796  0.00  0.00    +0.000 HD
ENDBRANCH  12  18
ENDBRANCH   9  12
ENDBRANCH   4   8
BRANCH   1  21
ATOM     20  C   UNL     1       2.164   4.399  21.038  0.00  0.00    +0.000 C 
ATOM     21  N   UNL     1       2.795   5.193  19.967  0.00  0.00    +0.000 N 
BRANCH  21  22
ATOM     22  S   UNL     1       3.284   4.368  18.565  0.00  0.00    +0.000 S 
ATOM     23  O   UNL     1       3.279   2.946  18.859  0.00  0.00    +0.000 OA
ATOM     24  O   UNL     1       2.497   4.861  17.458  0.00  0.00    +0.000 OA
BRANCH  22  25
ATOM     25  C   UNL     1       4.997   4.821  18.287  0.00  0.00    +0.000 A 
ATOM     26  C   UNL     1       5.705   5.327  19.391  0.00  0.00    +0.000 A 
ATOM     27  C   UNL     1       7.090   5.512  19.327  0.00  0.00    +0.000 A 
ATOM     28  C   UNL     1       7.781   5.181  18.167  0.00  0.00    +0.000 A 
ATOM     29  C   UNL     1       7.085   4.693  17.063  0.00  0.00    +0.000 A 
ATOM     30  C   UNL     1       5.691   4.515  17.110  0.00  0.00    +0.000 A 
ATOM     31 CL   UNL     1       4.966   3.962  15.643  0.00  0.00    +0.000 Cl
ENDBRANCH  22  25
ENDBRANCH  21  22
ENDBRANCH   1  21
TORSDOF 7
ENDMDL
