MODEL 1
REMARK VINA RESULT:      -8.7      0.000      0.000
REMARK  Name = 
REMARK  6 active torsions:
REMARK  status: ('A' for Active; 'I' for Inactive)
REMARK    1  A    between atoms: C_1  and  N_2
REMARK    2  A    between atoms: C_4  and  C_5
REMARK    3  A    between atoms: N_7  and  N_8
REMARK    4  A    between atoms: C_9  and  C_11
REMARK    5  A    between atoms: C_11  and  C_12
REMARK    6  A    between atoms: C_12  and  C_13
REMARK                            x       y       z     vdW  Elec       q    Type
REMARK                         _______ _______ _______ _____ _____    ______ ____
ROOT
ATOM      1  C   UNL     1       2.177   7.192  19.638  0.00  0.00    +0.000 C 
ATOM      2  O   UNL     1       2.161   8.153  18.879  0.00  0.00    +0.000 OA
ATOM      3  N   UNL     1       1.859   7.275  20.980  0.00  0.00    +0.000 N 
ATOM      4  H   UNL     1       1.705   6.448  21.557  0.00  0.00    +0.000 HD
ENDROOT
BRANCH   1   8
ATOM      5  C   UNL     1       1.640   2.437  20.093  0.00  0.00    +0.000 C 
ATOM      6  N   UNL     1       2.245   3.518  19.342  0.00  0.00    +0.000 N 
ATOM      7  N   UNL     1       1.983   4.798  19.768  0.00  0.00    +0.000 NA
ATOM      8  C   UNL     1       2.544   5.795  19.143  0.00  0.00    +0.000 A 
ATOM      9  C   UNL     1       3.492   5.621  18.019  0.00  0.00    +0.000 A 
ATOM     10  C   UNL     1       4.194   6.673  17.415  0.00  0.00    +0.000 A 
ATOM     11  C   UNL     1       5.090   6.418  16.369  0.00  0.00    +0.000 A 
ATOM     12  C   UNL     1       5.289   5.115  15.917  0.00  0.00    +0.000 A 
ATOM     13  C   UNL     1       4.596   4.065  16.513  0.00  0.00    +0.000 A 
ATOM     14  C   UNL     1       3.708   4.320  17.570  0.00  0.00    +0.000 A 
ATOM     15  C   UNL     1       3.036   3.196  18.243  0.00  0.00    +0.000 A 
ATOM     16  O   UNL     1       3.216   2.050  17.838  0.00  0.00    +0.000 OA
ENDBRANCH   1   8
BRANCH   3  17
ATOM     17  N   UNL     1       1.499   8.531  21.484  0.00  0.00    +0.000 N 
ATOM     18  C   UNL     1       0.187   8.801  21.818  0.00  0.00    +0.000 C 
ATOM     19  O   UNL     1      -0.720   7.984  21.699  0.00  0.00    +0.000 OA
ATOM     20  H   UNL     1       2.250   9.213  21.575  0.00  0.00    +0.000 HD
BRANCH  18  21
ATOM     21  C   UNL     1      -0.030  10.200  22.376  0.00  0.00    +0.000 C 
BRANCH  21  22
ATOM     22  C   UNL     1       0.204  11.265  21.306  0.00  0.00    +0.000 C 
BRANCH  22  23
ATOM     23  C   UNL     1      -0.801  11.242  20.174  0.00  0.00    +0.000 A 
ATOM     24  C   UNL     1      -0.507  10.492  19.022  0.00  0.00    +0.000 A 
ATOM     25  C   UNL     1      -1.360  10.512  17.914  0.00  0.00    +0.000 A 
ATOM     26  C   UNL     1      -2.527  11.270  17.944  0.00  0.00    +0.000 A 
ATOM     27  C   UNL     1      -2.851  11.996  19.088  0.00  0.00    +0.000 A 
ATOM     28  C   UNL     1      -1.998  11.978  20.199  0.00  0.00    +0.000 A 
ATOM     29 CL   UNL     1      -2.468  12.904  21.581  0.00  0.00    +0.000 Cl
ENDBRANCH  22  23
ENDBRANCH  21  22
ENDBRANCH  18  21
ENDBRANCH   3  17
TORSDOF 5
ENDMDL
MODEL 2
REMARK VINA RESULT:      -8.7      7.047      8.800
REMARK  Name = 
REMARK  6 active torsions:
REMARK  status: ('A' for Active; 'I' for Inactive)
REMARK    1  A    between atoms: C_1  and  N_2
REMARK    2  A    between atoms: C_4  and  C_5
REMARK    3  A    between atoms: N_7  and  N_8
REMARK    4  A    between atoms: C_9  and  C_11
REMARK    5  A    between atoms: C_11  and  C_12
REMARK    6  A    between atoms: C_12  and  C_13
REMARK                            x       y       z     vdW  Elec       q    Type
REMARK                         _______ _______ _______ _____ _____    ______ ____
ROOT
ATOM      1  C   UNL     1       7.766   6.669  18.276  0.00  0.00    +0.000 C 
ATOM      2  O   UNL     1       8.164   6.116  19.294  0.00  0.00    +0.000 OA
ATOM      3  N   UNL     1       8.015   7.994  17.981  0.00  0.00    +0.000 N 
ATOM      4  H   UNL     1       7.833   8.392  17.059  0.00  0.00    +0.000 HD
ENDROOT
BRANCH   1   8
ATOM      5  C   UNL     1       7.436   5.088  13.748  0.00  0.00    +0.000 C 
ATOM      6  N   UNL     1       6.830   5.119  15.065  0.00  0.00    +0.000 N 
ATOM      7  N   UNL     1       7.494   5.823  16.041  0.00  0.00    +0.000 NA
ATOM      8  C   UNL     1       6.958   5.910  17.226  0.00  0.00    +0.000 A 
ATOM      9  C   UNL     1       5.642   5.324  17.569  0.00  0.00    +0.000 A 
ATOM     10  C   UNL     1       4.998   5.509  18.800  0.00  0.00    +0.000 A 
ATOM     11  C   UNL     1       3.742   4.937  19.034  0.00  0.00    +0.000 A 
ATOM     12  C   UNL     1       3.121   4.176  18.047  0.00  0.00    +0.000 A 
ATOM     13  C   UNL     1       3.754   3.990  16.820  0.00  0.00    +0.000 A 
ATOM     14  C   UNL     1       5.007   4.574  16.582  0.00  0.00    +0.000 A 
ATOM     15  C   UNL     1       5.635   4.434  15.257  0.00  0.00    +0.000 A 
ATOM     16  O   UNL     1       5.081   3.760  14.390  0.00  0.00    +0.000 OA
ENDBRANCH   1   8
BRANCH   3  17
ATOM     17  N   UNL     1       8.766   8.734  18.903  0.00  0.00    +0.000 N 
ATOM     18  C   UNL     1       8.939  10.094  18.734  0.00  0.00    +0.000 C 
ATOM     19  O   UNL     1       8.460  10.722  17.796  0.00  0.00    +0.000 OA
ATOM     20  H   UNL     1       9.171   8.212  19.677  0.00  0.00    +0.000 HD
BRANCH  18  21
ATOM     21  C   UNL     1       9.756  10.751  19.837  0.00  0.00    +0.000 C 
BRANCH  21  22
ATOM     22  C   UNL     1      10.973  11.476  19.266  0.00  0.00    +0.000 C 
BRANCH  22  23
ATOM     23  C   UNL     1      10.912  12.985  19.383  0.00  0.00    +0.000 A 
ATOM     24  C   UNL     1      10.704  13.559  20.649  0.00  0.00    +0.000 A 
ATOM     25  C   UNL     1      10.549  14.941  20.795  0.00  0.00    +0.000 A 
ATOM     26  C   UNL     1      10.613  15.773  19.681  0.00  0.00    +0.000 A 
ATOM     27  C   UNL     1      10.848  15.225  18.422  0.00  0.00    +0.000 A 
ATOM     28  C   UNL     1      11.003  13.841  18.273  0.00  0.00    +0.000 A 
ATOM     29 CL   UNL     1      11.293  13.238  16.678  0.00  0.00    +0.000 Cl
ENDBRANCH  22  23
ENDBRANCH  21  22
ENDBRANCH  18  21
ENDBRANCH   3  17
TORSDOF 5
ENDMDL
MODEL 3
REMARK VINA RESULT:      -8.7      6.744      8.742
REMARK  Name = 
REMARK  6 active torsions:
REMARK  status: ('A' for Active; 'I' for Inactive)
REMARK    1  A    between atoms: C_1  and  N_2
REMARK    2  A    between atoms: C_4  and  C_5
REMARK    3  A    between atoms: N_7  and  N_8
REMARK    4  A    between atoms: C_9  and  C_11
REMARK    5  A    between atoms: C_11  and  C_12
REMARK    6  A    between atoms: C_12  and  C_13
REMARK                            x       y       z     vdW  Elec       q    Type
REMARK                         _______ _______ _______ _____ _____    ______ ____
ROOT
ATOM      1  C   UNL     1       7.762   6.709  18.267  0.00  0.00    +0.000 C 
ATOM      2  O   UNL     1       8.119   6.173  19.308  0.00  0.00    +0.000 OA
ATOM      3  N   UNL     1       8.041   8.024  17.951  0.00  0.00    +0.000 N 
ATOM      4  H   UNL     1       7.894   8.405  17.016  0.00  0.00    +0.000 HD
ENDROOT
BRANCH   1   8
ATOM      5  C   UNL     1       7.506   5.106  13.741  0.00  0.00    +0.000 C 
ATOM      6  N   UNL     1       6.882   5.139  15.049  0.00  0.00    +0.000 N 
ATOM      7  N   UNL     1       7.527   5.852  16.032  0.00  0.00    +0.000 NA
ATOM      8  C   UNL     1       6.973   5.940  17.209  0.00  0.00    +0.000 A 
ATOM      9  C   UNL     1       5.656   5.348  17.535  0.00  0.00    +0.000 A 
ATOM     10  C   UNL     1       4.993   5.534  18.756  0.00  0.00    +0.000 A 
ATOM     11  C   UNL     1       3.738   4.956  18.975  0.00  0.00    +0.000 A 
ATOM     12  C   UNL     1       3.135   4.187  17.982  0.00  0.00    +0.000 A 
ATOM     13  C   UNL     1       3.787   3.999  16.766  0.00  0.00    +0.000 A 
ATOM     14  C   UNL     1       5.040   4.590  16.542  0.00  0.00    +0.000 A 
ATOM     15  C   UNL     1       5.688   4.448  15.227  0.00  0.00    +0.000 A 
ATOM     16  O   UNL     1       5.151   3.767  14.356  0.00  0.00    +0.000 OA
ENDBRANCH   1   8
BRANCH   3  17
ATOM     17  N   UNL     1       8.776   8.771  18.880  0.00  0.00    +0.000 N 
ATOM     18  C   UNL     1       8.890  10.141  18.743  0.00  0.00    +0.000 C 
ATOM     19  O   UNL     1       8.371  10.771  17.829  0.00  0.00    +0.000 OA
ATOM     20  H   UNL     1       9.215   8.248  19.635  0.00  0.00    +0.000 HD
BRANCH  18  21
ATOM     21  C   UNL     1       9.698  10.804  19.850  0.00  0.00    +0.000 C 
BRANCH  21  22
ATOM     22  C   UNL     1      11.057  11.275  19.336  0.00  0.00    +0.000 C 
BRANCH  22  23
ATOM     23  C   UNL     1      11.028  12.619  18.639  0.00  0.00    +0.000 A 
ATOM     24  C   UNL     1      11.253  12.669  17.253  0.00  0.00    +0.000 A 
ATOM     25  C   UNL     1      11.326  13.893  16.580  0.00  0.00    +0.000 A 
ATOM     26  C   UNL     1      11.161  15.085  17.278  0.00  0.00    +0.000 A 
ATOM     27  C   UNL     1      10.907  15.055  18.648  0.00  0.00    +0.000 A 
ATOM     28  C   UNL     1      10.834  13.831  19.324  0.00  0.00    +0.000 A 
ATOM     29 CL   UNL     1      10.515  13.876  21.023  0.00  0.00    +0.000 Cl
ENDBRANCH  22  23
ENDBRANCH  21  22
ENDBRANCH  18  21
ENDBRANCH   3  17
TORSDOF 5
ENDMDL
MODEL 4
REMARK VINA RESULT:      -8.7      1.038      1.444
REMARK  Name = 
REMARK  6 active torsions:
REMARK  status: ('A' for Active; 'I' for Inactive)
REMARK    1  A    between atoms: C_1  and  N_2
REMARK    2  A    between atoms: C_4  and  C_5
REMARK    3  A    between atoms: N_7  and  N_8
REMARK    4  A    between atoms: C_9  and  C_11
REMARK    5  A    between atoms: C_11  and  C_12
REMARK    6  A    between atoms: C_12  and  C_13
REMARK                            x       y       z     vdW  Elec       q    Type
REMARK                         _______ _______ _______ _____ _____    ______ ____
ROOT
ATOM      1  C   UNL     1       2.220   7.194  19.569  0.00  0.00    +0.000 C 
ATOM      2  O   UNL     1       2.227   8.160  18.817  0.00  0.00    +0.000 OA
ATOM      3  N   UNL     1       1.876   7.267  20.904  0.00  0.00    +0.000 N 
ATOM      4  H   UNL     1       1.705   6.436  21.471  0.00  0.00    +0.000 HD
ENDROOT
BRANCH   1   8
ATOM      5  C   UNL     1       1.683   2.436  20.007  0.00  0.00    +0.000 C 
ATOM      6  N   UNL     1       2.290   3.521  19.260  0.00  0.00    +0.000 N 
ATOM      7  N   UNL     1       2.026   4.799  19.690  0.00  0.00    +0.000 NA
ATOM      8  C   UNL     1       2.589   5.798  19.070  0.00  0.00    +0.000 A 
ATOM      9  C   UNL     1       3.539   5.627  17.947  0.00  0.00    +0.000 A 
ATOM     10  C   UNL     1       4.243   6.681  17.348  0.00  0.00    +0.000 A 
ATOM     11  C   UNL     1       5.141   6.430  16.304  0.00  0.00    +0.000 A 
ATOM     12  C   UNL     1       5.341   5.129  15.848  0.00  0.00    +0.000 A 
ATOM     13  C   UNL     1       4.647   4.077  16.439  0.00  0.00    +0.000 A 
ATOM     14  C   UNL     1       3.756   4.328  17.494  0.00  0.00    +0.000 A 
ATOM     15  C   UNL     1       3.083   3.202  18.163  0.00  0.00    +0.000 A 
ATOM     16  O   UNL     1       3.264   2.057  17.754  0.00  0.00    +0.000 OA
ENDBRANCH   1   8
BRANCH   3  17
ATOM     17  N   UNL     1       1.513   8.522  21.411  0.00  0.00    +0.000 N 
ATOM     18  C   UNL     1       0.203   8.783  21.760  0.00  0.00    +0.000 C 
ATOM     19  O   UNL     1      -0.699   7.960  21.654  0.00  0.00    +0.000 OA
ATOM     20  H   UNL     1       2.260   9.209  21.492  0.00  0.00    +0.000 HD
BRANCH  18  21
ATOM     21  C   UNL     1      -0.016  10.182  22.320  0.00  0.00    +0.000 C 
BRANCH  21  22
ATOM     22  C   UNL     1       0.166  11.245  21.238  0.00  0.00    +0.000 C 
BRANCH  22  23
ATOM     23  C   UNL     1      -1.111  11.630  20.521  0.00  0.00    +0.000 A 
ATOM     24  C   UNL     1      -2.042  12.447  21.186  0.00  0.00    +0.000 A 
ATOM     25  C   UNL     1      -3.274  12.755  20.601  0.00  0.00    +0.000 A 
ATOM     26  C   UNL     1      -3.591  12.264  19.338  0.00  0.00    +0.000 A 
ATOM     27  C   UNL     1      -2.669  11.477  18.651  0.00  0.00    +0.000 A 
ATOM     28  C   UNL     1      -1.434  11.167  19.234  0.00  0.00    +0.000 A 
ATOM     29 CL   UNL     1      -0.343  10.186  18.319  0.00  0.00    +0.000 Cl
ENDBRANCH  22  23
ENDBRANCH  21  22
ENDBRANCH  18  21
ENDBRANCH   3  17
TORSDOF 5
ENDMDL
MODEL 5
REMARK VINA RESULT:      -8.6      1.517      2.126
REMARK  Name = 
REMARK  6 active torsions:
REMARK  status: ('A' for Active; 'I' for Inactive)
REMARK    1  A    between atoms: C_1  and  N_2
REMARK    2  A    between atoms: C_4  and  C_5
REMARK    3  A    between atoms: N_7  and  N_8
REMARK    4  A    between atoms: C_9  and  C_11
REMARK    5  A    between atoms: C_11  and  C_12
REMARK    6  A    between atoms: C_12  and  C_13
REMARK                            x       y       z     vdW  Elec       q    Type
REMARK                         _______ _______ _______ _____ _____    ______ ____
ROOT
ATOM      1  C   UNL     1       2.209   7.212  19.637  0.00  0.00    +0.000 C 
ATOM      2  O   UNL     1       2.252   8.197  18.911  0.00  0.00    +0.000 OA
ATOM      3  N   UNL     1       1.843   7.261  20.968  0.00  0.00    +0.000 N 
ATOM      4  H   UNL     1       1.642   6.421  21.511  0.00  0.00    +0.000 HD
ENDROOT
BRANCH   1   8
ATOM      5  C   UNL     1       1.573   2.458  19.965  0.00  0.00    +0.000 C 
ATOM      6  N   UNL     1       2.205   3.547  19.246  0.00  0.00    +0.000 N 
ATOM      7  N   UNL     1       1.965   4.820  19.704  0.00  0.00    +0.000 NA
ATOM      8  C   UNL     1       2.551   5.821  19.109  0.00  0.00    +0.000 A 
ATOM      9  C   UNL     1       3.504   5.656  17.987  0.00  0.00    +0.000 A 
ATOM     10  C   UNL     1       4.232   6.709  17.415  0.00  0.00    +0.000 A 
ATOM     11  C   UNL     1       5.130   6.462  16.370  0.00  0.00    +0.000 A 
ATOM     12  C   UNL     1       5.306   5.168  15.886  0.00  0.00    +0.000 A 
ATOM     13  C   UNL     1       4.588   4.118  16.450  0.00  0.00    +0.000 A 
ATOM     14  C   UNL     1       3.697   4.364  17.506  0.00  0.00    +0.000 A 
ATOM     15  C   UNL     1       2.997   3.237  18.146  0.00  0.00    +0.000 A 
ATOM     16  O   UNL     1       3.157   2.097  17.712  0.00  0.00    +0.000 OA
ENDBRANCH   1   8
BRANCH   3  17
ATOM     17  N   UNL     1       1.503   8.511  21.501  0.00  0.00    +0.000 N 
ATOM     18  C   UNL     1       0.189   8.806  21.808  0.00  0.00    +0.000 C 
ATOM     19  O   UNL     1      -0.735   8.019  21.641  0.00  0.00    +0.000 OA
ATOM     20  H   UNL     1       2.268   9.169  21.633  0.00  0.00    +0.000 HD
BRANCH  18  21
ATOM     21  C   UNL     1      -0.005  10.194  22.404  0.00  0.00    +0.000 C 
BRANCH  21  22
ATOM     22  C   UNL     1      -0.539  11.173  21.360  0.00  0.00    +0.000 C 
BRANCH  22  23
ATOM     23  C   UNL     1       0.524  11.761  20.456  0.00  0.00    +0.000 A 
ATOM     24  C   UNL     1       1.371  12.760  20.965  0.00  0.00    +0.000 A 
ATOM     25  C   UNL     1       2.307  13.396  20.143  0.00  0.00    +0.000 A 
ATOM     26  C   UNL     1       2.421  13.035  18.803  0.00  0.00    +0.000 A 
ATOM     27  C   UNL     1       1.611  12.026  18.288  0.00  0.00    +0.000 A 
ATOM     28  C   UNL     1       0.673  11.387  19.109  0.00  0.00    +0.000 A 
ATOM     29 CL   UNL     1      -0.296  10.144  18.396  0.00  0.00    +0.000 Cl
ENDBRANCH  22  23
ENDBRANCH  21  22
ENDBRANCH  18  21
ENDBRANCH   3  17
TORSDOF 5
ENDMDL
MODEL 6
REMARK VINA RESULT:      -8.6      1.267      1.885
REMARK  Name = 
REMARK  6 active torsions:
REMARK  status: ('A' for Active; 'I' for Inactive)
REMARK    1  A    between atoms: C_1  and  N_2
REMARK    2  A    between atoms: C_4  and  C_5
REMARK    3  A    between atoms: N_7  and  N_8
REMARK    4  A    between atoms: C_9  and  C_11
REMARK    5  A    between atoms: C_11  and  C_12
REMARK    6  A    between atoms: C_12  and  C_13
REMARK                            x       y       z     vdW  Elec       q    Type
REMARK                         _______ _______ _______ _____ _____    ______ ____
ROOT
ATOM      1  C   UNL     1       2.183   7.217  19.693  0.00  0.00    +0.000 C 
ATOM      2  O   UNL     1       2.160   8.216  18.985  0.00  0.00    +0.000 OA
ATOM      3  N   UNL     1       1.907   7.235  21.046  0.00  0.00    +0.000 N 
ATOM      4  H   UNL     1       1.757   6.381  21.585  0.00  0.00    +0.000 HD
ENDROOT
BRANCH   1   8
ATOM      5  C   UNL     1       1.463   2.466  19.820  0.00  0.00    +0.000 C 
ATOM      6  N   UNL     1       2.125   3.571  19.156  0.00  0.00    +0.000 N 
ATOM      7  N   UNL     1       1.899   4.829  19.660  0.00  0.00    +0.000 NA
ATOM      8  C   UNL     1       2.512   5.842  19.115  0.00  0.00    +0.000 A 
ATOM      9  C   UNL     1       3.481   5.706  18.004  0.00  0.00    +0.000 A 
ATOM     10  C   UNL     1       4.236   6.767  17.488  0.00  0.00    +0.000 A 
ATOM     11  C   UNL     1       5.149   6.547  16.449  0.00  0.00    +0.000 A 
ATOM     12  C   UNL     1       5.312   5.270  15.917  0.00  0.00    +0.000 A 
ATOM     13  C   UNL     1       4.566   4.211  16.426  0.00  0.00    +0.000 A 
ATOM     14  C   UNL     1       3.661   4.430  17.476  0.00  0.00    +0.000 A 
ATOM     15  C   UNL     1       2.932   3.291  18.058  0.00  0.00    +0.000 A 
ATOM     16  O   UNL     1       3.081   2.167  17.582  0.00  0.00    +0.000 OA
ENDBRANCH   1   8
BRANCH   3  17
ATOM     17  N   UNL     1       1.583   8.469  21.626  0.00  0.00    +0.000 N 
ATOM     18  C   UNL     1       0.271   8.777  21.925  0.00  0.00    +0.000 C 
ATOM     19  O   UNL     1      -0.666   8.016  21.712  0.00  0.00    +0.000 OA
ATOM     20  H   UNL     1       2.359   9.105  21.796  0.00  0.00    +0.000 HD
BRANCH  18  21
ATOM     21  C   UNL     1       0.094  10.143  22.575  0.00  0.00    +0.000 C 
BRANCH  21  22
ATOM     22  C   UNL     1      -0.219  11.215  21.532  0.00  0.00    +0.000 C 
BRANCH  22  23
ATOM     23  C   UNL     1      -1.566  11.883  21.710  0.00  0.00    +0.000 A 
ATOM     24  C   UNL     1      -2.124  11.952  22.998  0.00  0.00    +0.000 A 
ATOM     25  C   UNL     1      -3.404  12.477  23.199  0.00  0.00    +0.000 A 
ATOM     26  C   UNL     1      -4.141  12.955  22.119  0.00  0.00    +0.000 A 
ATOM     27  C   UNL     1      -3.593  12.923  20.839  0.00  0.00    +0.000 A 
ATOM     28  C   UNL     1      -2.311  12.397  20.635  0.00  0.00    +0.000 A 
ATOM     29 CL   UNL     1      -1.699  12.392  19.017  0.00  0.00    +0.000 Cl
ENDBRANCH  22  23
ENDBRANCH  21  22
ENDBRANCH  18  21
ENDBRANCH   3  17
TORSDOF 5
ENDMDL
MODEL 7
REMARK VINA RESULT:      -8.6      6.862      8.315
REMARK  Name = 
REMARK  6 active torsions:
REMARK  status: ('A' for Active; 'I' for Inactive)
REMARK    1  A    between atoms: C_1  and  N_2
REMARK    2  A    between atoms: C_4  and  C_5
REMARK    3  A    between atoms: N_7  and  N_8
REMARK    4  A    between atoms: C_9  and  C_11
REMARK    5  A    between atoms: C_11  and  C_12
REMARK    6  A    between atoms: C_12  and  C_13
REMARK                            x       y       z     vdW  Elec       q    Type
REMARK                         _______ _______ _______ _____ _____    ______ ____
ROOT
ATOM      1  C   UNL     1       7.534   5.817  18.895  0.00  0.00    +0.000 C 
ATOM      2  O   UNL     1       8.334   5.422  19.733  0.00  0.00    +0.000 OA
ATOM      3  N   UNL     1       7.562   7.087  18.353  0.00  0.00    +0.000 N 
ATOM      4  H   UNL     1       7.007   7.345  17.536  0.00  0.00    +0.000 HD
ENDROOT
BRANCH   1   8
ATOM      5  C   UNL     1       3.803   2.943  19.862  0.00  0.00    +0.000 C 
ATOM      6  N   UNL     1       4.614   3.568  18.835  0.00  0.00    +0.000 N 
ATOM      7  N   UNL     1       5.651   4.365  19.257  0.00  0.00    +0.000 NA
ATOM      8  C   UNL     1       6.428   4.908  18.362  0.00  0.00    +0.000 A 
ATOM      9  C   UNL     1       6.281   4.676  16.907  0.00  0.00    +0.000 A 
ATOM     10  C   UNL     1       7.177   5.155  15.942  0.00  0.00    +0.000 A 
ATOM     11  C   UNL     1       6.975   4.871  14.586  0.00  0.00    +0.000 A 
ATOM     12  C   UNL     1       5.880   4.111  14.183  0.00  0.00    +0.000 A 
ATOM     13  C   UNL     1       4.986   3.630  15.137  0.00  0.00    +0.000 A 
ATOM     14  C   UNL     1       5.196   3.905  16.497  0.00  0.00    +0.000 A 
ATOM     15  C   UNL     1       4.288   3.331  17.504  0.00  0.00    +0.000 A 
ATOM     16  O   UNL     1       3.322   2.662  17.141  0.00  0.00    +0.000 OA
ENDBRANCH   1   8
BRANCH   3  17
ATOM     17  N   UNL     1       8.566   7.958  18.795  0.00  0.00    +0.000 N 
ATOM     18  C   UNL     1       8.544   9.291  18.435  0.00  0.00    +0.000 C 
ATOM     19  O   UNL     1       7.671   9.783  17.729  0.00  0.00    +0.000 OA
ATOM     20  H   UNL     1       9.296   7.548  19.374  0.00  0.00    +0.000 HD
BRANCH  18  21
ATOM     21  C   UNL     1       9.690  10.104  19.019  0.00  0.00    +0.000 C 
BRANCH  21  22
ATOM     22  C   UNL     1      10.063  11.270  18.105  0.00  0.00    +0.000 C 
BRANCH  22  23
ATOM     23  C   UNL     1      10.473  12.530  18.838  0.00  0.00    +0.000 A 
ATOM     24  C   UNL     1      10.208  12.631  20.214  0.00  0.00    +0.000 A 
ATOM     25  C   UNL     1      10.485  13.810  20.915  0.00  0.00    +0.000 A 
ATOM     26  C   UNL     1      11.044  14.900  20.255  0.00  0.00    +0.000 A 
ATOM     27  C   UNL     1      11.342  14.809  18.897  0.00  0.00    +0.000 A 
ATOM     28  C   UNL     1      11.065  13.630  18.193  0.00  0.00    +0.000 A 
ATOM     29 CL   UNL     1      11.464  13.593  16.511  0.00  0.00    +0.000 Cl
ENDBRANCH  22  23
ENDBRANCH  21  22
ENDBRANCH  18  21
ENDBRANCH   3  17
TORSDOF 5
ENDMDL
MODEL 8
REMARK VINA RESULT:      -8.4      1.809      2.514
REMARK  Name = 
REMARK  6 active torsions:
REMARK  status: ('A' for Active; 'I' for Inactive)
REMARK    1  A    between atoms: C_1  and  N_2
REMARK    2  A    between atoms: C_4  and  C_5
REMARK    3  A    between atoms: N_7  and  N_8
REMARK    4  A    between atoms: C_9  and  C_11
REMARK    5  A    between atoms: C_11  and  C_12
REMARK    6  A    between atoms: C_12  and  C_13
REMARK                            x       y       z     vdW  Elec       q    Type
REMARK                         _______ _______ _______ _____ _____    ______ ____
ROOT
ATOM      1  C   UNL     1       2.165   7.235  19.688  0.00  0.00    +0.000 C 
ATOM      2  O   UNL     1       2.134   8.231  18.977  0.00  0.00    +0.000 OA
ATOM      3  N   UNL     1       1.908   7.256  21.044  0.00  0.00    +0.000 N 
ATOM      4  H   UNL     1       1.765   6.404  21.587  0.00  0.00    +0.000 HD
ENDROOT
BRANCH   1   8
ATOM      5  C   UNL     1       1.411   2.488  19.807  0.00  0.00    +0.000 C 
ATOM      6  N   UNL     1       2.084   3.589  19.147  0.00  0.00    +0.000 N 
ATOM      7  N   UNL     1       1.865   4.848  19.651  0.00  0.00    +0.000 NA
ATOM      8  C   UNL     1       2.487   5.858  19.110  0.00  0.00    +0.000 A 
ATOM      9  C   UNL     1       3.460   5.715  18.002  0.00  0.00    +0.000 A 
ATOM     10  C   UNL     1       4.225   6.772  17.490  0.00  0.00    +0.000 A 
ATOM     11  C   UNL     1       5.139   6.547  16.455  0.00  0.00    +0.000 A 
ATOM     12  C   UNL     1       5.296   5.269  15.921  0.00  0.00    +0.000 A 
ATOM     13  C   UNL     1       4.541   4.214  16.427  0.00  0.00    +0.000 A 
ATOM     14  C   UNL     1       3.633   4.439  17.473  0.00  0.00    +0.000 A 
ATOM     15  C   UNL     1       2.893   3.304  18.051  0.00  0.00    +0.000 A 
ATOM     16  O   UNL     1       3.036   2.180  17.575  0.00  0.00    +0.000 OA
ENDBRANCH   1   8
BRANCH   3  17
ATOM     17  N   UNL     1       1.591   8.491  21.624  0.00  0.00    +0.000 N 
ATOM     18  C   UNL     1       0.283   8.802  21.938  0.00  0.00    +0.000 C 
ATOM     19  O   UNL     1      -0.657   8.041  21.737  0.00  0.00    +0.000 OA
ATOM     20  H   UNL     1       2.370   9.127  21.784  0.00  0.00    +0.000 HD
BRANCH  18  21
ATOM     21  C   UNL     1       0.115  10.169  22.586  0.00  0.00    +0.000 C 
BRANCH  21  22
ATOM     22  C   UNL     1      -0.855  11.042  21.791  0.00  0.00    +0.000 C 
BRANCH  22  23
ATOM     23  C   UNL     1      -1.479  12.167  22.590  0.00  0.00    +0.000 A 
ATOM     24  C   UNL     1      -2.680  11.925  23.277  0.00  0.00    +0.000 A 
ATOM     25  C   UNL     1      -3.342  12.955  23.953  0.00  0.00    +0.000 A 
ATOM     26  C   UNL     1      -2.807  14.240  23.965  0.00  0.00    +0.000 A 
ATOM     27  C   UNL     1      -1.602  14.493  23.314  0.00  0.00    +0.000 A 
ATOM     28  C   UNL     1      -0.937  13.463  22.636  0.00  0.00    +0.000 A 
ATOM     29 CL   UNL     1       0.554  13.855  21.854  0.00  0.00    +0.000 Cl
ENDBRANCH  22  23
ENDBRANCH  21  22
ENDBRANCH  18  21
ENDBRANCH   3  17
TORSDOF 5
ENDMDL
MODEL 9
REMARK VINA RESULT:      -8.4      1.736      3.007
REMARK  Name = 
REMARK  6 active torsions:
REMARK  status: ('A' for Active; 'I' for Inactive)
REMARK    1  A    between atoms: C_1  and  N_2
REMARK    2  A    between atoms: C_4  and  C_5
REMARK    3  A    between atoms: N_7  and  N_8
REMARK    4  A    between atoms: C_9  and  C_11
REMARK    5  A    between atoms: C_11  and  C_12
REMARK    6  A    between atoms: C_12  and  C_13
REMARK                            x       y       z     vdW  Elec       q    Type
REMARK                         _______ _______ _______ _____ _____    ______ ____
ROOT
ATOM      1  C   UNL     1       2.223   7.623  18.831  0.00  0.00    +0.000 C 
ATOM      2  O   UNL     1       1.854   8.103  17.766  0.00  0.00    +0.000 OA
ATOM      3  N   UNL     1       1.865   8.133  20.063  0.00  0.00    +0.000 N 
ATOM      4  H   UNL     1       2.031   7.628  20.933  0.00  0.00    +0.000 HD
ENDROOT
BRANCH   1   8
ATOM      5  C   UNL     1       6.393   5.564  17.610  0.00  0.00    +0.000 C 
ATOM      6  N   UNL     1       5.139   5.424  18.323  0.00  0.00    +0.000 N 
ATOM      7  N   UNL     1       4.274   6.492  18.282  0.00  0.00    +0.000 NA
ATOM      8  C   UNL     1       3.118   6.387  18.876  0.00  0.00    +0.000 A 
ATOM      9  C   UNL     1       2.664   5.154  19.558  0.00  0.00    +0.000 A 
ATOM     10  C   UNL     1       1.381   4.983  20.097  0.00  0.00    +0.000 A 
ATOM     11  C   UNL     1       1.025   3.775  20.707  0.00  0.00    +0.000 A 
ATOM     12  C   UNL     1       1.944   2.730  20.788  0.00  0.00    +0.000 A 
ATOM     13  C   UNL     1       3.219   2.893  20.254  0.00  0.00    +0.000 A 
ATOM     14  C   UNL     1       3.571   4.100  19.631  0.00  0.00    +0.000 A 
ATOM     15  C   UNL     1       4.897   4.235  19.003  0.00  0.00    +0.000 A 
ATOM     16  O   UNL     1       5.703   3.310  19.079  0.00  0.00    +0.000 OA
ENDBRANCH   1   8
BRANCH   3  17
ATOM     17  N   UNL     1       1.031   9.259  20.080  0.00  0.00    +0.000 N 
ATOM     18  C   UNL     1      -0.034   9.327  20.956  0.00  0.00    +0.000 C 
ATOM     19  O   UNL     1      -0.310   8.436  21.751  0.00  0.00    +0.000 OA
ATOM     20  H   UNL     1       1.254   9.996  19.415  0.00  0.00    +0.000 HD
BRANCH  18  21
ATOM     21  C   UNL     1      -0.821  10.627  20.866  0.00  0.00    +0.000 C 
BRANCH  21  22
ATOM     22  C   UNL     1      -0.640  11.289  19.502  0.00  0.00    +0.000 C 
BRANCH  22  23
ATOM     23  C   UNL     1      -1.757  11.007  18.519  0.00  0.00    +0.000 A 
ATOM     24  C   UNL     1      -1.515  10.123  17.454  0.00  0.00    +0.000 A 
ATOM     25  C   UNL     1      -2.484   9.901  16.470  0.00  0.00    +0.000 A 
ATOM     26  C   UNL     1      -3.714  10.547  16.542  0.00  0.00    +0.000 A 
ATOM     27  C   UNL     1      -3.984  11.404  17.606  0.00  0.00    +0.000 A 
ATOM     28  C   UNL     1      -3.015  11.629  18.593  0.00  0.00    +0.000 A 
ATOM     29 CL   UNL     1      -3.425  12.705  19.883  0.00  0.00    +0.000 Cl
ENDBRANCH  22  23
ENDBRANCH  21  22
ENDBRANCH  18  21
ENDBRANCH   3  17
TORSDOF 5
ENDMDL
