MODEL 1
REMARK VINA RESULT:      -7.7      0.000      0.000
REMARK  Name = 
REMARK  8 active torsions:
REMARK  status: ('A' for Active; 'I' for Inactive)
REMARK    1  A    between atoms: C_1  and  C_2
REMARK    2  A    between atoms: C_2  and  C_3
REMARK    3  A    between atoms: C_2  and  C_4
REMARK    4  A    between atoms: C_2  and  C_5
REMARK    5  A    between atoms: N_8  and  C_9
REMARK    6  A    between atoms: C_9  and  C_10
REMARK    7  A    between atoms: C_10  and  N_11
REMARK    8  A    between atoms: C_12  and  C_14
REMARK                            x       y       z     vdW  Elec       q    Type
REMARK                         _______ _______ _______ _____ _____    ______ ____
ROOT
ATOM      1  N   UNL     1       2.133   5.201  18.049  0.00  0.00    +0.000 N 
ATOM      2  C   UNL     1       2.946   4.251  17.464  0.00  0.00    +0.000 C 
ATOM      3  O   UNL     1       4.030   4.546  16.977  0.00  0.00    +0.000 OA
ATOM      4  H   UNL     1       1.267   4.937  18.503  0.00  0.00    +0.000 HD
ENDROOT
BRANCH   2   5
ATOM      5  C   UNL     1       2.411   2.818  17.522  0.00  0.00    +0.000 C 
ATOM      6  C   UNL     1       3.485   1.810  18.028  0.00  0.00    +0.000 C 
ATOM      7  C   UNL     1       3.978   2.150  19.450  0.00  0.00    +0.000 C 
ATOM      8  C   UNL     1       2.817   2.428  20.331  0.00  0.00    +0.000 A 
ATOM      9  C   UNL     1       2.688   2.529  21.726  0.00  0.00    +0.000 A 
ATOM     10  N   UNL     1       1.440   2.835  22.097  0.00  0.00    +0.000 NA
ATOM     11  N   UNL     1       0.777   2.970  20.931  0.00  0.00    +0.000 N 
ATOM     12  C   UNL     1       1.559   2.709  19.849  0.00  0.00    +0.000 A 
ATOM     13  C   UNL     1       1.147   2.770  18.419  0.00  0.00    +0.000 C 
ATOM     14  H   UNL     1      -0.199   3.244  20.959  0.00  0.00    +0.000 HD
ENDBRANCH   2   5
BRANCH   1  15
ATOM     15  C   UNL     1       2.573   6.586  18.110  0.00  0.00    +0.000 C 
BRANCH  15  16
ATOM     16  C   UNL     1       2.404   7.210  19.508  0.00  0.00    +0.000 C 
BRANCH  16  20
ATOM     17  C   UNL     1      -0.166  10.655  19.072  0.00  0.00    +0.000 C 
ATOM     18  C   UNL     1       0.374  10.013  18.018  0.00  0.00    +0.000 C 
ATOM     19  C   UNL     1       1.359   8.886  18.112  0.00  0.00    +0.000 C 
ATOM     20  N   UNL     1       1.892   8.598  19.453  0.00  0.00    +0.000 NA
ATOM     21  C   UNL     1       0.866   8.803  20.487  0.00  0.00    +0.000 C 
ATOM     22  C   UNL     1       0.280  10.224  20.453  0.00  0.00    +0.000 C 
BRANCH  17  24
ATOM     23  C   UNL     1      -0.595  12.992  18.341  0.00  0.00    +0.000 C 
ATOM     24  C   UNL     1      -1.250  11.737  18.954  0.00  0.00    +0.000 C 
ATOM     25  C   UNL     1      -1.862  12.126  20.317  0.00  0.00    +0.000 C 
ATOM     26  C   UNL     1      -2.416  11.287  18.049  0.00  0.00    +0.000 C 
ENDBRANCH  17  24
ENDBRANCH  16  20
ENDBRANCH  15  16
ENDBRANCH   1  15
TORSDOF 5
ENDMDL
MODEL 2
REMARK VINA RESULT:      -7.7      1.106      1.632
REMARK  Name = 
REMARK  8 active torsions:
REMARK  status: ('A' for Active; 'I' for Inactive)
REMARK    1  A    between atoms: C_1  and  C_2
REMARK    2  A    between atoms: C_2  and  C_3
REMARK    3  A    between atoms: C_2  and  C_4
REMARK    4  A    between atoms: C_2  and  C_5
REMARK    5  A    between atoms: N_8  and  C_9
REMARK    6  A    between atoms: C_9  and  C_10
REMARK    7  A    between atoms: C_10  and  N_11
REMARK    8  A    between atoms: C_12  and  C_14
REMARK                            x       y       z     vdW  Elec       q    Type
REMARK                         _______ _______ _______ _____ _____    ______ ____
ROOT
ATOM      1  N   UNL     1       2.165   5.929  18.451  0.00  0.00    +0.000 N 
ATOM      2  C   UNL     1       3.051   5.129  17.758  0.00  0.00    +0.000 C 
ATOM      3  O   UNL     1       4.157   5.536  17.424  0.00  0.00    +0.000 OA
ATOM      4  H   UNL     1       1.278   5.564  18.776  0.00  0.00    +0.000 HD
ENDROOT
BRANCH   2   5
ATOM      5  C   UNL     1       2.564   3.702  17.495  0.00  0.00    +0.000 C 
ATOM      6  C   UNL     1       3.657   2.639  17.816  0.00  0.00    +0.000 C 
ATOM      7  C   UNL     1       4.097   2.685  19.295  0.00  0.00    +0.000 C 
ATOM      8  C   UNL     1       2.902   2.739  20.173  0.00  0.00    +0.000 A 
ATOM      9  C   UNL     1       2.729   2.540  21.552  0.00  0.00    +0.000 A 
ATOM     10  N   UNL     1       1.462   2.727  21.935  0.00  0.00    +0.000 NA
ATOM     11  N   UNL     1       0.828   3.087  20.800  0.00  0.00    +0.000 N 
ATOM     12  C   UNL     1       1.649   3.081  19.716  0.00  0.00    +0.000 A 
ATOM     13  C   UNL     1       1.277   3.432  18.317  0.00  0.00    +0.000 C 
ATOM     14  H   UNL     1      -0.157   3.322  20.850  0.00  0.00    +0.000 HD
ENDBRANCH   2   5
BRANCH   1  15
ATOM     15  C   UNL     1       2.551   7.284  18.814  0.00  0.00    +0.000 C 
BRANCH  15  16
ATOM     16  C   UNL     1       1.713   8.360  18.098  0.00  0.00    +0.000 C 
BRANCH  16  20
ATOM     17  C   UNL     1      -0.267  11.149  20.737  0.00  0.00    +0.000 C 
ATOM     18  C   UNL     1      -0.472  11.137  19.406  0.00  0.00    +0.000 C 
ATOM     19  C   UNL     1       0.268  10.270  18.431  0.00  0.00    +0.000 C 
ATOM     20  N   UNL     1       1.415   9.520  18.968  0.00  0.00    +0.000 NA
ATOM     21  C   UNL     1       1.158   9.072  20.344  0.00  0.00    +0.000 C 
ATOM     22  C   UNL     1       0.814  10.240  21.283  0.00  0.00    +0.000 C 
BRANCH  17  24
ATOM     23  C   UNL     1      -0.309  13.242  22.079  0.00  0.00    +0.000 C 
ATOM     24  C   UNL     1      -1.107  11.969  21.728  0.00  0.00    +0.000 C 
ATOM     25  C   UNL     1      -1.406  11.208  23.038  0.00  0.00    +0.000 C 
ATOM     26  C   UNL     1      -2.467  12.379  21.127  0.00  0.00    +0.000 C 
ENDBRANCH  17  24
ENDBRANCH  16  20
ENDBRANCH  15  16
ENDBRANCH   1  15
TORSDOF 5
ENDMDL
MODEL 3
REMARK VINA RESULT:      -7.6      1.254      1.889
REMARK  Name = 
REMARK  8 active torsions:
REMARK  status: ('A' for Active; 'I' for Inactive)
REMARK    1  A    between atoms: C_1  and  C_2
REMARK    2  A    between atoms: C_2  and  C_3
REMARK    3  A    between atoms: C_2  and  C_4
REMARK    4  A    between atoms: C_2  and  C_5
REMARK    5  A    between atoms: N_8  and  C_9
REMARK    6  A    between atoms: C_9  and  C_10
REMARK    7  A    between atoms: C_10  and  N_11
REMARK    8  A    between atoms: C_12  and  C_14
REMARK                            x       y       z     vdW  Elec       q    Type
REMARK                         _______ _______ _______ _____ _____    ______ ____
ROOT
ATOM      1  N   UNL     1       2.058   5.990  18.225  0.00  0.00    +0.000 N 
ATOM      2  C   UNL     1       3.059   5.154  17.774  0.00  0.00    +0.000 C 
ATOM      3  O   UNL     1       4.214   5.543  17.650  0.00  0.00    +0.000 OA
ATOM      4  H   UNL     1       1.120   5.642  18.381  0.00  0.00    +0.000 HD
ENDROOT
BRANCH   2   5
ATOM      5  C   UNL     1       2.623   3.713  17.497  0.00  0.00    +0.000 C 
ATOM      6  C   UNL     1       3.736   2.683  17.853  0.00  0.00    +0.000 C 
ATOM      7  C   UNL     1       4.127   2.742  19.345  0.00  0.00    +0.000 C 
ATOM      8  C   UNL     1       2.904   2.761  20.185  0.00  0.00    +0.000 A 
ATOM      9  C   UNL     1       2.693   2.557  21.558  0.00  0.00    +0.000 A 
ATOM     10  N   UNL     1       1.410   2.707  21.900  0.00  0.00    +0.000 NA
ATOM     11  N   UNL     1       0.802   3.048  20.746  0.00  0.00    +0.000 N 
ATOM     12  C   UNL     1       1.657   3.066  19.688  0.00  0.00    +0.000 A 
ATOM     13  C   UNL     1       1.319   3.405  18.278  0.00  0.00    +0.000 C 
ATOM     14  H   UNL     1      -0.191   3.254  20.764  0.00  0.00    +0.000 HD
ENDBRANCH   2   5
BRANCH   1  15
ATOM     15  C   UNL     1       2.375   7.364  18.582  0.00  0.00    +0.000 C 
BRANCH  15  16
ATOM     16  C   UNL     1       2.225   7.643  20.090  0.00  0.00    +0.000 C 
BRANCH  16  20
ATOM     17  C   UNL     1      -0.477  10.771  21.344  0.00  0.00    +0.000 C 
ATOM     18  C   UNL     1       0.135   9.947  22.216  0.00  0.00    +0.000 C 
ATOM     19  C   UNL     1       0.993   8.777  21.835  0.00  0.00    +0.000 C 
ATOM     20  N   UNL     1       1.004   8.418  20.407  0.00  0.00    +0.000 NA
ATOM     21  C   UNL     1       0.927   9.616  19.558  0.00  0.00    +0.000 C 
ATOM     22  C   UNL     1      -0.311  10.472  19.869  0.00  0.00    +0.000 C 
BRANCH  17  24
ATOM     23  C   UNL     1      -0.252  13.162  21.985  0.00  0.00    +0.000 C 
ATOM     24  C   UNL     1      -1.266  12.023  21.756  0.00  0.00    +0.000 C 
ATOM     25  C   UNL     1      -2.074  11.825  23.058  0.00  0.00    +0.000 C 
ATOM     26  C   UNL     1      -2.269  12.456  20.667  0.00  0.00    +0.000 C 
ENDBRANCH  17  24
ENDBRANCH  16  20
ENDBRANCH  15  16
ENDBRANCH   1  15
TORSDOF 5
ENDMDL
MODEL 4
REMARK VINA RESULT:      -7.6      1.076      1.879
REMARK  Name = 
REMARK  8 active torsions:
REMARK  status: ('A' for Active; 'I' for Inactive)
REMARK    1  A    between atoms: C_1  and  C_2
REMARK    2  A    between atoms: C_2  and  C_3
REMARK    3  A    between atoms: C_2  and  C_4
REMARK    4  A    between atoms: C_2  and  C_5
REMARK    5  A    between atoms: N_8  and  C_9
REMARK    6  A    between atoms: C_9  and  C_10
REMARK    7  A    between atoms: C_10  and  N_11
REMARK    8  A    between atoms: C_12  and  C_14
REMARK                            x       y       z     vdW  Elec       q    Type
REMARK                         _______ _______ _______ _____ _____    ______ ____
ROOT
ATOM      1  N   UNL     1       2.358   5.915  18.518  0.00  0.00    +0.000 N 
ATOM      2  C   UNL     1       3.152   5.066  17.775  0.00  0.00    +0.000 C 
ATOM      3  O   UNL     1       4.274   5.394  17.408  0.00  0.00    +0.000 OA
ATOM      4  H   UNL     1       1.456   5.611  18.868  0.00  0.00    +0.000 HD
ENDROOT
BRANCH   2   5
ATOM      5  C   UNL     1       2.546   3.689  17.496  0.00  0.00    +0.000 C 
ATOM      6  C   UNL     1       3.553   2.535  17.776  0.00  0.00    +0.000 C 
ATOM      7  C   UNL     1       4.023   2.516  19.246  0.00  0.00    +0.000 C 
ATOM      8  C   UNL     1       2.854   2.651  20.149  0.00  0.00    +0.000 A 
ATOM      9  C   UNL     1       2.691   2.441  21.528  0.00  0.00    +0.000 A 
ATOM     10  N   UNL     1       1.451   2.723  21.940  0.00  0.00    +0.000 NA
ATOM     11  N   UNL     1       0.827   3.155  20.825  0.00  0.00    +0.000 N 
ATOM     12  C   UNL     1       1.625   3.103  19.724  0.00  0.00    +0.000 A 
ATOM     13  C   UNL     1       1.256   3.509  18.339  0.00  0.00    +0.000 C 
ATOM     14  H   UNL     1      -0.134   3.469  20.899  0.00  0.00    +0.000 HD
ENDBRANCH   2   5
BRANCH   1  15
ATOM     15  C   UNL     1       2.862   7.225  18.898  0.00  0.00    +0.000 C 
BRANCH  15  16
ATOM     16  C   UNL     1       2.243   8.369  18.072  0.00  0.00    +0.000 C 
BRANCH  16  20
ATOM     17  C   UNL     1      -0.163  10.897  20.618  0.00  0.00    +0.000 C 
ATOM     18  C   UNL     1       0.456   9.790  21.070  0.00  0.00    +0.000 C 
ATOM     19  C   UNL     1       1.210   8.817  20.213  0.00  0.00    +0.000 C 
ATOM     20  N   UNL     1       1.099   9.011  18.758  0.00  0.00    +0.000 NA
ATOM     21  C   UNL     1       1.037  10.440  18.416  0.00  0.00    +0.000 C 
ATOM     22  C   UNL     1      -0.120  11.160  19.127  0.00  0.00    +0.000 C 
BRANCH  17  24
ATOM     23  C   UNL     1      -2.145  12.382  20.838  0.00  0.00    +0.000 C 
ATOM     24  C   UNL     1      -0.841  11.933  21.527  0.00  0.00    +0.000 C 
ATOM     25  C   UNL     1       0.034  13.183  21.772  0.00  0.00    +0.000 C 
ATOM     26  C   UNL     1      -1.182  11.347  22.913  0.00  0.00    +0.000 C 
ENDBRANCH  17  24
ENDBRANCH  16  20
ENDBRANCH  15  16
ENDBRANCH   1  15
TORSDOF 5
ENDMDL
MODEL 5
REMARK VINA RESULT:      -7.5      0.415      1.416
REMARK  Name = 
REMARK  8 active torsions:
REMARK  status: ('A' for Active; 'I' for Inactive)
REMARK    1  A    between atoms: C_1  and  C_2
REMARK    2  A    between atoms: C_2  and  C_3
REMARK    3  A    between atoms: C_2  and  C_4
REMARK    4  A    between atoms: C_2  and  C_5
REMARK    5  A    between atoms: N_8  and  C_9
REMARK    6  A    between atoms: C_9  and  C_10
REMARK    7  A    between atoms: C_10  and  N_11
REMARK    8  A    between atoms: C_12  and  C_14
REMARK                            x       y       z     vdW  Elec       q    Type
REMARK                         _______ _______ _______ _____ _____    ______ ____
ROOT
ATOM      1  N   UNL     1       2.354   5.483  18.032  0.00  0.00    +0.000 N 
ATOM      2  C   UNL     1       3.148   4.496  17.484  0.00  0.00    +0.000 C 
ATOM      3  O   UNL     1       4.294   4.723  17.116  0.00  0.00    +0.000 OA
ATOM      4  H   UNL     1       1.430   5.270  18.388  0.00  0.00    +0.000 HD
ENDROOT
BRANCH   2   5
ATOM      5  C   UNL     1       2.506   3.107  17.425  0.00  0.00    +0.000 C 
ATOM      6  C   UNL     1       3.486   1.986  17.881  0.00  0.00    +0.000 C 
ATOM      7  C   UNL     1       3.962   2.185  19.335  0.00  0.00    +0.000 C 
ATOM      8  C   UNL     1       2.800   2.489  20.207  0.00  0.00    +0.000 A 
ATOM      9  C   UNL     1       2.639   2.501  21.602  0.00  0.00    +0.000 A 
ATOM     10  N   UNL     1       1.408   2.875  21.966  0.00  0.00    +0.000 NA
ATOM     11  N   UNL     1       0.790   3.144  20.798  0.00  0.00    +0.000 N 
ATOM     12  C   UNL     1       1.581   2.900  19.718  0.00  0.00    +0.000 A 
ATOM     13  C   UNL     1       1.216   3.094  18.287  0.00  0.00    +0.000 C 
ATOM     14  H   UNL     1      -0.163   3.490  20.823  0.00  0.00    +0.000 HD
ENDBRANCH   2   5
BRANCH   1  15
ATOM     15  C   UNL     1       2.888   6.826  18.197  0.00  0.00    +0.000 C 
BRANCH  15  16
ATOM     16  C   UNL     1       2.481   7.474  19.534  0.00  0.00    +0.000 C 
BRANCH  16  20
ATOM     17  C   UNL     1      -0.372  10.718  19.505  0.00  0.00    +0.000 C 
ATOM     18  C   UNL     1       0.050  10.131  20.642  0.00  0.00    +0.000 C 
ATOM     19  C   UNL     1       0.950   8.933  20.707  0.00  0.00    +0.000 C 
ATOM     20  N   UNL     1       1.232   8.262  19.428  0.00  0.00    +0.000 NA
ATOM     21  C   UNL     1       1.336   9.235  18.330  0.00  0.00    +0.000 C 
ATOM     22  C   UNL     1       0.072  10.100  18.196  0.00  0.00    +0.000 C 
BRANCH  17  24
ATOM     23  C   UNL     1      -2.555  11.669  18.792  0.00  0.00    +0.000 C 
ATOM     24  C   UNL     1      -1.208  12.005  19.463  0.00  0.00    +0.000 C 
ATOM     25  C   UNL     1      -0.533  13.136  18.656  0.00  0.00    +0.000 C 
ATOM     26  C   UNL     1      -1.477  12.563  20.877  0.00  0.00    +0.000 C 
ENDBRANCH  17  24
ENDBRANCH  16  20
ENDBRANCH  15  16
ENDBRANCH   1  15
TORSDOF 5
ENDMDL
MODEL 6
REMARK VINA RESULT:      -7.4      1.382      2.315
REMARK  Name = 
REMARK  8 active torsions:
REMARK  status: ('A' for Active; 'I' for Inactive)
REMARK    1  A    between atoms: C_1  and  C_2
REMARK    2  A    between atoms: C_2  and  C_3
REMARK    3  A    between atoms: C_2  and  C_4
REMARK    4  A    between atoms: C_2  and  C_5
REMARK    5  A    between atoms: N_8  and  C_9
REMARK    6  A    between atoms: C_9  and  C_10
REMARK    7  A    between atoms: C_10  and  N_11
REMARK    8  A    between atoms: C_12  and  C_14
REMARK                            x       y       z     vdW  Elec       q    Type
REMARK                         _______ _______ _______ _____ _____    ______ ____
ROOT
ATOM      1  N   UNL     1       3.941   3.956  17.171  0.00  0.00    +0.000 N 
ATOM      2  C   UNL     1       2.623   3.566  17.297  0.00  0.00    +0.000 C 
ATOM      3  O   UNL     1       1.700   4.334  17.056  0.00  0.00    +0.000 OA
ATOM      4  H   UNL     1       4.695   3.295  17.314  0.00  0.00    +0.000 HD
ENDROOT
BRANCH   2   5
ATOM      5  C   UNL     1       2.416   2.105  17.704  0.00  0.00    +0.000 C 
ATOM      6  C   UNL     1       3.677   1.501  18.389  0.00  0.00    +0.000 C 
ATOM      7  C   UNL     1       4.061   2.263  19.676  0.00  0.00    +0.000 C 
ATOM      8  C   UNL     1       2.853   2.480  20.510  0.00  0.00    +0.000 A 
ATOM      9  C   UNL     1       2.683   2.873  21.847  0.00  0.00    +0.000 A 
ATOM     10  N   UNL     1       1.393   2.978  22.184  0.00  0.00    +0.000 NA
ATOM     11  N   UNL     1       0.735   2.690  21.043  0.00  0.00    +0.000 N 
ATOM     12  C   UNL     1       1.572   2.360  20.022  0.00  0.00    +0.000 A 
ATOM     13  C   UNL     1       1.180   1.994  18.633  0.00  0.00    +0.000 C 
ATOM     14  H   UNL     1      -0.278   2.744  21.042  0.00  0.00    +0.000 HD
ENDBRANCH   2   5
BRANCH   1  15
ATOM     15  C   UNL     1       4.253   5.304  16.725  0.00  0.00    +0.000 C 
BRANCH  15  16
ATOM     16  C   UNL     1       4.318   6.320  17.881  0.00  0.00    +0.000 C 
BRANCH  16  20
ATOM     17  C   UNL     1       1.225   8.924  19.401  0.00  0.00    +0.000 C 
ATOM     18  C   UNL     1       1.714   7.888  20.108  0.00  0.00    +0.000 C 
ATOM     19  C   UNL     1       2.705   6.887  19.591  0.00  0.00    +0.000 C 
ATOM     20  N   UNL     1       3.011   6.959  18.153  0.00  0.00    +0.000 NA
ATOM     21  C   UNL     1       3.016   8.351  17.681  0.00  0.00    +0.000 C 
ATOM     22  C   UNL     1       1.687   9.069  17.966  0.00  0.00    +0.000 C 
BRANCH  17  24
ATOM     23  C   UNL     1      -0.188   9.501  21.364  0.00  0.00    +0.000 C 
ATOM     24  C   UNL     1       0.291   9.996  19.984  0.00  0.00    +0.000 C 
ATOM     25  C   UNL     1      -0.952  10.254  19.104  0.00  0.00    +0.000 C 
ATOM     26  C   UNL     1       1.008  11.351  20.157  0.00  0.00    +0.000 C 
ENDBRANCH  17  24
ENDBRANCH  16  20
ENDBRANCH  15  16
ENDBRANCH   1  15
TORSDOF 5
ENDMDL
MODEL 7
REMARK VINA RESULT:      -7.4      1.524      2.176
REMARK  Name = 
REMARK  8 active torsions:
REMARK  status: ('A' for Active; 'I' for Inactive)
REMARK    1  A    between atoms: C_1  and  C_2
REMARK    2  A    between atoms: C_2  and  C_3
REMARK    3  A    between atoms: C_2  and  C_4
REMARK    4  A    between atoms: C_2  and  C_5
REMARK    5  A    between atoms: N_8  and  C_9
REMARK    6  A    between atoms: C_9  and  C_10
REMARK    7  A    between atoms: C_10  and  N_11
REMARK    8  A    between atoms: C_12  and  C_14
REMARK                            x       y       z     vdW  Elec       q    Type
REMARK                         _______ _______ _______ _____ _____    ______ ____
ROOT
ATOM      1  N   UNL     1       2.012   6.452  18.816  0.00  0.00    +0.000 N 
ATOM      2  C   UNL     1       3.087   5.924  18.129  0.00  0.00    +0.000 C 
ATOM      3  O   UNL     1       4.143   6.535  18.021  0.00  0.00    +0.000 OA
ATOM      4  H   UNL     1       1.165   5.913  18.951  0.00  0.00    +0.000 HD
ENDROOT
BRANCH   2   5
ATOM      5  C   UNL     1       2.868   4.516  17.570  0.00  0.00    +0.000 C 
ATOM      6  C   UNL     1       4.044   3.556  17.917  0.00  0.00    +0.000 C 
ATOM      7  C   UNL     1       4.235   3.396  19.441  0.00  0.00    +0.000 C 
ATOM      8  C   UNL     1       2.923   3.149  20.088  0.00  0.00    +0.000 A 
ATOM      9  C   UNL     1       2.568   2.692  21.367  0.00  0.00    +0.000 A 
ATOM     10  N   UNL     1       1.243   2.652  21.540  0.00  0.00    +0.000 NA
ATOM     11  N   UNL     1       0.748   3.124  20.378  0.00  0.00    +0.000 N 
ATOM     12  C   UNL     1       1.720   3.409  19.471  0.00  0.00    +0.000 A 
ATOM     13  C   UNL     1       1.524   3.950  18.097  0.00  0.00    +0.000 C 
ATOM     14  H   UNL     1      -0.258   3.224  20.285  0.00  0.00    +0.000 HD
ENDBRANCH   2   5
BRANCH   1  15
ATOM     15  C   UNL     1       2.133   7.757  19.446  0.00  0.00    +0.000 C 
BRANCH  15  16
ATOM     16  C   UNL     1       1.514   7.804  20.857  0.00  0.00    +0.000 C 
BRANCH  16  20
ATOM     17  C   UNL     1      -0.849  11.347  21.574  0.00  0.00    +0.000 C 
ATOM     18  C   UNL     1      -0.361  11.033  20.359  0.00  0.00    +0.000 C 
ATOM     19  C   UNL     1       0.555   9.881  20.073  0.00  0.00    +0.000 C 
ATOM     20  N   UNL     1       1.086   9.166  21.246  0.00  0.00    +0.000 NA
ATOM     21  C   UNL     1       0.086   9.097  22.322  0.00  0.00    +0.000 C 
ATOM     22  C   UNL     1      -0.414  10.489  22.743  0.00  0.00    +0.000 C 
BRANCH  17  24
ATOM     23  C   UNL     1      -2.742  12.602  20.563  0.00  0.00    +0.000 C 
ATOM     24  C   UNL     1      -1.868  12.469  21.826  0.00  0.00    +0.000 C 
ATOM     25  C   UNL     1      -1.202  13.836  22.101  0.00  0.00    +0.000 C 
ATOM     26  C   UNL     1      -2.776  12.162  23.035  0.00  0.00    +0.000 C 
ENDBRANCH  17  24
ENDBRANCH  16  20
ENDBRANCH  15  16
ENDBRANCH   1  15
TORSDOF 5
ENDMDL
MODEL 8
REMARK VINA RESULT:      -7.2      2.042      3.286
REMARK  Name = 
REMARK  8 active torsions:
REMARK  status: ('A' for Active; 'I' for Inactive)
REMARK    1  A    between atoms: C_1  and  C_2
REMARK    2  A    between atoms: C_2  and  C_3
REMARK    3  A    between atoms: C_2  and  C_4
REMARK    4  A    between atoms: C_2  and  C_5
REMARK    5  A    between atoms: N_8  and  C_9
REMARK    6  A    between atoms: C_9  and  C_10
REMARK    7  A    between atoms: C_10  and  N_11
REMARK    8  A    between atoms: C_12  and  C_14
REMARK                            x       y       z     vdW  Elec       q    Type
REMARK                         _______ _______ _______ _____ _____    ______ ____
ROOT
ATOM      1  N   UNL     1       2.523   4.658  20.429  0.00  0.00    +0.000 N 
ATOM      2  C   UNL     1       1.766   3.610  19.944  0.00  0.00    +0.000 C 
ATOM      3  O   UNL     1       0.550   3.698  19.824  0.00  0.00    +0.000 OA
ATOM      4  H   UNL     1       3.533   4.596  20.466  0.00  0.00    +0.000 HD
ENDROOT
BRANCH   2   5
ATOM      5  C   UNL     1       2.565   2.373  19.528  0.00  0.00    +0.000 C 
ATOM      6  C   UNL     1       2.358   2.017  18.026  0.00  0.00    +0.000 C 
ATOM      7  C   UNL     1       2.805   3.160  17.090  0.00  0.00    +0.000 C 
ATOM      8  C   UNL     1       4.137   3.660  17.508  0.00  0.00    +0.000 A 
ATOM      9  C   UNL     1       5.084   4.480  16.873  0.00  0.00    +0.000 A 
ATOM     10  N   UNL     1       6.152   4.710  17.644  0.00  0.00    +0.000 NA
ATOM     11  N   UNL     1       5.869   4.064  18.794  0.00  0.00    +0.000 N 
ATOM     12  C   UNL     1       4.683   3.401  18.745  0.00  0.00    +0.000 A 
ATOM     13  C   UNL     1       4.068   2.596  19.837  0.00  0.00    +0.000 C 
ATOM     14  H   UNL     1       6.531   4.128  19.560  0.00  0.00    +0.000 HD
ENDBRANCH   2   5
BRANCH   1  15
ATOM     15  C   UNL     1       1.873   5.907  20.792  0.00  0.00    +0.000 C 
BRANCH  15  16
ATOM     16  C   UNL     1       2.118   7.032  19.768  0.00  0.00    +0.000 C 
BRANCH  16  20
ATOM     17  C   UNL     1       0.144  10.651  21.060  0.00  0.00    +0.000 C 
ATOM     18  C   UNL     1       0.480  10.426  19.776  0.00  0.00    +0.000 C 
ATOM     19  C   UNL     1       1.263   9.243  19.288  0.00  0.00    +0.000 C 
ATOM     20  N   UNL     1       1.846   8.377  20.325  0.00  0.00    +0.000 NA
ATOM     21  C   UNL     1       0.957   8.274  21.492  0.00  0.00    +0.000 C 
ATOM     22  C   UNL     1       0.621   9.650  22.091  0.00  0.00    +0.000 C 
BRANCH  17  24
ATOM     23  C   UNL     1      -1.834  12.028  20.451  0.00  0.00    +0.000 C 
ATOM     24  C   UNL     1      -0.746  11.815  21.523  0.00  0.00    +0.000 C 
ATOM     25  C   UNL     1       0.034  13.138  21.692  0.00  0.00    +0.000 C 
ATOM     26  C   UNL     1      -1.424  11.518  22.876  0.00  0.00    +0.000 C 
ENDBRANCH  17  24
ENDBRANCH  16  20
ENDBRANCH  15  16
ENDBRANCH   1  15
TORSDOF 5
ENDMDL
MODEL 9
REMARK VINA RESULT:      -7.2      1.793      2.885
REMARK  Name = 
REMARK  8 active torsions:
REMARK  status: ('A' for Active; 'I' for Inactive)
REMARK    1  A    between atoms: C_1  and  C_2
REMARK    2  A    between atoms: C_2  and  C_3
REMARK    3  A    between atoms: C_2  and  C_4
REMARK    4  A    between atoms: C_2  and  C_5
REMARK    5  A    between atoms: N_8  and  C_9
REMARK    6  A    between atoms: C_9  and  C_10
REMARK    7  A    between atoms: C_10  and  N_11
REMARK    8  A    between atoms: C_12  and  C_14
REMARK                            x       y       z     vdW  Elec       q    Type
REMARK                         _______ _______ _______ _____ _____    ______ ____
ROOT
ATOM      1  N   UNL     1       2.578   5.076  20.628  0.00  0.00    +0.000 N 
ATOM      2  C   UNL     1       1.763   4.004  20.325  0.00  0.00    +0.000 C 
ATOM      3  O   UNL     1       0.558   4.141  20.154  0.00  0.00    +0.000 OA
ATOM      4  H   UNL     1       3.581   4.962  20.707  0.00  0.00    +0.000 HD
ENDROOT
BRANCH   2   5
ATOM      5  C   UNL     1       2.487   2.664  20.172  0.00  0.00    +0.000 C 
ATOM      6  C   UNL     1       2.101   1.934  18.852  0.00  0.00    +0.000 C 
ATOM      7  C   UNL     1       2.455   2.767  17.602  0.00  0.00    +0.000 C 
ATOM      8  C   UNL     1       3.836   3.295  17.725  0.00  0.00    +0.000 A 
ATOM      9  C   UNL     1       4.716   3.873  16.796  0.00  0.00    +0.000 A 
ATOM     10  N   UNL     1       5.871   4.246  17.357  0.00  0.00    +0.000 NA
ATOM     11  N   UNL     1       5.712   3.942  18.662  0.00  0.00    +0.000 N 
ATOM     12  C   UNL     1       4.517   3.346  18.920  0.00  0.00    +0.000 A 
ATOM     13  C   UNL     1       4.019   2.889  20.247  0.00  0.00    +0.000 C 
ATOM     14  H   UNL     1       6.459   4.175  19.307  0.00  0.00    +0.000 HD
ENDBRANCH   2   5
BRANCH   1  15
ATOM     15  C   UNL     1       2.005   6.409  20.731  0.00  0.00    +0.000 C 
BRANCH  15  16
ATOM     16  C   UNL     1       2.260   7.271  19.480  0.00  0.00    +0.000 C 
BRANCH  16  20
ATOM     17  C   UNL     1      -0.234  10.799  19.545  0.00  0.00    +0.000 C 
ATOM     18  C   UNL     1       0.325  10.324  18.415  0.00  0.00    +0.000 C 
ATOM     19  C   UNL     1       1.286   9.174  18.349  0.00  0.00    +0.000 C 
ATOM     20  N   UNL     1       1.775   8.661  19.639  0.00  0.00    +0.000 NA
ATOM     21  C   UNL     1       0.723   8.719  20.665  0.00  0.00    +0.000 C 
ATOM     22  C   UNL     1       0.164  10.139  20.848  0.00  0.00    +0.000 C 
BRANCH  17  24
ATOM     23  C   UNL     1      -0.635  13.203  19.055  0.00  0.00    +0.000 C 
ATOM     24  C   UNL     1      -1.294  11.910  19.577  0.00  0.00    +0.000 C 
ATOM     25  C   UNL     1      -1.838  12.182  20.997  0.00  0.00    +0.000 C 
ATOM     26  C   UNL     1      -2.509  11.572  18.688  0.00  0.00    +0.000 C 
ENDBRANCH  17  24
ENDBRANCH  16  20
ENDBRANCH  15  16
ENDBRANCH   1  15
TORSDOF 5
ENDMDL
