MODEL 1
REMARK VINA RESULT:      -8.3      0.000      0.000
REMARK  Name = 
REMARK  7 active torsions:
REMARK  status: ('A' for Active; 'I' for Inactive)
REMARK    1  A    between atoms: C_7  and  C_8
REMARK    2  A    between atoms: C_8  and  C_9
REMARK    3  A    between atoms: C_9  and  O_10
REMARK    4  A    between atoms: O_10  and  C_11
REMARK    5  A    between atoms: N_13  and  C_14
REMARK    6  A    between atoms: C_16  and  C_17
REMARK    7  A    between atoms: C_22  and  C_23
REMARK                            x       y       z     vdW  Elec       q    Type
REMARK                         _______ _______ _______ _____ _____    ______ ____
ROOT
ATOM      1  C   UNL     1       6.654   4.820  16.922  0.00  0.00    +0.000 C 
ATOM      2  O   UNL     1       7.090   5.178  18.003  0.00  0.00    +0.000 OA
ATOM      3  N   UNL     1       5.333   4.644  16.580  0.00  0.00    +0.000 N 
ATOM      4  H   UNL     1       5.175   4.254  15.661  0.00  0.00    +0.000 HD
ENDROOT
BRANCH   3   5
ATOM      5  C   UNL     1       4.225   4.963  17.390  0.00  0.00    +0.000 A 
ATOM      6  C   UNL     1       3.462   3.984  18.038  0.00  0.00    +0.000 A 
ATOM      7  C   UNL     1       2.316   4.312  18.771  0.00  0.00    +0.000 A 
ATOM      8  C   UNL     1       1.949   5.659  18.882  0.00  0.00    +0.000 A 
ATOM      9  C   UNL     1       2.715   6.665  18.268  0.00  0.00    +0.000 A 
ATOM     10  C   UNL     1       3.866   6.305  17.538  0.00  0.00    +0.000 A 
BRANCH   7  11
ATOM     11  C   UNL     1       1.467   3.224  19.387  0.00  0.00    +0.000 C 
ATOM     12  F   UNL     1       0.644   2.600  18.502  0.00  0.00    +0.000 F 
ATOM     13  F   UNL     1       2.217   2.242  19.961  0.00  0.00    +0.000 F 
ATOM     14  F   UNL     1       0.659   3.706  20.372  0.00  0.00    +0.000 F 
ENDBRANCH   7  11
BRANCH   9  15
ATOM     15  C   UNL     1       2.283   8.110  18.335  0.00  0.00    +0.000 C 
ATOM     16  F   UNL     1       1.230   8.401  17.523  0.00  0.00    +0.000 F 
ATOM     17  F   UNL     1       1.908   8.487  19.588  0.00  0.00    +0.000 F 
ATOM     18  F   UNL     1       3.282   8.960  17.971  0.00  0.00    +0.000 F 
ENDBRANCH   9  15
ENDBRANCH   3   5
BRANCH   1  19
ATOM     19  O   UNL     1       7.443   4.602  15.838  0.00  0.00    +0.000 OA
BRANCH  19  20
ATOM     20  C   UNL     1       6.805   4.937  14.595  0.00  0.00    +0.000 C 
BRANCH  20  21
ATOM     21  C   UNL     1       6.152   3.789  13.814  0.00  0.00    +0.000 C 
BRANCH  21  28
ATOM     22  C   UNL     1       4.044   2.942  11.398  0.00  0.00    +0.000 C 
ATOM     23  C   UNL     1       5.362   2.891  11.627  0.00  0.00    +0.000 C 
ATOM     24  C   UNL     1       6.194   1.739  11.214  0.00  0.00    +0.000 C 
ATOM     25  O   UNL     1       5.798   0.667  10.797  0.00  0.00    +0.000 OA
ATOM     26  O   UNL     1       7.493   2.081  11.422  0.00  0.00    +0.000 OA
ATOM     27  C   UNL     1       7.584   3.479  11.725  0.00  0.00    +0.000 C 
ATOM     28  C   UNL     1       6.240   3.905  12.286  0.00  0.00    +0.000 C 
ENDBRANCH  21  28
ENDBRANCH  20  21
ENDBRANCH  19  20
ENDBRANCH   1  19
TORSDOF 7
ENDMDL
MODEL 2
REMARK VINA RESULT:      -8.2      5.768      8.587
REMARK  Name = 
REMARK  7 active torsions:
REMARK  status: ('A' for Active; 'I' for Inactive)
REMARK    1  A    between atoms: C_7  and  C_8
REMARK    2  A    between atoms: C_8  and  C_9
REMARK    3  A    between atoms: C_9  and  O_10
REMARK    4  A    between atoms: O_10  and  C_11
REMARK    5  A    between atoms: N_13  and  C_14
REMARK    6  A    between atoms: C_16  and  C_17
REMARK    7  A    between atoms: C_22  and  C_23
REMARK                            x       y       z     vdW  Elec       q    Type
REMARK                         _______ _______ _______ _____ _____    ______ ____
ROOT
ATOM      1  C   UNL     1       7.837   7.910  18.006  0.00  0.00    +0.000 C 
ATOM      2  O   UNL     1       7.238   8.475  17.107  0.00  0.00    +0.000 OA
ATOM      3  N   UNL     1       7.684   6.602  18.407  0.00  0.00    +0.000 N 
ATOM      4  H   UNL     1       8.207   6.343  19.232  0.00  0.00    +0.000 HD
ENDROOT
BRANCH   3   5
ATOM      5  C   UNL     1       6.884   5.635  17.769  0.00  0.00    +0.000 A 
ATOM      6  C   UNL     1       6.954   5.391  16.393  0.00  0.00    +0.000 A 
ATOM      7  C   UNL     1       6.095   4.484  15.763  0.00  0.00    +0.000 A 
ATOM      8  C   UNL     1       5.165   3.784  16.541  0.00  0.00    +0.000 A 
ATOM      9  C   UNL     1       5.094   3.986  17.930  0.00  0.00    +0.000 A 
ATOM     10  C   UNL     1       5.975   4.904  18.538  0.00  0.00    +0.000 A 
BRANCH   7  11
ATOM     11  C   UNL     1       6.139   4.306  14.263  0.00  0.00    +0.000 C 
ATOM     12  F   UNL     1       7.041   5.111  13.639  0.00  0.00    +0.000 F 
ATOM     13  F   UNL     1       6.458   3.033  13.901  0.00  0.00    +0.000 F 
ATOM     14  F   UNL     1       4.936   4.574  13.683  0.00  0.00    +0.000 F 
ENDBRANCH   7  11
BRANCH   9  15
ATOM     15  C   UNL     1       4.049   3.278  18.760  0.00  0.00    +0.000 C 
ATOM     16  F   UNL     1       4.569   2.366  19.627  0.00  0.00    +0.000 F 
ATOM     17  F   UNL     1       3.309   4.136  19.514  0.00  0.00    +0.000 F 
ATOM     18  F   UNL     1       3.160   2.595  17.987  0.00  0.00    +0.000 F 
ENDBRANCH   9  15
ENDBRANCH   3   5
BRANCH   1  19
ATOM     19  O   UNL     1       8.831   8.498  18.722  0.00  0.00    +0.000 OA
BRANCH  19  20
ATOM     20  C   UNL     1       8.888   9.923  18.549  0.00  0.00    +0.000 C 
BRANCH  20  21
ATOM     21  C   UNL     1       9.486  10.742  19.700  0.00  0.00    +0.000 C 
BRANCH  21  28
ATOM     22  C   UNL     1      10.538  13.690  20.794  0.00  0.00    +0.000 C 
ATOM     23  C   UNL     1      10.443  13.042  19.626  0.00  0.00    +0.000 C 
ATOM     24  C   UNL     1      10.049  13.722  18.372  0.00  0.00    +0.000 C 
ATOM     25  O   UNL     1       9.611  14.851  18.262  0.00  0.00    +0.000 OA
ATOM     26  O   UNL     1      10.230  12.836  17.357  0.00  0.00    +0.000 OA
ATOM     27  C   UNL     1      10.944  11.690  17.834  0.00  0.00    +0.000 C 
ATOM     28  C   UNL     1      10.702  11.601  19.329  0.00  0.00    +0.000 C 
ENDBRANCH  21  28
ENDBRANCH  20  21
ENDBRANCH  19  20
ENDBRANCH   1  19
TORSDOF 7
ENDMDL
MODEL 3
REMARK VINA RESULT:      -8.2      0.853      3.418
REMARK  Name = 
REMARK  7 active torsions:
REMARK  status: ('A' for Active; 'I' for Inactive)
REMARK    1  A    between atoms: C_7  and  C_8
REMARK    2  A    between atoms: C_8  and  C_9
REMARK    3  A    between atoms: C_9  and  O_10
REMARK    4  A    between atoms: O_10  and  C_11
REMARK    5  A    between atoms: N_13  and  C_14
REMARK    6  A    between atoms: C_16  and  C_17
REMARK    7  A    between atoms: C_22  and  C_23
REMARK                            x       y       z     vdW  Elec       q    Type
REMARK                         _______ _______ _______ _____ _____    ______ ____
ROOT
ATOM      1  C   UNL     1       6.698   4.769  16.916  0.00  0.00    +0.000 C 
ATOM      2  O   UNL     1       7.112   5.733  17.538  0.00  0.00    +0.000 OA
ATOM      3  N   UNL     1       5.472   4.160  17.055  0.00  0.00    +0.000 N 
ATOM      4  H   UNL     1       5.348   3.317  16.513  0.00  0.00    +0.000 HD
ENDROOT
BRANCH   3   5
ATOM      5  C   UNL     1       4.416   4.616  17.868  0.00  0.00    +0.000 A 
ATOM      6  C   UNL     1       3.845   5.884  17.717  0.00  0.00    +0.000 A 
ATOM      7  C   UNL     1       2.853   6.352  18.585  0.00  0.00    +0.000 A 
ATOM      8  C   UNL     1       2.401   5.510  19.609  0.00  0.00    +0.000 A 
ATOM      9  C   UNL     1       2.934   4.219  19.764  0.00  0.00    +0.000 A 
ATOM     10  C   UNL     1       3.931   3.774  18.873  0.00  0.00    +0.000 A 
BRANCH   7  11
ATOM     11  C   UNL     1       2.318   7.758  18.447  0.00  0.00    +0.000 C 
ATOM     12  F   UNL     1       1.817   8.274  19.602  0.00  0.00    +0.000 F 
ATOM     13  F   UNL     1       3.270   8.637  18.025  0.00  0.00    +0.000 F 
ATOM     14  F   UNL     1       1.308   7.832  17.537  0.00  0.00    +0.000 F 
ENDBRANCH   7  11
BRANCH   9  15
ATOM     15  C   UNL     1       2.492   3.335  20.907  0.00  0.00    +0.000 C 
ATOM     16  F   UNL     1       2.350   4.001  22.085  0.00  0.00    +0.000 F 
ATOM     17  F   UNL     1       1.295   2.732  20.669  0.00  0.00    +0.000 F 
ATOM     18  F   UNL     1       3.378   2.330  21.148  0.00  0.00    +0.000 F 
ENDBRANCH   9  15
ENDBRANCH   3   5
BRANCH   1  19
ATOM     19  O   UNL     1       7.392   4.181  15.907  0.00  0.00    +0.000 OA
BRANCH  19  20
ATOM     20  C   UNL     1       7.066   4.706  14.611  0.00  0.00    +0.000 C 
BRANCH  20  21
ATOM     21  C   UNL     1       5.945   4.004  13.834  0.00  0.00    +0.000 C 
BRANCH  21  28
ATOM     22  C   UNL     1       3.943   2.978  11.398  0.00  0.00    +0.000 C 
ATOM     23  C   UNL     1       5.255   2.985  11.667  0.00  0.00    +0.000 C 
ATOM     24  C   UNL     1       6.139   1.848  11.329  0.00  0.00    +0.000 C 
ATOM     25  O   UNL     1       5.794   0.746  10.948  0.00  0.00    +0.000 OA
ATOM     26  O   UNL     1       7.417   2.246  11.559  0.00  0.00    +0.000 OA
ATOM     27  C   UNL     1       7.450   3.658  11.804  0.00  0.00    +0.000 C 
ATOM     28  C   UNL     1       6.075   4.058  12.306  0.00  0.00    +0.000 C 
ENDBRANCH  21  28
ENDBRANCH  20  21
ENDBRANCH  19  20
ENDBRANCH   1  19
TORSDOF 7
ENDMDL
MODEL 4
REMARK VINA RESULT:      -8.2      4.164      6.995
REMARK  Name = 
REMARK  7 active torsions:
REMARK  status: ('A' for Active; 'I' for Inactive)
REMARK    1  A    between atoms: C_7  and  C_8
REMARK    2  A    between atoms: C_8  and  C_9
REMARK    3  A    between atoms: C_9  and  O_10
REMARK    4  A    between atoms: O_10  and  C_11
REMARK    5  A    between atoms: N_13  and  C_14
REMARK    6  A    between atoms: C_16  and  C_17
REMARK    7  A    between atoms: C_22  and  C_23
REMARK                            x       y       z     vdW  Elec       q    Type
REMARK                         _______ _______ _______ _____ _____    ______ ____
ROOT
ATOM      1  C   UNL     1       4.325   2.603  19.073  0.00  0.00    +0.000 C 
ATOM      2  O   UNL     1       3.959   2.075  18.037  0.00  0.00    +0.000 OA
ATOM      3  N   UNL     1       5.173   3.680  19.198  0.00  0.00    +0.000 N 
ATOM      4  H   UNL     1       5.430   3.916  20.146  0.00  0.00    +0.000 HD
ENDROOT
BRANCH   3   5
ATOM      5  C   UNL     1       5.684   4.451  18.136  0.00  0.00    +0.000 A 
ATOM      6  C   UNL     1       5.574   4.053  16.798  0.00  0.00    +0.000 A 
ATOM      7  C   UNL     1       6.160   4.790  15.763  0.00  0.00    +0.000 A 
ATOM      8  C   UNL     1       6.844   5.970  16.078  0.00  0.00    +0.000 A 
ATOM      9  C   UNL     1       6.943   6.410  17.409  0.00  0.00    +0.000 A 
ATOM     10  C   UNL     1       6.340   5.648  18.431  0.00  0.00    +0.000 A 
BRANCH   7  11
ATOM     11  C   UNL     1       6.095   4.289  14.339  0.00  0.00    +0.000 C 
ATOM     12  F   UNL     1       6.993   4.880  13.505  0.00  0.00    +0.000 F 
ATOM     13  F   UNL     1       6.324   2.949  14.249  0.00  0.00    +0.000 F 
ATOM     14  F   UNL     1       4.871   4.501  13.779  0.00  0.00    +0.000 F 
ENDBRANCH   7  11
BRANCH   9  15
ATOM     15  C   UNL     1       7.734   7.649  17.755  0.00  0.00    +0.000 C 
ATOM     16  F   UNL     1       8.574   8.052  16.762  0.00  0.00    +0.000 F 
ATOM     17  F   UNL     1       6.939   8.717  18.032  0.00  0.00    +0.000 F 
ATOM     18  F   UNL     1       8.515   7.466  18.855  0.00  0.00    +0.000 F 
ENDBRANCH   9  15
ENDBRANCH   3   5
BRANCH   1  19
ATOM     19  O   UNL     1       3.873   2.229  20.299  0.00  0.00    +0.000 OA
BRANCH  19  20
ATOM     20  C   UNL     1       2.585   2.777  20.621  0.00  0.00    +0.000 C 
BRANCH  20  21
ATOM     21  C   UNL     1       2.540   4.251  21.043  0.00  0.00    +0.000 C 
BRANCH  21  28
ATOM     22  C   UNL     1       1.785   4.508  17.825  0.00  0.00    +0.000 C 
ATOM     23  C   UNL     1       1.939   5.324  18.875  0.00  0.00    +0.000 C 
ATOM     24  C   UNL     1       2.585   6.650  18.761  0.00  0.00    +0.000 C 
ATOM     25  O   UNL     1       3.190   7.085  17.800  0.00  0.00    +0.000 OA
ATOM     26  O   UNL     1       2.414   7.287  19.949  0.00  0.00    +0.000 OA
ATOM     27  C   UNL     1       1.487   6.558  20.763  0.00  0.00    +0.000 C 
ATOM     28  C   UNL     1       1.517   5.115  20.294  0.00  0.00    +0.000 C 
ENDBRANCH  21  28
ENDBRANCH  20  21
ENDBRANCH  19  20
ENDBRANCH   1  19
TORSDOF 7
ENDMDL
MODEL 5
REMARK VINA RESULT:      -8.2      0.738      1.129
REMARK  Name = 
REMARK  7 active torsions:
REMARK  status: ('A' for Active; 'I' for Inactive)
REMARK    1  A    between atoms: C_7  and  C_8
REMARK    2  A    between atoms: C_8  and  C_9
REMARK    3  A    between atoms: C_9  and  O_10
REMARK    4  A    between atoms: O_10  and  C_11
REMARK    5  A    between atoms: N_13  and  C_14
REMARK    6  A    between atoms: C_16  and  C_17
REMARK    7  A    between atoms: C_22  and  C_23
REMARK                            x       y       z     vdW  Elec       q    Type
REMARK                         _______ _______ _______ _____ _____    ______ ____
ROOT
ATOM      1  C   UNL     1       6.612   5.373  16.960  0.00  0.00    +0.000 C 
ATOM      2  O   UNL     1       7.110   6.151  17.756  0.00  0.00    +0.000 OA
ATOM      3  N   UNL     1       5.324   4.888  16.973  0.00  0.00    +0.000 N 
ATOM      4  H   UNL     1       5.125   4.181  16.279  0.00  0.00    +0.000 HD
ENDROOT
BRANCH   3   5
ATOM      5  C   UNL     1       4.301   5.296  17.851  0.00  0.00    +0.000 A 
ATOM      6  C   UNL     1       3.762   4.445  18.823  0.00  0.00    +0.000 A 
ATOM      7  C   UNL     1       2.691   4.840  19.631  0.00  0.00    +0.000 A 
ATOM      8  C   UNL     1       2.171   6.131  19.480  0.00  0.00    +0.000 A 
ATOM      9  C   UNL     1       2.714   7.017  18.534  0.00  0.00    +0.000 A 
ATOM     10  C   UNL     1       3.795   6.593  17.735  0.00  0.00    +0.000 A 
BRANCH   7  11
ATOM     11  C   UNL     1       2.077   3.868  20.613  0.00  0.00    +0.000 C 
ATOM     12  F   UNL     1       0.716   3.890  20.631  0.00  0.00    +0.000 F 
ATOM     13  F   UNL     1       2.429   2.578  20.355  0.00  0.00    +0.000 F 
ATOM     14  F   UNL     1       2.471   4.119  21.892  0.00  0.00    +0.000 F 
ENDBRANCH   7  11
BRANCH   9  15
ATOM     15  C   UNL     1       2.113   8.387  18.327  0.00  0.00    +0.000 C 
ATOM     16  F   UNL     1       1.605   8.936  19.465  0.00  0.00    +0.000 F 
ATOM     17  F   UNL     1       3.013   9.287  17.844  0.00  0.00    +0.000 F 
ATOM     18  F   UNL     1       1.087   8.366  17.432  0.00  0.00    +0.000 F 
ENDBRANCH   9  15
ENDBRANCH   3   5
BRANCH   1  19
ATOM     19  O   UNL     1       7.266   4.913  15.862  0.00  0.00    +0.000 OA
BRANCH  19  20
ATOM     20  C   UNL     1       6.505   5.043  14.651  0.00  0.00    +0.000 C 
BRANCH  20  21
ATOM     21  C   UNL     1       6.211   3.756  13.869  0.00  0.00    +0.000 C 
BRANCH  21  28
ATOM     22  C   UNL     1       4.049   2.968  11.481  0.00  0.00    +0.000 C 
ATOM     23  C   UNL     1       5.370   2.896  11.685  0.00  0.00    +0.000 C 
ATOM     24  C   UNL     1       6.179   1.739  11.243  0.00  0.00    +0.000 C 
ATOM     25  O   UNL     1       5.762   0.678  10.821  0.00  0.00    +0.000 OA
ATOM     26  O   UNL     1       7.486   2.062  11.433  0.00  0.00    +0.000 OA
ATOM     27  C   UNL     1       7.601   3.454  11.752  0.00  0.00    +0.000 C 
ATOM     28  C   UNL     1       6.273   3.891  12.342  0.00  0.00    +0.000 C 
ENDBRANCH  21  28
ENDBRANCH  20  21
ENDBRANCH  19  20
ENDBRANCH   1  19
TORSDOF 7
ENDMDL
MODEL 6
REMARK VINA RESULT:      -8.1      4.183      7.406
REMARK  Name = 
REMARK  7 active torsions:
REMARK  status: ('A' for Active; 'I' for Inactive)
REMARK    1  A    between atoms: C_7  and  C_8
REMARK    2  A    between atoms: C_8  and  C_9
REMARK    3  A    between atoms: C_9  and  O_10
REMARK    4  A    between atoms: O_10  and  C_11
REMARK    5  A    between atoms: N_13  and  C_14
REMARK    6  A    between atoms: C_16  and  C_17
REMARK    7  A    between atoms: C_22  and  C_23
REMARK                            x       y       z     vdW  Elec       q    Type
REMARK                         _______ _______ _______ _____ _____    ______ ____
ROOT
ATOM      1  C   UNL     1       4.556   2.777  19.125  0.00  0.00    +0.000 C 
ATOM      2  O   UNL     1       4.116   2.364  18.065  0.00  0.00    +0.000 OA
ATOM      3  N   UNL     1       5.517   3.746  19.300  0.00  0.00    +0.000 N 
ATOM      4  H   UNL     1       5.814   3.887  20.256  0.00  0.00    +0.000 HD
ENDROOT
BRANCH   3   5
ATOM      5  C   UNL     1       6.090   4.529  18.279  0.00  0.00    +0.000 A 
ATOM      6  C   UNL     1       6.751   5.735  18.540  0.00  0.00    +0.000 A 
ATOM      7  C   UNL     1       7.243   6.541  17.507  0.00  0.00    +0.000 A 
ATOM      8  C   UNL     1       7.095   6.107  16.184  0.00  0.00    +0.000 A 
ATOM      9  C   UNL     1       6.463   4.885  15.896  0.00  0.00    +0.000 A 
ATOM     10  C   UNL     1       5.980   4.093  16.957  0.00  0.00    +0.000 A 
BRANCH   7  11
ATOM     11  C   UNL     1       7.876   7.877  17.817  0.00  0.00    +0.000 C 
ATOM     12  F   UNL     1       8.665   7.870  18.926  0.00  0.00    +0.000 F 
ATOM     13  F   UNL     1       8.663   8.327  16.800  0.00  0.00    +0.000 F 
ATOM     14  F   UNL     1       6.943   8.846  18.029  0.00  0.00    +0.000 F 
ENDBRANCH   7  11
BRANCH   9  15
ATOM     15  C   UNL     1       6.246   4.448  14.466  0.00  0.00    +0.000 C 
ATOM     16  F   UNL     1       7.141   4.986  13.592  0.00  0.00    +0.000 F 
ATOM     17  F   UNL     1       6.334   3.098  14.313  0.00  0.00    +0.000 F 
ATOM     18  F   UNL     1       5.015   4.799  14.005  0.00  0.00    +0.000 F 
ENDBRANCH   9  15
ENDBRANCH   3   5
BRANCH   1  19
ATOM     19  O   UNL     1       4.087   2.370  20.333  0.00  0.00    +0.000 OA
BRANCH  19  20
ATOM     20  C   UNL     1       2.675   2.579  20.495  0.00  0.00    +0.000 C 
BRANCH  20  21
ATOM     21  C   UNL     1       2.239   3.835  21.260  0.00  0.00    +0.000 C 
BRANCH  21  28
ATOM     22  C   UNL     1       1.275   3.883  18.088  0.00  0.00    +0.000 C 
ATOM     23  C   UNL     1       1.680   4.761  19.015  0.00  0.00    +0.000 C 
ATOM     24  C   UNL     1       2.567   5.901  18.694  0.00  0.00    +0.000 C 
ATOM     25  O   UNL     1       3.161   6.089  17.650  0.00  0.00    +0.000 OA
ATOM     26  O   UNL     1       2.631   6.688  19.799  0.00  0.00    +0.000 OA
ATOM     27  C   UNL     1       1.651   6.265  20.755  0.00  0.00    +0.000 C 
ATOM     28  C   UNL     1       1.349   4.805  20.472  0.00  0.00    +0.000 C 
ENDBRANCH  21  28
ENDBRANCH  20  21
ENDBRANCH  19  20
ENDBRANCH   1  19
TORSDOF 7
ENDMDL
MODEL 7
REMARK VINA RESULT:      -8.1      4.204      7.582
REMARK  Name = 
REMARK  7 active torsions:
REMARK  status: ('A' for Active; 'I' for Inactive)
REMARK    1  A    between atoms: C_7  and  C_8
REMARK    2  A    between atoms: C_8  and  C_9
REMARK    3  A    between atoms: C_9  and  O_10
REMARK    4  A    between atoms: O_10  and  C_11
REMARK    5  A    between atoms: N_13  and  C_14
REMARK    6  A    between atoms: C_16  and  C_17
REMARK    7  A    between atoms: C_22  and  C_23
REMARK                            x       y       z     vdW  Elec       q    Type
REMARK                         _______ _______ _______ _____ _____    ______ ____
ROOT
ATOM      1  C   UNL     1       2.833   2.245  17.704  0.00  0.00    +0.000 C 
ATOM      2  O   UNL     1       3.587   1.349  18.043  0.00  0.00    +0.000 OA
ATOM      3  N   UNL     1       3.183   3.455  17.149  0.00  0.00    +0.000 N 
ATOM      4  H   UNL     1       2.420   4.104  17.018  0.00  0.00    +0.000 HD
ENDROOT
BRANCH   3   5
ATOM      5  C   UNL     1       4.482   3.835  16.760  0.00  0.00    +0.000 A 
ATOM      6  C   UNL     1       5.425   4.327  17.670  0.00  0.00    +0.000 A 
ATOM      7  C   UNL     1       6.682   4.777  17.254  0.00  0.00    +0.000 A 
ATOM      8  C   UNL     1       7.010   4.700  15.895  0.00  0.00    +0.000 A 
ATOM      9  C   UNL     1       6.095   4.181  14.963  0.00  0.00    +0.000 A 
ATOM     10  C   UNL     1       4.836   3.733  15.412  0.00  0.00    +0.000 A 
BRANCH   7  11
ATOM     11  C   UNL     1       7.645   5.381  18.250  0.00  0.00    +0.000 C 
ATOM     12  F   UNL     1       8.711   4.587  18.539  0.00  0.00    +0.000 F 
ATOM     13  F   UNL     1       8.165   6.564  17.818  0.00  0.00    +0.000 F 
ATOM     14  F   UNL     1       7.044   5.647  19.443  0.00  0.00    +0.000 F 
ENDBRANCH   7  11
BRANCH   9  15
ATOM     15  C   UNL     1       6.425   4.157  13.490  0.00  0.00    +0.000 C 
ATOM     16  F   UNL     1       6.925   2.965  13.064  0.00  0.00    +0.000 F 
ATOM     17  F   UNL     1       5.342   4.413  12.707  0.00  0.00    +0.000 F 
ATOM     18  F   UNL     1       7.357   5.093  13.159  0.00  0.00    +0.000 F 
ENDBRANCH   9  15
ENDBRANCH   3   5
BRANCH   1  19
ATOM     19  O   UNL     1       1.479   2.141  17.763  0.00  0.00    +0.000 OA
BRANCH  19  20
ATOM     20  C   UNL     1       0.975   2.050  19.105  0.00  0.00    +0.000 C 
BRANCH  20  21
ATOM     21  C   UNL     1       0.441   3.340  19.740  0.00  0.00    +0.000 C 
BRANCH  21  28
ATOM     22  C   UNL     1       1.213   6.414  20.714  0.00  0.00    +0.000 C 
ATOM     23  C   UNL     1       1.813   5.220  20.634  0.00  0.00    +0.000 C 
ATOM     24  C   UNL     1       3.225   5.068  20.219  0.00  0.00    +0.000 C 
ATOM     25  O   UNL     1       3.942   5.931  19.749  0.00  0.00    +0.000 OA
ATOM     26  O   UNL     1       3.569   3.769  20.421  0.00  0.00    +0.000 OA
ATOM     27  C   UNL     1       2.542   3.105  21.167  0.00  0.00    +0.000 C 
ATOM     28  C   UNL     1       1.252   3.867  20.931  0.00  0.00    +0.000 C 
ENDBRANCH  21  28
ENDBRANCH  20  21
ENDBRANCH  19  20
ENDBRANCH   1  19
TORSDOF 7
ENDMDL
MODEL 8
REMARK VINA RESULT:      -8.1      5.812      8.338
REMARK  Name = 
REMARK  7 active torsions:
REMARK  status: ('A' for Active; 'I' for Inactive)
REMARK    1  A    between atoms: C_7  and  C_8
REMARK    2  A    between atoms: C_8  and  C_9
REMARK    3  A    between atoms: C_9  and  O_10
REMARK    4  A    between atoms: O_10  and  C_11
REMARK    5  A    between atoms: N_13  and  C_14
REMARK    6  A    between atoms: C_16  and  C_17
REMARK    7  A    between atoms: C_22  and  C_23
REMARK                            x       y       z     vdW  Elec       q    Type
REMARK                         _______ _______ _______ _____ _____    ______ ____
ROOT
ATOM      1  C   UNL     1       7.760   8.014  17.970  0.00  0.00    +0.000 C 
ATOM      2  O   UNL     1       7.072   8.630  17.175  0.00  0.00    +0.000 OA
ATOM      3  N   UNL     1       7.637   6.688  18.318  0.00  0.00    +0.000 N 
ATOM      4  H   UNL     1       8.245   6.382  19.064  0.00  0.00    +0.000 HD
ENDROOT
BRANCH   3   5
ATOM      5  C   UNL     1       6.758   5.762  17.724  0.00  0.00    +0.000 A 
ATOM      6  C   UNL     1       5.844   5.009  18.471  0.00  0.00    +0.000 A 
ATOM      7  C   UNL     1       5.036   4.034  17.877  0.00  0.00    +0.000 A 
ATOM      8  C   UNL     1       5.126   3.835  16.493  0.00  0.00    +0.000 A 
ATOM      9  C   UNL     1       6.012   4.599  15.714  0.00  0.00    +0.000 A 
ATOM     10  C   UNL     1       6.812   5.576  16.341  0.00  0.00    +0.000 A 
BRANCH   7  11
ATOM     11  C   UNL     1       4.121   3.180  18.724  0.00  0.00    +0.000 C 
ATOM     12  F   UNL     1       3.070   3.859  19.257  0.00  0.00    +0.000 F 
ATOM     13  F   UNL     1       3.583   2.144  18.023  0.00  0.00    +0.000 F 
ATOM     14  F   UNL     1       4.778   2.621  19.778  0.00  0.00    +0.000 F 
ENDBRANCH   7  11
BRANCH   9  15
ATOM     15  C   UNL     1       6.154   4.340  14.233  0.00  0.00    +0.000 C 
ATOM     16  F   UNL     1       7.068   5.146  13.626  0.00  0.00    +0.000 F 
ATOM     17  F   UNL     1       6.537   3.063  13.959  0.00  0.00    +0.000 F 
ATOM     18  F   UNL     1       4.984   4.533  13.565  0.00  0.00    +0.000 F 
ENDBRANCH   9  15
ENDBRANCH   3   5
BRANCH   1  19
ATOM     19  O   UNL     1       8.836   8.556  18.599  0.00  0.00    +0.000 OA
BRANCH  19  20
ATOM     20  C   UNL     1       8.932   9.980  18.434  0.00  0.00    +0.000 C 
BRANCH  20  21
ATOM     21  C   UNL     1       9.470  10.786  19.624  0.00  0.00    +0.000 C 
BRANCH  21  28
ATOM     22  C   UNL     1      10.557  13.687  20.804  0.00  0.00    +0.000 C 
ATOM     23  C   UNL     1      10.517  13.048  19.629  0.00  0.00    +0.000 C 
ATOM     24  C   UNL     1      10.235  13.747  18.355  0.00  0.00    +0.000 C 
ATOM     25  O   UNL     1       9.848  14.892  18.224  0.00  0.00    +0.000 OA
ATOM     26  O   UNL     1      10.450  12.859  17.349  0.00  0.00    +0.000 OA
ATOM     27  C   UNL     1      11.086  11.684  17.866  0.00  0.00    +0.000 C 
ATOM     28  C   UNL     1      10.741  11.599  19.341  0.00  0.00    +0.000 C 
ENDBRANCH  21  28
ENDBRANCH  20  21
ENDBRANCH  19  20
ENDBRANCH   1  19
TORSDOF 7
ENDMDL
MODEL 9
REMARK VINA RESULT:      -8.1      5.521      8.223
REMARK  Name = 
REMARK  7 active torsions:
REMARK  status: ('A' for Active; 'I' for Inactive)
REMARK    1  A    between atoms: C_7  and  C_8
REMARK    2  A    between atoms: C_8  and  C_9
REMARK    3  A    between atoms: C_9  and  O_10
REMARK    4  A    between atoms: O_10  and  C_11
REMARK    5  A    between atoms: N_13  and  C_14
REMARK    6  A    between atoms: C_16  and  C_17
REMARK    7  A    between atoms: C_22  and  C_23
REMARK                            x       y       z     vdW  Elec       q    Type
REMARK                         _______ _______ _______ _____ _____    ______ ____
ROOT
ATOM      1  C   UNL     1       8.058   7.286  18.448  0.00  0.00    +0.000 C 
ATOM      2  O   UNL     1       8.257   6.248  19.056  0.00  0.00    +0.000 OA
ATOM      3  N   UNL     1       7.162   7.484  17.422  0.00  0.00    +0.000 N 
ATOM      4  H   UNL     1       7.207   8.393  16.983  0.00  0.00    +0.000 HD
ENDROOT
BRANCH   3   5
ATOM      5  C   UNL     1       6.219   6.545  16.961  0.00  0.00    +0.000 A 
ATOM      6  C   UNL     1       5.068   6.219  17.686  0.00  0.00    +0.000 A 
ATOM      7  C   UNL     1       4.184   5.224  17.253  0.00  0.00    +0.000 A 
ATOM      8  C   UNL     1       4.449   4.566  16.045  0.00  0.00    +0.000 A 
ATOM      9  C   UNL     1       5.581   4.895  15.281  0.00  0.00    +0.000 A 
ATOM     10  C   UNL     1       6.452   5.904  15.741  0.00  0.00    +0.000 A 
BRANCH   7  11
ATOM     11  C   UNL     1       2.995   4.837  18.101  0.00  0.00    +0.000 C 
ATOM     12  F   UNL     1       2.855   3.494  18.274  0.00  0.00    +0.000 F 
ATOM     13  F   UNL     1       3.053   5.373  19.352  0.00  0.00    +0.000 F 
ATOM     14  F   UNL     1       1.822   5.268  17.561  0.00  0.00    +0.000 F 
ENDBRANCH   7  11
BRANCH   9  15
ATOM     15  C   UNL     1       5.900   4.142  14.012  0.00  0.00    +0.000 C 
ATOM     16  F   UNL     1       4.846   4.047  13.156  0.00  0.00    +0.000 F 
ATOM     17  F   UNL     1       6.911   4.714  13.303  0.00  0.00    +0.000 F 
ATOM     18  F   UNL     1       6.294   2.862  14.262  0.00  0.00    +0.000 F 
ENDBRANCH   9  15
ENDBRANCH   3   5
BRANCH   1  19
ATOM     19  O   UNL     1       8.668   8.459  18.759  0.00  0.00    +0.000 OA
BRANCH  19  20
ATOM     20  C   UNL     1       8.258   9.552  17.922  0.00  0.00    +0.000 C 
BRANCH  20  21
ATOM     21  C   UNL     1       8.981  10.891  18.118  0.00  0.00    +0.000 C 
BRANCH  21  28
ATOM     22  C   UNL     1       9.083  11.302  21.407  0.00  0.00    +0.000 C 
ATOM     23  C   UNL     1       9.806  11.664  20.340  0.00  0.00    +0.000 C 
ATOM     24  C   UNL     1      10.429  13.000  20.219  0.00  0.00    +0.000 C 
ATOM     25  O   UNL     1      10.237  13.960  20.941  0.00  0.00    +0.000 OA
ATOM     26  O   UNL     1      11.232  12.976  19.124  0.00  0.00    +0.000 OA
ATOM     27  C   UNL     1      11.363  11.632  18.647  0.00  0.00    +0.000 C 
ATOM     28  C   UNL     1      10.142  10.866  19.121  0.00  0.00    +0.000 C 
ENDBRANCH  21  28
ENDBRANCH  20  21
ENDBRANCH  19  20
ENDBRANCH   1  19
TORSDOF 7
ENDMDL
