MODEL 1
REMARK VINA RESULT:      -7.3      0.000      0.000
REMARK  Name = 
REMARK  1 active torsions:
REMARK  status: ('A' for Active; 'I' for Inactive)
REMARK    1  A    between atoms: C_4  and  C_5
REMARK                            x       y       z     vdW  Elec       q    Type
REMARK                         _______ _______ _______ _____ _____    ______ ____
ROOT
ATOM      1  N   UNL     1       4.466   1.814  19.030  0.00  0.00    +0.000 N 
ATOM      2  C   UNL     1       3.688   2.790  19.722  0.00  0.00    +0.000 C 
ATOM      3  N   UNL     1       4.013   4.049  19.608  0.00  0.00    +0.000 NA
ATOM      4  C   UNL     1       3.091   5.064  19.105  0.00  0.00    +0.000 C 
ATOM      5  C   UNL     1       3.167   6.642  18.828  0.00  0.00    +0.000 C 
ATOM      6  N   UNL     1       2.182   7.338  19.586  0.00  0.00    +0.000 N 
ATOM      7  C   UNL     1       1.795   8.685  19.340  0.00  0.00    +0.000 A 
ATOM      8  N   UNL     1       2.340   9.379  18.307  0.00  0.00    +0.000 NA
ATOM      9  C   UNL     1       1.936  10.639  18.017  0.00  0.00    +0.000 A 
ATOM     10  C   UNL     1       0.929  11.231  18.778  0.00  0.00    +0.000 A 
ATOM     11  F   UNL     1       0.486  12.475  18.483  0.00  0.00    +0.000 F 
ATOM     12  C   UNL     1       0.368  10.506  19.828  0.00  0.00    +0.000 A 
ATOM     13  N   UNL     1       0.812   9.256  20.093  0.00  0.00    +0.000 NA
ATOM     14  C   UNL     1       1.549   6.580  20.575  0.00  0.00    +0.000 C 
ATOM     15  C   UNL     1       2.169   5.156  20.464  0.00  0.00    +0.000 C 
ATOM     16  C   UNL     1       1.809   3.759  21.200  0.00  0.00    +0.000 C 
ATOM     17  S   UNL     1       2.086   2.276  20.220  0.00  0.00    +0.000 S 
ATOM     18  H   UNL     1       5.269   2.084  18.442  0.00  0.00    +0.000 HD
ATOM     19  H   UNL     1       4.110   0.851  18.923  0.00  0.00    +0.000 HD
ENDROOT
BRANCH   4  20
ATOM     20  C   UNL     1       4.115   4.880  17.928  0.00  0.00    +0.000 A 
ATOM     21  C   UNL     1       3.981   4.185  16.728  0.00  0.00    +0.000 A 
ATOM     22  C   UNL     1       5.238   3.878  16.125  0.00  0.00    +0.000 A 
ATOM     23  N   UNL     1       6.357   4.325  16.748  0.00  0.00    +0.000 NA
ATOM     24  S   UNL     1       5.812   5.113  18.083  0.00  0.00    +0.000 S 
ENDBRANCH   4  20
TORSDOF 1
ENDMDL
MODEL 2
REMARK VINA RESULT:      -7.2      1.869      3.725
REMARK  Name = 
REMARK  1 active torsions:
REMARK  status: ('A' for Active; 'I' for Inactive)
REMARK    1  A    between atoms: C_4  and  C_5
REMARK                            x       y       z     vdW  Elec       q    Type
REMARK                         _______ _______ _______ _____ _____    ______ ____
ROOT
ATOM      1  N   UNL     1       4.198   2.669  17.606  0.00  0.00    +0.000 N 
ATOM      2  C   UNL     1       3.935   4.069  17.506  0.00  0.00    +0.000 C 
ATOM      3  N   UNL     1       2.829   4.539  18.015  0.00  0.00    +0.000 NA
ATOM      4  C   UNL     1       2.807   5.579  19.040  0.00  0.00    +0.000 C 
ATOM      5  C   UNL     1       1.667   6.346  19.868  0.00  0.00    +0.000 C 
ATOM      6  N   UNL     1       1.738   7.752  19.646  0.00  0.00    +0.000 N 
ATOM      7  C   UNL     1       1.075   8.718  20.453  0.00  0.00    +0.000 A 
ATOM      8  N   UNL     1       0.352   8.330  21.535  0.00  0.00    +0.000 NA
ATOM      9  C   UNL     1      -0.231   9.239  22.353  0.00  0.00    +0.000 A 
ATOM     10  C   UNL     1      -0.071  10.599  22.095  0.00  0.00    +0.000 A 
ATOM     11  F   UNL     1      -0.615  11.525  22.918  0.00  0.00    +0.000 F 
ATOM     12  C   UNL     1       0.683  10.987  20.988  0.00  0.00    +0.000 A 
ATOM     13  N   UNL     1       1.235  10.046  20.188  0.00  0.00    +0.000 NA
ATOM     14  C   UNL     1       2.573   8.146  18.597  0.00  0.00    +0.000 C 
ATOM     15  C   UNL     1       3.182   6.827  18.035  0.00  0.00    +0.000 C 
ATOM     16  C   UNL     1       4.322   6.551  16.920  0.00  0.00    +0.000 C 
ATOM     17  S   UNL     1       5.331   5.085  17.192  0.00  0.00    +0.000 S 
ATOM     18  H   UNL     1       3.537   2.031  18.074  0.00  0.00    +0.000 HD
ATOM     19  H   UNL     1       5.145   2.306  17.414  0.00  0.00    +0.000 HD
ENDROOT
BRANCH   4  20
ATOM     20  C   UNL     1       2.403   4.280  19.825  0.00  0.00    +0.000 A 
ATOM     21  C   UNL     1       1.146   3.721  20.042  0.00  0.00    +0.000 A 
ATOM     22  C   UNL     1       1.129   2.811  21.141  0.00  0.00    +0.000 A 
ATOM     23  N   UNL     1       2.303   2.578  21.780  0.00  0.00    +0.000 NA
ATOM     24  S   UNL     1       3.403   3.514  20.996  0.00  0.00    +0.000 S 
ENDBRANCH   4  20
TORSDOF 1
ENDMDL
MODEL 3
REMARK VINA RESULT:      -7.0      1.623      3.477
REMARK  Name = 
REMARK  1 active torsions:
REMARK  status: ('A' for Active; 'I' for Inactive)
REMARK    1  A    between atoms: C_4  and  C_5
REMARK                            x       y       z     vdW  Elec       q    Type
REMARK                         _______ _______ _______ _____ _____    ______ ____
ROOT
ATOM      1  N   UNL     1       4.470   2.476  17.649  0.00  0.00    +0.000 N 
ATOM      2  C   UNL     1       4.436   3.856  17.284  0.00  0.00    +0.000 C 
ATOM      3  N   UNL     1       3.318   4.516  17.425  0.00  0.00    +0.000 NA
ATOM      4  C   UNL     1       3.205   5.717  18.248  0.00  0.00    +0.000 C 
ATOM      5  C   UNL     1       2.022   6.727  18.641  0.00  0.00    +0.000 C 
ATOM      6  N   UNL     1       2.339   8.058  18.242  0.00  0.00    +0.000 N 
ATOM      7  C   UNL     1       1.648   9.212  18.707  0.00  0.00    +0.000 A 
ATOM      8  N   UNL     1       0.647   9.093  19.617  0.00  0.00    +0.000 NA
ATOM      9  C   UNL     1       0.023  10.185  20.121  0.00  0.00    +0.000 A 
ATOM     10  C   UNL     1       0.427  11.457  19.716  0.00  0.00    +0.000 A 
ATOM     11  F   UNL     1      -0.159  12.562  20.233  0.00  0.00    +0.000 F 
ATOM     12  C   UNL     1       1.464  11.567  18.790  0.00  0.00    +0.000 A 
ATOM     13  N   UNL     1       2.049  10.450  18.300  0.00  0.00    +0.000 NA
ATOM     14  C   UNL     1       3.441   8.176  17.391  0.00  0.00    +0.000 C 
ATOM     15  C   UNL     1       3.973   6.726  17.199  0.00  0.00    +0.000 C 
ATOM     16  C   UNL     1       5.290   6.145  16.459  0.00  0.00    +0.000 C 
ATOM     17  S   UNL     1       5.994   4.657  17.186  0.00  0.00    +0.000 S 
ATOM     18  H   UNL     1       3.637   1.999  18.024  0.00  0.00    +0.000 HD
ATOM     19  H   UNL     1       5.376   1.993  17.757  0.00  0.00    +0.000 HD
ENDROOT
BRANCH   4  20
ATOM     20  C   UNL     1       2.453   4.622  19.087  0.00  0.00    +0.000 A 
ATOM     21  C   UNL     1       1.337   3.856  18.760  0.00  0.00    +0.000 A 
ATOM     22  C   UNL     1       0.692   3.302  19.906  0.00  0.00    +0.000 A 
ATOM     23  N   UNL     1       1.253   3.544  21.118  0.00  0.00    +0.000 NA
ATOM     24  S   UNL     1       2.572   4.470  20.796  0.00  0.00    +0.000 S 
ENDBRANCH   4  20
TORSDOF 1
ENDMDL
MODEL 4
REMARK VINA RESULT:      -7.0      1.428      3.476
REMARK  Name = 
REMARK  1 active torsions:
REMARK  status: ('A' for Active; 'I' for Inactive)
REMARK    1  A    between atoms: C_4  and  C_5
REMARK                            x       y       z     vdW  Elec       q    Type
REMARK                         _______ _______ _______ _____ _____    ______ ____
ROOT
ATOM      1  N   UNL     1       4.381   2.502  18.843  0.00  0.00    +0.000 N 
ATOM      2  C   UNL     1       4.292   3.810  18.279  0.00  0.00    +0.000 C 
ATOM      3  N   UNL     1       3.163   4.460  18.373  0.00  0.00    +0.000 NA
ATOM      4  C   UNL     1       3.052   5.768  19.012  0.00  0.00    +0.000 C 
ATOM      5  C   UNL     1       1.860   6.800  19.306  0.00  0.00    +0.000 C 
ATOM      6  N   UNL     1       2.120   8.062  18.699  0.00  0.00    +0.000 N 
ATOM      7  C   UNL     1       1.419   9.258  19.019  0.00  0.00    +0.000 A 
ATOM      8  N   UNL     1       0.462   9.256  19.983  0.00  0.00    +0.000 NA
ATOM      9  C   UNL     1      -0.171  10.397  20.348  0.00  0.00    +0.000 A 
ATOM     10  C   UNL     1       0.179  11.602  19.739  0.00  0.00    +0.000 A 
ATOM     11  F   UNL     1      -0.414  12.759  20.112  0.00  0.00    +0.000 F 
ATOM     12  C   UNL     1       1.171  11.594  18.758  0.00  0.00    +0.000 A 
ATOM     13  N   UNL     1       1.766  10.429  18.414  0.00  0.00    +0.000 NA
ATOM     14  C   UNL     1       3.181   8.075  17.789  0.00  0.00    +0.000 C 
ATOM     15  C   UNL     1       3.745   6.624  17.789  0.00  0.00    +0.000 C 
ATOM     16  C   UNL     1       5.044   5.968  17.082  0.00  0.00    +0.000 C 
ATOM     17  S   UNL     1       5.821   4.621  17.989  0.00  0.00    +0.000 S 
ATOM     18  H   UNL     1       3.579   2.069  19.324  0.00  0.00    +0.000 HD
ATOM     19  H   UNL     1       5.304   2.060  18.979  0.00  0.00    +0.000 HD
ENDROOT
BRANCH   4  20
ATOM     20  C   UNL     1       2.369   4.795  20.039  0.00  0.00    +0.000 A 
ATOM     21  C   UNL     1       2.818   4.346  21.279  0.00  0.00    +0.000 A 
ATOM     22  C   UNL     1       2.150   3.161  21.711  0.00  0.00    +0.000 A 
ATOM     23  N   UNL     1       1.168   2.669  20.914  0.00  0.00    +0.000 NA
ATOM     24  S   UNL     1       1.110   3.696  19.633  0.00  0.00    +0.000 S 
ENDBRANCH   4  20
TORSDOF 1
ENDMDL
MODEL 5
REMARK VINA RESULT:      -6.9      1.862      3.612
REMARK  Name = 
REMARK  1 active torsions:
REMARK  status: ('A' for Active; 'I' for Inactive)
REMARK    1  A    between atoms: C_4  and  C_5
REMARK                            x       y       z     vdW  Elec       q    Type
REMARK                         _______ _______ _______ _____ _____    ______ ____
ROOT
ATOM      1  N   UNL     1       5.429   3.179  16.536  0.00  0.00    +0.000 N 
ATOM      2  C   UNL     1       4.922   4.513  16.531  0.00  0.00    +0.000 C 
ATOM      3  N   UNL     1       3.789   4.757  17.131  0.00  0.00    +0.000 NA
ATOM      4  C   UNL     1       3.657   5.731  18.211  0.00  0.00    +0.000 C 
ATOM      5  C   UNL     1       2.461   6.247  19.148  0.00  0.00    +0.000 C 
ATOM      6  N   UNL     1       2.272   7.651  19.001  0.00  0.00    +0.000 N 
ATOM      7  C   UNL     1       1.509   8.449  19.899  0.00  0.00    +0.000 A 
ATOM      8  N   UNL     1       0.940   7.891  20.999  0.00  0.00    +0.000 NA
ATOM      9  C   UNL     1       0.266   8.645  21.901  0.00  0.00    +0.000 A 
ATOM     10  C   UNL     1       0.170  10.023  21.709  0.00  0.00    +0.000 A 
ATOM     11  F   UNL     1      -0.468  10.800  22.614  0.00  0.00    +0.000 F 
ATOM     12  C   UNL     1       0.767  10.587  20.582  0.00  0.00    +0.000 A 
ATOM     13  N   UNL     1       1.417   9.794  19.699  0.00  0.00    +0.000 NA
ATOM     14  C   UNL     1       2.952   8.233  17.927  0.00  0.00    +0.000 C 
ATOM     15  C   UNL     1       3.740   7.069  17.257  0.00  0.00    +0.000 C 
ATOM     16  C   UNL     1       4.831   7.048  16.062  0.00  0.00    +0.000 C 
ATOM     17  S   UNL     1       6.095   5.773  16.191  0.00  0.00    +0.000 S 
ATOM     18  H   UNL     1       4.923   2.414  17.007  0.00  0.00    +0.000 HD
ATOM     19  H   UNL     1       6.410   2.998  16.268  0.00  0.00    +0.000 HD
ENDROOT
BRANCH   4  20
ATOM     20  C   UNL     1       3.540   4.347  18.946  0.00  0.00    +0.000 A 
ATOM     21  C   UNL     1       4.480   3.657  19.707  0.00  0.00    +0.000 A 
ATOM     22  C   UNL     1       4.173   2.270  19.839  0.00  0.00    +0.000 A 
ATOM     23  N   UNL     1       3.025   1.825  19.267  0.00  0.00    +0.000 NA
ATOM     24  S   UNL     1       2.360   3.155  18.568  0.00  0.00    +0.000 S 
ENDBRANCH   4  20
TORSDOF 1
ENDMDL
MODEL 6
REMARK VINA RESULT:      -6.8      2.079      4.000
REMARK  Name = 
REMARK  1 active torsions:
REMARK  status: ('A' for Active; 'I' for Inactive)
REMARK    1  A    between atoms: C_4  and  C_5
REMARK                            x       y       z     vdW  Elec       q    Type
REMARK                         _______ _______ _______ _____ _____    ______ ____
ROOT
ATOM      1  N   UNL     1       3.886   3.368  18.134  0.00  0.00    +0.000 N 
ATOM      2  C   UNL     1       3.540   4.747  18.007  0.00  0.00    +0.000 C 
ATOM      3  N   UNL     1       2.435   5.171  18.556  0.00  0.00    +0.000 NA
ATOM      4  C   UNL     1       2.402   6.240  19.550  0.00  0.00    +0.000 C 
ATOM      5  C   UNL     1       1.260   6.969  20.410  0.00  0.00    +0.000 C 
ATOM      6  N   UNL     1       1.242   8.369  20.145  0.00  0.00    +0.000 N 
ATOM      7  C   UNL     1       0.564   9.322  20.956  0.00  0.00    +0.000 A 
ATOM      8  N   UNL     1      -0.085   8.928  22.082  0.00  0.00    +0.000 NA
ATOM      9  C   UNL     1      -0.679   9.829  22.901  0.00  0.00    +0.000 A 
ATOM     10  C   UNL     1      -0.608  11.188  22.597  0.00  0.00    +0.000 A 
ATOM     11  F   UNL     1      -1.165  12.107  23.419  0.00  0.00    +0.000 F 
ATOM     12  C   UNL     1       0.070  11.582  21.444  0.00  0.00    +0.000 A 
ATOM     13  N   UNL     1       0.636  10.648  20.645  0.00  0.00    +0.000 NA
ATOM     14  C   UNL     1       2.003   8.775  19.046  0.00  0.00    +0.000 C 
ATOM     15  C   UNL     1       2.658   7.475  18.494  0.00  0.00    +0.000 C 
ATOM     16  C   UNL     1       3.759   7.227  17.332  0.00  0.00    +0.000 C 
ATOM     17  S   UNL     1       4.860   5.829  17.597  0.00  0.00    +0.000 S 
ATOM     18  H   UNL     1       3.285   2.709  18.652  0.00  0.00    +0.000 HD
ATOM     19  H   UNL     1       4.842   3.052  17.907  0.00  0.00    +0.000 HD
ENDROOT
BRANCH   4  20
ATOM     20  C   UNL     1       2.109   4.946  20.391  0.00  0.00    +0.000 A 
ATOM     21  C   UNL     1       2.929   4.252  21.277  0.00  0.00    +0.000 A 
ATOM     22  C   UNL     1       2.488   2.914  21.505  0.00  0.00    +0.000 A 
ATOM     23  N   UNL     1       1.345   2.518  20.890  0.00  0.00    +0.000 NA
ATOM     24  S   UNL     1       0.852   3.829  20.031  0.00  0.00    +0.000 S 
ENDBRANCH   4  20
TORSDOF 1
ENDMDL
MODEL 7
REMARK VINA RESULT:      -6.3      9.348     11.141
REMARK  Name = 
REMARK  1 active torsions:
REMARK  status: ('A' for Active; 'I' for Inactive)
REMARK    1  A    between atoms: C_4  and  C_5
REMARK                            x       y       z     vdW  Elec       q    Type
REMARK                         _______ _______ _______ _____ _____    ______ ____
ROOT
ATOM      1  N   UNL     1      10.911  16.003  16.235  0.00  0.00    +0.000 N 
ATOM      2  C   UNL     1       9.917  16.253  17.228  0.00  0.00    +0.000 C 
ATOM      3  N   UNL     1       9.265  15.242  17.734  0.00  0.00    +0.000 NA
ATOM      4  C   UNL     1       9.250  14.942  19.163  0.00  0.00    +0.000 C 
ATOM      5  C   UNL     1       8.591  13.808  20.087  0.00  0.00    +0.000 C 
ATOM      6  N   UNL     1       7.729  14.388  21.063  0.00  0.00    +0.000 N 
ATOM      7  C   UNL     1       7.240  13.693  22.205  0.00  0.00    +0.000 A 
ATOM      8  N   UNL     1       7.621  12.412  22.444  0.00  0.00    +0.000 NA
ATOM      9  C   UNL     1       7.220  11.755  23.559  0.00  0.00    +0.000 A 
ATOM     10  C   UNL     1       6.417  12.412  24.491  0.00  0.00    +0.000 A 
ATOM     11  F   UNL     1       6.033  11.788  25.629  0.00  0.00    +0.000 F 
ATOM     12  C   UNL     1       6.041  13.731  24.242  0.00  0.00    +0.000 A 
ATOM     13  N   UNL     1       6.452  14.343  23.107  0.00  0.00    +0.000 NA
ATOM     14  C   UNL     1       7.432  15.739  20.866  0.00  0.00    +0.000 C 
ATOM     15  C   UNL     1       8.222  16.154  19.589  0.00  0.00    +0.000 C 
ATOM     16  C   UNL     1       8.447  17.588  18.874  0.00  0.00    +0.000 C 
ATOM     17  S   UNL     1      10.031  17.801  18.048  0.00  0.00    +0.000 S 
ATOM     18  H   UNL     1      11.124  15.046  15.917  0.00  0.00    +0.000 HD
ATOM     19  H   UNL     1      11.585  16.743  15.981  0.00  0.00    +0.000 HD
ENDROOT
BRANCH   4  20
ATOM     20  C   UNL     1      10.165  13.817  18.559  0.00  0.00    +0.000 A 
ATOM     21  C   UNL     1       9.831  12.724  17.763  0.00  0.00    +0.000 A 
ATOM     22  C   UNL     1      10.830  11.705  17.777  0.00  0.00    +0.000 A 
ATOM     23  N   UNL     1      11.955  11.941  18.498  0.00  0.00    +0.000 NA
ATOM     24  S   UNL     1      11.733  13.431  19.153  0.00  0.00    +0.000 S 
ENDBRANCH   4  20
TORSDOF 1
ENDMDL
MODEL 8
REMARK VINA RESULT:      -6.2      1.265      1.351
REMARK  Name = 
REMARK  1 active torsions:
REMARK  status: ('A' for Active; 'I' for Inactive)
REMARK    1  A    between atoms: C_4  and  C_5
REMARK                            x       y       z     vdW  Elec       q    Type
REMARK                         _______ _______ _______ _____ _____    ______ ____
ROOT
ATOM      1  N   UNL     1       4.999   2.607  19.157  0.00  0.00    +0.000 N 
ATOM      2  C   UNL     1       3.970   3.371  19.785  0.00  0.00    +0.000 C 
ATOM      3  N   UNL     1       4.119   4.664  19.887  0.00  0.00    +0.000 NA
ATOM      4  C   UNL     1       3.166   5.619  19.329  0.00  0.00    +0.000 C 
ATOM      5  C   UNL     1       3.056   7.218  19.258  0.00  0.00    +0.000 C 
ATOM      6  N   UNL     1       1.855   7.671  19.875  0.00  0.00    +0.000 N 
ATOM      7  C   UNL     1       1.324   8.981  19.714  0.00  0.00    +0.000 A 
ATOM      8  N   UNL     1       1.942   9.878  18.903  0.00  0.00    +0.000 NA
ATOM      9  C   UNL     1       1.417  11.108  18.685  0.00  0.00    +0.000 A 
ATOM     10  C   UNL     1       0.209  11.456  19.288  0.00  0.00    +0.000 A 
ATOM     11  F   UNL     1      -0.351  12.665  19.057  0.00  0.00    +0.000 F 
ATOM     12  C   UNL     1      -0.423  10.524  20.110  0.00  0.00    +0.000 A 
ATOM     13  N   UNL     1       0.145   9.312  20.313  0.00  0.00    +0.000 NA
ATOM     14  C   UNL     1       1.169   6.707  20.619  0.00  0.00    +0.000 C 
ATOM     15  C   UNL     1       2.004   5.400  20.472  0.00  0.00    +0.000 C 
ATOM     16  C   UNL     1       1.726   3.879  20.951  0.00  0.00    +0.000 C 
ATOM     17  S   UNL     1       2.397   2.597  19.882  0.00  0.00    +0.000 S 
ATOM     18  H   UNL     1       5.848   3.056  18.782  0.00  0.00    +0.000 HD
ATOM     19  H   UNL     1       4.816   1.633  18.868  0.00  0.00    +0.000 HD
ENDROOT
BRANCH   4  20
ATOM     20  C   UNL     1       4.407   5.733  18.372  0.00  0.00    +0.000 A 
ATOM     21  C   UNL     1       5.768   5.685  18.663  0.00  0.00    +0.000 A 
ATOM     22  C   UNL     1       6.574   6.251  17.631  0.00  0.00    +0.000 A 
ATOM     23  N   UNL     1       5.941   6.704  16.519  0.00  0.00    +0.000 NA
ATOM     24  S   UNL     1       4.346   6.420  16.796  0.00  0.00    +0.000 S 
ENDBRANCH   4  20
TORSDOF 1
ENDMDL
MODEL 9
REMARK VINA RESULT:      -6.2      1.268      1.306
REMARK  Name = 
REMARK  1 active torsions:
REMARK  status: ('A' for Active; 'I' for Inactive)
REMARK    1  A    between atoms: C_4  and  C_5
REMARK                            x       y       z     vdW  Elec       q    Type
REMARK                         _______ _______ _______ _____ _____    ______ ____
ROOT
ATOM      1  N   UNL     1       5.413   3.243  18.486  0.00  0.00    +0.000 N 
ATOM      2  C   UNL     1       4.465   3.943  19.292  0.00  0.00    +0.000 C 
ATOM      3  N   UNL     1       4.471   5.248  19.279  0.00  0.00    +0.000 NA
ATOM      4  C   UNL     1       3.304   6.042  18.905  0.00  0.00    +0.000 C 
ATOM      5  C   UNL     1       2.981   7.608  18.768  0.00  0.00    +0.000 C 
ATOM      6  N   UNL     1       1.904   7.980  19.622  0.00  0.00    +0.000 N 
ATOM      7  C   UNL     1       1.190   9.207  19.513  0.00  0.00    +0.000 A 
ATOM      8  N   UNL     1       1.491  10.091  18.527  0.00  0.00    +0.000 NA
ATOM      9  C   UNL     1       0.781  11.233  18.366  0.00  0.00    +0.000 A 
ATOM     10  C   UNL     1      -0.294  11.499  19.215  0.00  0.00    +0.000 A 
ATOM     11  F   UNL     1      -1.039  12.617  19.050  0.00  0.00    +0.000 F 
ATOM     12  C   UNL     1      -0.601  10.579  20.216  0.00  0.00    +0.000 A 
ATOM     13  N   UNL     1       0.145   9.459  20.351  0.00  0.00    +0.000 NA
ATOM     14  C   UNL     1       1.531   7.016  20.562  0.00  0.00    +0.000 C 
ATOM     15  C   UNL     1       2.467   5.799  20.301  0.00  0.00    +0.000 C 
ATOM     16  C   UNL     1       2.498   4.304  20.921  0.00  0.00    +0.000 C 
ATOM     17  S   UNL     1       3.066   3.014  19.801  0.00  0.00    +0.000 S 
ATOM     18  H   UNL     1       6.091   3.747  17.895  0.00  0.00    +0.000 HD
ATOM     19  H   UNL     1       5.293   2.233  18.306  0.00  0.00    +0.000 HD
ENDROOT
BRANCH   4  20
ATOM     20  C   UNL     1       4.271   6.206  17.678  0.00  0.00    +0.000 A 
ATOM     21  C   UNL     1       4.273   5.554  16.447  0.00  0.00    +0.000 A 
ATOM     22  C   UNL     1       5.529   5.642  15.777  0.00  0.00    +0.000 A 
ATOM     23  N   UNL     1       6.510   6.362  16.378  0.00  0.00    +0.000 NA
ATOM     24  S   UNL     1       5.840   6.905  17.776  0.00  0.00    +0.000 S 
ENDBRANCH   4  20
TORSDOF 1
ENDMDL
