MODEL 1
REMARK VINA RESULT:      -8.1      0.000      0.000
REMARK  Name = 
REMARK  2 active torsions:
REMARK  status: ('A' for Active; 'I' for Inactive)
REMARK    1  A    between atoms: C_2  and  C_3
REMARK    2  A    between atoms: C_17  and  C_18
REMARK                            x       y       z     vdW  Elec       q    Type
REMARK                         _______ _______ _______ _____ _____    ______ ____
ROOT
ATOM      1  O   UNL     1       4.977   6.566  17.399  0.00  0.00    +0.000 OA
ATOM      2  C   UNL     1       3.845   6.182  17.690  0.00  0.00    +0.000 C 
ATOM      3  N   UNL     1       3.407   4.882  17.412  0.00  0.00    +0.000 N 
ATOM      4  C   UNL     1       4.300   3.883  16.831  0.00  0.00    +0.000 C 
ATOM      5  C   UNL     1       4.070   2.633  17.690  0.00  0.00    +0.000 C 
ATOM      6  C   UNL     1       2.634   2.750  18.125  0.00  0.00    +0.000 C 
ATOM      7  C   UNL     1       2.259   4.214  17.990  0.00  0.00    +0.000 C 
ATOM      8  C   UNL     1       2.230   3.555  19.341  0.00  0.00    +0.000 C 
ENDROOT
BRANCH   2   9
ATOM      9  C   UNL     1       2.904   7.070  18.406  0.00  0.00    +0.000 A 
ATOM     10  C   UNL     1       2.217   8.190  17.864  0.00  0.00    +0.000 A 
ATOM     11  C   UNL     1       1.559   8.765  18.925  0.00  0.00    +0.000 A 
ATOM     12  N   UNL     1       1.803   7.945  19.982  0.00  0.00    +0.000 N 
ATOM     13  N   UNL     1       2.594   6.902  19.703  0.00  0.00    +0.000 NA
ATOM     14  C   UNL     1       1.381   8.183  21.333  0.00  0.00    +0.000 C 
ATOM     15  C   UNL     1       0.458   9.380  21.467  0.00  0.00    +0.000 C 
ATOM     16  C   UNL     1       0.017  10.041  20.160  0.00  0.00    +0.000 C 
ATOM     17  O   UNL     1       0.880   9.903  19.032  0.00  0.00    +0.000 OA
ENDBRANCH   2   9
BRANCH   8  18
ATOM     18  C   UNL     1       0.928   3.297  20.014  0.00  0.00    +0.000 C 
ATOM     19  F   UNL     1       0.309   4.450  20.367  0.00  0.00    +0.000 F 
ATOM     20  F   UNL     1       0.092   2.625  19.189  0.00  0.00    +0.000 F 
ATOM     21  F   UNL     1       1.083   2.555  21.134  0.00  0.00    +0.000 F 
ENDBRANCH   8  18
TORSDOF 2
ENDMDL
MODEL 2
REMARK VINA RESULT:      -7.8      0.967      1.557
REMARK  Name = 
REMARK  2 active torsions:
REMARK  status: ('A' for Active; 'I' for Inactive)
REMARK    1  A    between atoms: C_2  and  C_3
REMARK    2  A    between atoms: C_17  and  C_18
REMARK                            x       y       z     vdW  Elec       q    Type
REMARK                         _______ _______ _______ _____ _____    ______ ____
ROOT
ATOM      1  O   UNL     1       5.081   6.296  17.397  0.00  0.00    +0.000 OA
ATOM      2  C   UNL     1       3.934   5.980  17.712  0.00  0.00    +0.000 C 
ATOM      3  N   UNL     1       3.410   4.713  17.433  0.00  0.00    +0.000 N 
ATOM      4  C   UNL     1       4.224   3.667  16.820  0.00  0.00    +0.000 C 
ATOM      5  C   UNL     1       3.939   2.424  17.671  0.00  0.00    +0.000 C 
ATOM      6  C   UNL     1       2.523   2.624  18.143  0.00  0.00    +0.000 C 
ATOM      7  C   UNL     1       2.237   4.110  18.032  0.00  0.00    +0.000 C 
ATOM      8  C   UNL     1       2.200   3.439  19.378  0.00  0.00    +0.000 C 
ENDROOT
BRANCH   2   9
ATOM      9  C   UNL     1       3.068   6.916  18.461  0.00  0.00    +0.000 A 
ATOM     10  C   UNL     1       2.668   6.796  19.820  0.00  0.00    +0.000 A 
ATOM     11  C   UNL     1       1.781   7.825  20.033  0.00  0.00    +0.000 A 
ATOM     12  N   UNL     1       1.765   8.527  18.868  0.00  0.00    +0.000 N 
ATOM     13  N   UNL     1       2.543   8.021  17.905  0.00  0.00    +0.000 NA
ATOM     14  C   UNL     1       0.920   9.653  18.589  0.00  0.00    +0.000 C 
ATOM     15  C   UNL     1       0.136  10.125  19.800  0.00  0.00    +0.000 C 
ATOM     16  C   UNL     1       0.467   9.439  21.127  0.00  0.00    +0.000 C 
ATOM     17  O   UNL     1       0.997   8.116  21.067  0.00  0.00    +0.000 OA
ENDBRANCH   2   9
BRANCH   8  18
ATOM     18  C   UNL     1       0.901   3.254  20.080  0.00  0.00    +0.000 C 
ATOM     19  F   UNL     1       1.051   2.569  21.240  0.00  0.00    +0.000 F 
ATOM     20  F   UNL     1       0.351   4.452  20.387  0.00  0.00    +0.000 F 
ATOM     21  F   UNL     1       0.012   2.579  19.318  0.00  0.00    +0.000 F 
ENDBRANCH   8  18
TORSDOF 2
ENDMDL
MODEL 3
REMARK VINA RESULT:      -7.4      3.112      4.957
REMARK  Name = 
REMARK  2 active torsions:
REMARK  status: ('A' for Active; 'I' for Inactive)
REMARK    1  A    between atoms: C_2  and  C_3
REMARK    2  A    between atoms: C_17  and  C_18
REMARK                            x       y       z     vdW  Elec       q    Type
REMARK                         _______ _______ _______ _____ _____    ______ ____
ROOT
ATOM      1  O   UNL     1       4.798   2.029  19.731  0.00  0.00    +0.000 OA
ATOM      2  C   UNL     1       4.257   3.087  19.412  0.00  0.00    +0.000 C 
ATOM      3  N   UNL     1       2.872   3.268  19.495  0.00  0.00    +0.000 N 
ATOM      4  C   UNL     1       1.998   2.233  20.042  0.00  0.00    +0.000 C 
ATOM      5  C   UNL     1       1.082   2.992  21.010  0.00  0.00    +0.000 C 
ATOM      6  C   UNL     1       0.967   4.364  20.402  0.00  0.00    +0.000 C 
ATOM      7  C   UNL     1       2.161   4.530  19.481  0.00  0.00    +0.000 C 
ATOM      8  C   UNL     1       1.995   5.444  20.664  0.00  0.00    +0.000 C 
ENDROOT
BRANCH   2   9
ATOM      9  C   UNL     1       5.061   4.249  18.975  0.00  0.00    +0.000 A 
ATOM     10  C   UNL     1       4.832   5.052  17.824  0.00  0.00    +0.000 A 
ATOM     11  C   UNL     1       5.894   5.924  17.770  0.00  0.00    +0.000 A 
ATOM     12  N   UNL     1       6.624   5.667  18.889  0.00  0.00    +0.000 N 
ATOM     13  N   UNL     1       6.142   4.677  19.649  0.00  0.00    +0.000 NA
ATOM     14  C   UNL     1       7.875   6.283  19.224  0.00  0.00    +0.000 C 
ATOM     15  C   UNL     1       8.255   7.413  18.284  0.00  0.00    +0.000 C 
ATOM     16  C   UNL     1       7.205   7.803  17.241  0.00  0.00    +0.000 C 
ATOM     17  O   UNL     1       6.271   6.800  16.844  0.00  0.00    +0.000 OA
ENDBRANCH   2   9
BRANCH   8  18
ATOM     18  C   UNL     1       1.650   6.876  20.454  0.00  0.00    +0.000 C 
ATOM     19  F   UNL     1       2.493   7.698  21.126  0.00  0.00    +0.000 F 
ATOM     20  F   UNL     1       1.732   7.197  19.142  0.00  0.00    +0.000 F 
ATOM     21  F   UNL     1       0.393   7.153  20.866  0.00  0.00    +0.000 F 
ENDBRANCH   8  18
TORSDOF 2
ENDMDL
MODEL 4
REMARK VINA RESULT:      -7.2      0.976      1.062
REMARK  Name = 
REMARK  2 active torsions:
REMARK  status: ('A' for Active; 'I' for Inactive)
REMARK    1  A    between atoms: C_2  and  C_3
REMARK    2  A    between atoms: C_17  and  C_18
REMARK                            x       y       z     vdW  Elec       q    Type
REMARK                         _______ _______ _______ _____ _____    ______ ____
ROOT
ATOM      1  O   UNL     1       5.652   5.990  18.286  0.00  0.00    +0.000 OA
ATOM      2  C   UNL     1       4.467   5.671  18.372  0.00  0.00    +0.000 C 
ATOM      3  N   UNL     1       4.054   4.335  18.341  0.00  0.00    +0.000 N 
ATOM      4  C   UNL     1       5.016   3.238  18.283  0.00  0.00    +0.000 C 
ATOM      5  C   UNL     1       4.524   2.253  19.349  0.00  0.00    +0.000 C 
ATOM      6  C   UNL     1       3.031   2.448  19.363  0.00  0.00    +0.000 C 
ATOM      7  C   UNL     1       2.769   3.816  18.764  0.00  0.00    +0.000 C 
ATOM      8  C   UNL     1       2.375   3.535  20.188  0.00  0.00    +0.000 C 
ENDROOT
BRANCH   2   9
ATOM      9  C   UNL     1       3.419   6.695  18.574  0.00  0.00    +0.000 A 
ATOM     10  C   UNL     1       2.944   7.622  17.606  0.00  0.00    +0.000 A 
ATOM     11  C   UNL     1       2.067   8.439  18.281  0.00  0.00    +0.000 A 
ATOM     12  N   UNL     1       2.000   7.926  19.538  0.00  0.00    +0.000 N 
ATOM     13  N   UNL     1       2.785   6.863  19.747  0.00  0.00    +0.000 NA
ATOM     14  C   UNL     1       1.263   8.497  20.629  0.00  0.00    +0.000 C 
ATOM     15  C   UNL     1       0.392   9.669  20.213  0.00  0.00    +0.000 C 
ATOM     16  C   UNL     1       0.326   9.959  18.712  0.00  0.00    +0.000 C 
ATOM     17  O   UNL     1       1.438   9.551  17.916  0.00  0.00    +0.000 OA
ENDBRANCH   2   9
BRANCH   8  18
ATOM     18  C   UNL     1       0.937   3.433  20.555  0.00  0.00    +0.000 C 
ATOM     19  F   UNL     1       0.363   4.655  20.677  0.00  0.00    +0.000 F 
ATOM     20  F   UNL     1       0.250   2.757  19.604  0.00  0.00    +0.000 F 
ATOM     21  F   UNL     1       0.764   2.780  21.726  0.00  0.00    +0.000 F 
ENDBRANCH   8  18
TORSDOF 2
ENDMDL
MODEL 5
REMARK VINA RESULT:      -7.2      3.475      6.009
REMARK  Name = 
REMARK  2 active torsions:
REMARK  status: ('A' for Active; 'I' for Inactive)
REMARK    1  A    between atoms: C_2  and  C_3
REMARK    2  A    between atoms: C_17  and  C_18
REMARK                            x       y       z     vdW  Elec       q    Type
REMARK                         _______ _______ _______ _____ _____    ______ ____
ROOT
ATOM      1  O   UNL     1       4.907   2.353  20.081  0.00  0.00    +0.000 OA
ATOM      2  C   UNL     1       4.394   3.168  19.314  0.00  0.00    +0.000 C 
ATOM      3  N   UNL     1       3.134   3.725  19.556  0.00  0.00    +0.000 N 
ATOM      4  C   UNL     1       2.388   3.427  20.776  0.00  0.00    +0.000 C 
ATOM      5  C   UNL     1       1.908   4.799  21.264  0.00  0.00    +0.000 C 
ATOM      6  C   UNL     1       1.734   5.595  19.998  0.00  0.00    +0.000 C 
ATOM      7  C   UNL     1       2.579   4.913  18.939  0.00  0.00    +0.000 C 
ATOM      8  C   UNL     1       2.890   6.326  19.348  0.00  0.00    +0.000 C 
ENDROOT
BRANCH   2   9
ATOM      9  C   UNL     1       5.122   3.645  18.118  0.00  0.00    +0.000 A 
ATOM     10  C   UNL     1       6.217   4.552  18.099  0.00  0.00    +0.000 A 
ATOM     11  C   UNL     1       6.477   4.784  16.769  0.00  0.00    +0.000 A 
ATOM     12  N   UNL     1       5.621   3.972  16.092  0.00  0.00    +0.000 N 
ATOM     13  N   UNL     1       4.802   3.257  16.872  0.00  0.00    +0.000 NA
ATOM     14  C   UNL     1       5.473   3.927  14.666  0.00  0.00    +0.000 C 
ATOM     15  C   UNL     1       6.505   4.763  13.931  0.00  0.00    +0.000 C 
ATOM     16  C   UNL     1       7.602   5.391  14.795  0.00  0.00    +0.000 C 
ATOM     17  O   UNL     1       7.294   5.642  16.166  0.00  0.00    +0.000 OA
ENDBRANCH   2   9
BRANCH   8  18
ATOM     18  C   UNL     1       2.633   7.446  18.403  0.00  0.00    +0.000 C 
ATOM     19  F   UNL     1       3.736   7.753  17.678  0.00  0.00    +0.000 F 
ATOM     20  F   UNL     1       1.653   7.116  17.530  0.00  0.00    +0.000 F 
ATOM     21  F   UNL     1       2.244   8.567  19.051  0.00  0.00    +0.000 F 
ENDBRANCH   8  18
TORSDOF 2
ENDMDL
MODEL 6
REMARK VINA RESULT:      -7.1      2.500      5.398
REMARK  Name = 
REMARK  2 active torsions:
REMARK  status: ('A' for Active; 'I' for Inactive)
REMARK    1  A    between atoms: C_2  and  C_3
REMARK    2  A    between atoms: C_17  and  C_18
REMARK                            x       y       z     vdW  Elec       q    Type
REMARK                         _______ _______ _______ _____ _____    ______ ____
ROOT
ATOM      1  O   UNL     1       2.740   7.633  18.399  0.00  0.00    +0.000 OA
ATOM      2  C   UNL     1       3.321   6.559  18.548  0.00  0.00    +0.000 C 
ATOM      3  N   UNL     1       3.019   5.690  19.602  0.00  0.00    +0.000 N 
ATOM      4  C   UNL     1       1.938   5.976  20.542  0.00  0.00    +0.000 C 
ATOM      5  C   UNL     1       1.170   4.652  20.641  0.00  0.00    +0.000 C 
ATOM      6  C   UNL     1       2.225   3.602  20.416  0.00  0.00    +0.000 C 
ATOM      7  C   UNL     1       3.370   4.288  19.696  0.00  0.00    +0.000 C 
ATOM      8  C   UNL     1       2.632   3.163  19.026  0.00  0.00    +0.000 C 
ENDROOT
BRANCH   2   9
ATOM      9  C   UNL     1       4.338   6.106  17.574  0.00  0.00    +0.000 A 
ATOM     10  C   UNL     1       5.684   6.555  17.486  0.00  0.00    +0.000 A 
ATOM     11  C   UNL     1       6.201   5.945  16.367  0.00  0.00    +0.000 A 
ATOM     12  N   UNL     1       5.209   5.132  15.915  0.00  0.00    +0.000 N 
ATOM     13  N   UNL     1       4.078   5.187  16.628  0.00  0.00    +0.000 NA
ATOM     14  C   UNL     1       5.261   4.347  14.715  0.00  0.00    +0.000 C 
ATOM     15  C   UNL     1       6.625   4.361  14.051  0.00  0.00    +0.000 C 
ATOM     16  C   UNL     1       7.741   5.072  14.820  0.00  0.00    +0.000 C 
ATOM     17  O   UNL     1       7.358   6.101  15.730  0.00  0.00    +0.000 OA
ENDBRANCH   2   9
BRANCH   8  18
ATOM     18  C   UNL     1       3.304   1.851  18.820  0.00  0.00    +0.000 C 
ATOM     19  F   UNL     1       3.829   1.747  17.574  0.00  0.00    +0.000 F 
ATOM     20  F   UNL     1       4.319   1.694  19.700  0.00  0.00    +0.000 F 
ATOM     21  F   UNL     1       2.448   0.818  18.992  0.00  0.00    +0.000 F 
ENDBRANCH   8  18
TORSDOF 2
ENDMDL
MODEL 7
REMARK VINA RESULT:      -7.1      3.175      4.846
REMARK  Name = 
REMARK  2 active torsions:
REMARK  status: ('A' for Active; 'I' for Inactive)
REMARK    1  A    between atoms: C_2  and  C_3
REMARK    2  A    between atoms: C_17  and  C_18
REMARK                            x       y       z     vdW  Elec       q    Type
REMARK                         _______ _______ _______ _____ _____    ______ ____
ROOT
ATOM      1  O   UNL     1       4.125   1.626  17.856  0.00  0.00    +0.000 OA
ATOM      2  C   UNL     1       3.728   2.781  18.007  0.00  0.00    +0.000 C 
ATOM      3  N   UNL     1       2.390   3.075  18.290  0.00  0.00    +0.000 N 
ATOM      4  C   UNL     1       1.403   2.019  18.502  0.00  0.00    +0.000 C 
ATOM      5  C   UNL     1       0.657   2.453  19.769  0.00  0.00    +0.000 C 
ATOM      6  C   UNL     1       0.711   3.958  19.725  0.00  0.00    +0.000 C 
ATOM      7  C   UNL     1       1.869   4.321  18.815  0.00  0.00    +0.000 C 
ATOM      8  C   UNL     1       1.897   4.730  20.262  0.00  0.00    +0.000 C 
ENDROOT
BRANCH   2   9
ATOM      9  C   UNL     1       4.669   3.920  17.951  0.00  0.00    +0.000 A 
ATOM     10  C   UNL     1       4.792   4.865  16.896  0.00  0.00    +0.000 A 
ATOM     11  C   UNL     1       5.867   5.654  17.235  0.00  0.00    +0.000 A 
ATOM     12  N   UNL     1       6.257   5.216  18.462  0.00  0.00    +0.000 N 
ATOM     13  N   UNL     1       5.546   4.185  18.934  0.00  0.00    +0.000 NA
ATOM     14  C   UNL     1       7.398   5.693  19.189  0.00  0.00    +0.000 C 
ATOM     15  C   UNL     1       8.064   6.890  18.537  0.00  0.00    +0.000 C 
ATOM     16  C   UNL     1       7.351   7.476  17.317  0.00  0.00    +0.000 C 
ATOM     17  O   UNL     1       6.515   6.600  16.562  0.00  0.00    +0.000 OA
ENDBRANCH   2   9
BRANCH   8  18
ATOM     18  C   UNL     1       1.753   6.164  20.631  0.00  0.00    +0.000 C 
ATOM     19  F   UNL     1       0.454   6.507  20.816  0.00  0.00    +0.000 F 
ATOM     20  F   UNL     1       2.408   6.426  21.786  0.00  0.00    +0.000 F 
ATOM     21  F   UNL     1       2.260   6.980  19.679  0.00  0.00    +0.000 F 
ENDBRANCH   8  18
TORSDOF 2
ENDMDL
MODEL 8
REMARK VINA RESULT:      -6.7      3.521      5.947
REMARK  Name = 
REMARK  2 active torsions:
REMARK  status: ('A' for Active; 'I' for Inactive)
REMARK    1  A    between atoms: C_2  and  C_3
REMARK    2  A    between atoms: C_17  and  C_18
REMARK                            x       y       z     vdW  Elec       q    Type
REMARK                         _______ _______ _______ _____ _____    ______ ____
ROOT
ATOM      1  O   UNL     1       4.848   2.126  20.094  0.00  0.00    +0.000 OA
ATOM      2  C   UNL     1       4.266   2.962  19.403  0.00  0.00    +0.000 C 
ATOM      3  N   UNL     1       3.038   3.514  19.783  0.00  0.00    +0.000 N 
ATOM      4  C   UNL     1       2.415   3.185  21.063  0.00  0.00    +0.000 C 
ATOM      5  C   UNL     1       1.992   4.545  21.632  0.00  0.00    +0.000 C 
ATOM      6  C   UNL     1       1.697   5.374  20.410  0.00  0.00    +0.000 C 
ATOM      7  C   UNL     1       2.430   4.718  19.256  0.00  0.00    +0.000 C 
ATOM      8  C   UNL     1       2.786   6.120  19.668  0.00  0.00    +0.000 C 
ENDROOT
BRANCH   2   9
ATOM      9  C   UNL     1       4.874   3.469  18.154  0.00  0.00    +0.000 A 
ATOM     10  C   UNL     1       4.381   3.278  16.835  0.00  0.00    +0.000 A 
ATOM     11  C   UNL     1       5.333   3.823  16.005  0.00  0.00    +0.000 A 
ATOM     12  N   UNL     1       6.261   4.366  16.838  0.00  0.00    +0.000 N 
ATOM     13  N   UNL     1       6.008   4.190  18.140  0.00  0.00    +0.000 NA
ATOM     14  C   UNL     1       7.488   4.983  16.424  0.00  0.00    +0.000 C 
ATOM     15  C   UNL     1       7.598   5.143  14.918  0.00  0.00    +0.000 C 
ATOM     16  C   UNL     1       6.355   4.765  14.109  0.00  0.00    +0.000 C 
ATOM     17  O   UNL     1       5.465   3.809  14.683  0.00  0.00    +0.000 OA
ENDBRANCH   2   9
BRANCH   8  18
ATOM     18  C   UNL     1       2.441   7.265  18.783  0.00  0.00    +0.000 C 
ATOM     19  F   UNL     1       3.534   7.752  18.145  0.00  0.00    +0.000 F 
ATOM     20  F   UNL     1       1.556   6.883  17.834  0.00  0.00    +0.000 F 
ATOM     21  F   UNL     1       1.884   8.283  19.477  0.00  0.00    +0.000 F 
ENDBRANCH   8  18
TORSDOF 2
ENDMDL
MODEL 9
REMARK VINA RESULT:      -6.5      3.197      3.926
REMARK  Name = 
REMARK  2 active torsions:
REMARK  status: ('A' for Active; 'I' for Inactive)
REMARK    1  A    between atoms: C_2  and  C_3
REMARK    2  A    between atoms: C_17  and  C_18
REMARK                            x       y       z     vdW  Elec       q    Type
REMARK                         _______ _______ _______ _____ _____    ______ ____
ROOT
ATOM      1  O   UNL     1       1.243   4.516  20.804  0.00  0.00    +0.000 OA
ATOM      2  C   UNL     1       2.121   5.224  20.312  0.00  0.00    +0.000 C 
ATOM      3  N   UNL     1       3.339   4.697  19.870  0.00  0.00    +0.000 N 
ATOM      4  C   UNL     1       3.606   3.261  19.896  0.00  0.00    +0.000 C 
ATOM      5  C   UNL     1       4.196   2.966  18.512  0.00  0.00    +0.000 C 
ATOM      6  C   UNL     1       4.904   4.241  18.139  0.00  0.00    +0.000 C 
ATOM      7  C   UNL     1       4.290   5.339  18.985  0.00  0.00    +0.000 C 
ATOM      8  C   UNL     1       4.177   5.397  17.487  0.00  0.00    +0.000 C 
ENDROOT
BRANCH   2   9
ATOM      9  C   UNL     1       1.902   6.673  20.110  0.00  0.00    +0.000 A 
ATOM     10  C   UNL     1       1.441   7.602  21.082  0.00  0.00    +0.000 A 
ATOM     11  C   UNL     1       1.283   8.790  20.406  0.00  0.00    +0.000 A 
ATOM     12  N   UNL     1       1.722   8.541  19.143  0.00  0.00    +0.000 N 
ATOM     13  N   UNL     1       2.121   7.282  18.932  0.00  0.00    +0.000 NA
ATOM     14  C   UNL     1       1.675   9.470  18.050  0.00  0.00    +0.000 C 
ATOM     15  C   UNL     1       1.240  10.863  18.469  0.00  0.00    +0.000 C 
ATOM     16  C   UNL     1       1.063  11.090  19.972  0.00  0.00    +0.000 C 
ATOM     17  O   UNL     1       0.754   9.952  20.775  0.00  0.00    +0.000 OA
ENDBRANCH   2   9
BRANCH   8  18
ATOM     18  C   UNL     1       4.935   6.426  16.724  0.00  0.00    +0.000 C 
ATOM     19  F   UNL     1       5.265   5.988  15.484  0.00  0.00    +0.000 F 
ATOM     20  F   UNL     1       4.192   7.547  16.572  0.00  0.00    +0.000 F 
ATOM     21  F   UNL     1       6.079   6.774  17.354  0.00  0.00    +0.000 F 
ENDBRANCH   8  18
TORSDOF 2
ENDMDL
