MODEL 1
REMARK VINA RESULT:      -6.6      0.000      0.000
REMARK  Name = 
REMARK  7 active torsions:
REMARK  status: ('A' for Active; 'I' for Inactive)
REMARK    1  A    between atoms: C_1  and  C_2
REMARK    2  A    between atoms: N_4  and  O_5
REMARK    3  A    between atoms: N_4  and  C_6
REMARK    4  A    between atoms: C_6  and  C_7
REMARK    5  A    between atoms: C_7  and  C_8
REMARK    6  A    between atoms: C_8  and  C_9
REMARK    7  A    between atoms: C_9  and  C_10
REMARK                            x       y       z     vdW  Elec       q    Type
REMARK                         _______ _______ _______ _____ _____    ______ ____
ROOT
ATOM      1  C   UNL     1       5.155   5.536  18.356  0.00  0.00    +0.000 C 
ENDROOT
BRANCH   1   2
ATOM      2  C   UNL     1       5.567   4.338  17.507  0.00  0.00    +0.000 C 
BRANCH   2   6
ATOM      3  C   UNL     1       5.546   4.385  14.619  0.00  0.00    +0.000 C 
ATOM      4  C   UNL     1       6.772   4.779  15.398  0.00  0.00    +0.000 C 
ATOM      5  O   UNL     1       7.688   5.413  14.882  0.00  0.00    +0.000 OA
ATOM      6  N   UNL     1       6.802   4.432  16.750  0.00  0.00    +0.000 N 
BRANCH   6   7
ATOM      7  O   UNL     1       7.810   5.161  17.447  0.00  0.00    +0.000 OA
ATOM      8  H   UNL     1       7.750   4.783  18.353  0.00  0.00    +0.000 HD
ENDBRANCH   6   7
ENDBRANCH   2   6
ENDBRANCH   1   2
BRANCH   1   9
ATOM      9  C   UNL     1       4.204   6.499  17.616  0.00  0.00    +0.000 C 
BRANCH   9  10
ATOM     10  C   UNL     1       2.751   6.576  18.132  0.00  0.00    +0.000 C 
BRANCH  10  11
ATOM     11  C   UNL     1       2.199   5.300  18.724  0.00  0.00    +0.000 A 
ATOM     12  C   UNL     1       1.836   4.219  17.907  0.00  0.00    +0.000 A 
ATOM     13  C   UNL     1       1.173   3.114  18.447  0.00  0.00    +0.000 A 
ATOM     14  C   UNL     1       0.896   3.062  19.811  0.00  0.00    +0.000 A 
ATOM     15  C   UNL     1       1.298   4.105  20.642  0.00  0.00    +0.000 A 
ATOM     16  C   UNL     1       1.959   5.212  20.106  0.00  0.00    +0.000 A 
ENDBRANCH  10  11
ENDBRANCH   9  10
ENDBRANCH   1   9
TORSDOF 6
ENDMDL
MODEL 2
REMARK VINA RESULT:      -6.5      0.550      1.359
REMARK  Name = 
REMARK  7 active torsions:
REMARK  status: ('A' for Active; 'I' for Inactive)
REMARK    1  A    between atoms: C_1  and  C_2
REMARK    2  A    between atoms: N_4  and  O_5
REMARK    3  A    between atoms: N_4  and  C_6
REMARK    4  A    between atoms: C_6  and  C_7
REMARK    5  A    between atoms: C_7  and  C_8
REMARK    6  A    between atoms: C_8  and  C_9
REMARK    7  A    between atoms: C_9  and  C_10
REMARK                            x       y       z     vdW  Elec       q    Type
REMARK                         _______ _______ _______ _____ _____    ______ ____
ROOT
ATOM      1  C   UNL     1       5.082   4.853  17.841  0.00  0.00    +0.000 C 
ENDROOT
BRANCH   1   2
ATOM      2  C   UNL     1       5.716   3.964  16.775  0.00  0.00    +0.000 C 
BRANCH   2   6
ATOM      3  C   UNL     1       6.059   3.948  13.907  0.00  0.00    +0.000 C 
ATOM      4  C   UNL     1       7.003   4.705  14.803  0.00  0.00    +0.000 C 
ATOM      5  O   UNL     1       7.751   5.573  14.365  0.00  0.00    +0.000 OA
ATOM      6  N   UNL     1       6.957   4.408  16.166  0.00  0.00    +0.000 N 
BRANCH   6   7
ATOM      7  O   UNL     1       7.606   5.418  16.936  0.00  0.00    +0.000 OA
ATOM      8  H   UNL     1       6.983   6.175  16.853  0.00  0.00    +0.000 HD
ENDBRANCH   6   7
ENDBRANCH   2   6
ENDBRANCH   1   2
BRANCH   1   9
ATOM      9  C   UNL     1       4.131   5.914  17.250  0.00  0.00    +0.000 C 
BRANCH   9  10
ATOM     10  C   UNL     1       2.934   6.342  18.126  0.00  0.00    +0.000 C 
BRANCH  10  11
ATOM     11  C   UNL     1       2.157   5.214  18.766  0.00  0.00    +0.000 A 
ATOM     12  C   UNL     1       2.045   5.109  20.160  0.00  0.00    +0.000 A 
ATOM     13  C   UNL     1       1.472   3.976  20.742  0.00  0.00    +0.000 A 
ATOM     14  C   UNL     1       0.976   2.951  19.938  0.00  0.00    +0.000 A 
ATOM     15  C   UNL     1       1.035   3.066  18.551  0.00  0.00    +0.000 A 
ATOM     16  C   UNL     1       1.608   4.197  17.966  0.00  0.00    +0.000 A 
ENDBRANCH  10  11
ENDBRANCH   9  10
ENDBRANCH   1   9
TORSDOF 6
ENDMDL
MODEL 3
REMARK VINA RESULT:      -6.4      1.476      2.433
REMARK  Name = 
REMARK  7 active torsions:
REMARK  status: ('A' for Active; 'I' for Inactive)
REMARK    1  A    between atoms: C_1  and  C_2
REMARK    2  A    between atoms: N_4  and  O_5
REMARK    3  A    between atoms: N_4  and  C_6
REMARK    4  A    between atoms: C_6  and  C_7
REMARK    5  A    between atoms: C_7  and  C_8
REMARK    6  A    between atoms: C_8  and  C_9
REMARK    7  A    between atoms: C_9  and  C_10
REMARK                            x       y       z     vdW  Elec       q    Type
REMARK                         _______ _______ _______ _____ _____    ______ ____
ROOT
ATOM      1  C   UNL     1       4.804   6.775  16.679  0.00  0.00    +0.000 C 
ENDROOT
BRANCH   1   2
ATOM      2  C   UNL     1       6.153   7.124  17.301  0.00  0.00    +0.000 C 
BRANCH   2   6
ATOM      3  C   UNL     1       7.399   5.510  19.347  0.00  0.00    +0.000 C 
ATOM      4  C   UNL     1       7.669   5.266  17.886  0.00  0.00    +0.000 C 
ATOM      5  O   UNL     1       8.166   4.217  17.488  0.00  0.00    +0.000 OA
ATOM      6  N   UNL     1       7.286   6.270  16.995  0.00  0.00    +0.000 N 
BRANCH   6   7
ATOM      7  O   UNL     1       7.251   5.785  15.655  0.00  0.00    +0.000 OA
ATOM      8  H   UNL     1       7.334   4.813  15.784  0.00  0.00    +0.000 HD
ENDBRANCH   6   7
ENDBRANCH   2   6
ENDBRANCH   1   2
BRANCH   1   9
ATOM      9  C   UNL     1       4.068   5.649  17.434  0.00  0.00    +0.000 C 
BRANCH   9  10
ATOM     10  C   UNL     1       2.640   5.961  17.931  0.00  0.00    +0.000 C 
BRANCH  10  11
ATOM     11  C   UNL     1       2.015   4.912  18.822  0.00  0.00    +0.000 A 
ATOM     12  C   UNL     1       2.085   5.012  20.219  0.00  0.00    +0.000 A 
ATOM     13  C   UNL     1       1.655   3.958  21.027  0.00  0.00    +0.000 A 
ATOM     14  C   UNL     1       1.121   2.807  20.451  0.00  0.00    +0.000 A 
ATOM     15  C   UNL     1       0.998   2.716  19.066  0.00  0.00    +0.000 A 
ATOM     16  C   UNL     1       1.429   3.768  18.255  0.00  0.00    +0.000 A 
ENDBRANCH  10  11
ENDBRANCH   9  10
ENDBRANCH   1   9
TORSDOF 6
ENDMDL
MODEL 4
REMARK VINA RESULT:      -6.4      1.528      2.149
REMARK  Name = 
REMARK  7 active torsions:
REMARK  status: ('A' for Active; 'I' for Inactive)
REMARK    1  A    between atoms: C_1  and  C_2
REMARK    2  A    between atoms: N_4  and  O_5
REMARK    3  A    between atoms: N_4  and  C_6
REMARK    4  A    between atoms: C_6  and  C_7
REMARK    5  A    between atoms: C_7  and  C_8
REMARK    6  A    between atoms: C_8  and  C_9
REMARK    7  A    between atoms: C_9  and  C_10
REMARK                            x       y       z     vdW  Elec       q    Type
REMARK                         _______ _______ _______ _____ _____    ______ ____
ROOT
ATOM      1  C   UNL     1       4.572   5.223  16.884  0.00  0.00    +0.000 C 
ENDROOT
BRANCH   1   2
ATOM      2  C   UNL     1       5.984   5.616  16.462  0.00  0.00    +0.000 C 
BRANCH   2   6
ATOM      3  C   UNL     1       7.614   7.733  17.562  0.00  0.00    +0.000 C 
ATOM      4  C   UNL     1       7.636   6.345  18.146  0.00  0.00    +0.000 C 
ATOM      5  O   UNL     1       8.090   6.123  19.265  0.00  0.00    +0.000 OA
ATOM      6  N   UNL     1       7.075   5.325  17.376  0.00  0.00    +0.000 N 
BRANCH   6   7
ATOM      7  O   UNL     1       6.824   4.163  18.163  0.00  0.00    +0.000 OA
ATOM      8  H   UNL     1       6.497   3.523  17.491  0.00  0.00    +0.000 HD
ENDBRANCH   6   7
ENDBRANCH   2   6
ENDBRANCH   1   2
BRANCH   1   9
ATOM      9  C   UNL     1       3.910   6.264  17.810  0.00  0.00    +0.000 C 
BRANCH   9  10
ATOM     10  C   UNL     1       2.413   6.063  18.127  0.00  0.00    +0.000 C 
BRANCH  10  11
ATOM     11  C   UNL     1       2.089   4.895  19.031  0.00  0.00    +0.000 A 
ATOM     12  C   UNL     1       1.352   3.797  18.563  0.00  0.00    +0.000 A 
ATOM     13  C   UNL     1       0.915   2.808  19.446  0.00  0.00    +0.000 A 
ATOM     14  C   UNL     1       1.237   2.887  20.800  0.00  0.00    +0.000 A 
ATOM     15  C   UNL     1       2.012   3.945  21.269  0.00  0.00    +0.000 A 
ATOM     16  C   UNL     1       2.449   4.937  20.388  0.00  0.00    +0.000 A 
ENDBRANCH  10  11
ENDBRANCH   9  10
ENDBRANCH   1   9
TORSDOF 6
ENDMDL
MODEL 5
REMARK VINA RESULT:      -6.3      1.514      2.138
REMARK  Name = 
REMARK  7 active torsions:
REMARK  status: ('A' for Active; 'I' for Inactive)
REMARK    1  A    between atoms: C_1  and  C_2
REMARK    2  A    between atoms: N_4  and  O_5
REMARK    3  A    between atoms: N_4  and  C_6
REMARK    4  A    between atoms: C_6  and  C_7
REMARK    5  A    between atoms: C_7  and  C_8
REMARK    6  A    between atoms: C_8  and  C_9
REMARK    7  A    between atoms: C_9  and  C_10
REMARK                            x       y       z     vdW  Elec       q    Type
REMARK                         _______ _______ _______ _____ _____    ______ ____
ROOT
ATOM      1  C   UNL     1       4.808   6.556  16.636  0.00  0.00    +0.000 C 
ENDROOT
BRANCH   1   2
ATOM      2  C   UNL     1       6.135   7.021  17.226  0.00  0.00    +0.000 C 
BRANCH   2   6
ATOM      3  C   UNL     1       7.304   5.536  19.410  0.00  0.00    +0.000 C 
ATOM      4  C   UNL     1       7.659   5.232  17.979  0.00  0.00    +0.000 C 
ATOM      5  O   UNL     1       8.201   4.177  17.660  0.00  0.00    +0.000 OA
ATOM      6  N   UNL     1       7.303   6.183  17.022  0.00  0.00    +0.000 N 
BRANCH   6   7
ATOM      7  O   UNL     1       7.352   5.635  15.707  0.00  0.00    +0.000 OA
ATOM      8  H   UNL     1       6.700   6.192  15.225  0.00  0.00    +0.000 HD
ENDBRANCH   6   7
ENDBRANCH   2   6
ENDBRANCH   1   2
BRANCH   1   9
ATOM      9  C   UNL     1       3.638   6.654  17.637  0.00  0.00    +0.000 C 
BRANCH   9  10
ATOM     10  C   UNL     1       3.786   5.873  18.961  0.00  0.00    +0.000 C 
BRANCH  10  11
ATOM     11  C   UNL     1       2.801   4.746  19.167  0.00  0.00    +0.000 A 
ATOM     12  C   UNL     1       2.633   3.742  18.201  0.00  0.00    +0.000 A 
ATOM     13  C   UNL     1       1.605   2.805  18.323  0.00  0.00    +0.000 A 
ATOM     14  C   UNL     1       0.754   2.839  19.427  0.00  0.00    +0.000 A 
ATOM     15  C   UNL     1       0.942   3.799  20.419  0.00  0.00    +0.000 A 
ATOM     16  C   UNL     1       1.968   4.738  20.298  0.00  0.00    +0.000 A 
ENDBRANCH  10  11
ENDBRANCH   9  10
ENDBRANCH   1   9
TORSDOF 6
ENDMDL
MODEL 6
REMARK VINA RESULT:      -6.3      1.986      2.613
REMARK  Name = 
REMARK  7 active torsions:
REMARK  status: ('A' for Active; 'I' for Inactive)
REMARK    1  A    between atoms: C_1  and  C_2
REMARK    2  A    between atoms: N_4  and  O_5
REMARK    3  A    between atoms: N_4  and  C_6
REMARK    4  A    between atoms: C_6  and  C_7
REMARK    5  A    between atoms: C_7  and  C_8
REMARK    6  A    between atoms: C_8  and  C_9
REMARK    7  A    between atoms: C_9  and  C_10
REMARK                            x       y       z     vdW  Elec       q    Type
REMARK                         _______ _______ _______ _____ _____    ______ ____
ROOT
ATOM      1  C   UNL     1       5.524   4.132  17.958  0.00  0.00    +0.000 C 
ENDROOT
BRANCH   1   2
ATOM      2  C   UNL     1       5.927   5.194  18.977  0.00  0.00    +0.000 C 
BRANCH   2   6
ATOM      3  C   UNL     1       6.885   7.273  17.216  0.00  0.00    +0.000 C 
ATOM      4  C   UNL     1       7.692   6.820  18.404  0.00  0.00    +0.000 C 
ATOM      5  O   UNL     1       8.616   7.495  18.851  0.00  0.00    +0.000 OA
ATOM      6  N   UNL     1       7.314   5.619  19.006  0.00  0.00    +0.000 N 
BRANCH   6   7
ATOM      7  O   UNL     1       7.893   5.487  20.302  0.00  0.00    +0.000 OA
ATOM      8  H   UNL     1       7.554   4.611  20.592  0.00  0.00    +0.000 HD
ENDBRANCH   6   7
ENDBRANCH   2   6
ENDBRANCH   1   2
BRANCH   1   9
ATOM      9  C   UNL     1       4.350   4.575  17.061  0.00  0.00    +0.000 C 
BRANCH   9  10
ATOM     10  C   UNL     1       3.236   5.407  17.732  0.00  0.00    +0.000 C 
BRANCH  10  11
ATOM     11  C   UNL     1       2.328   4.646  18.671  0.00  0.00    +0.000 A 
ATOM     12  C   UNL     1       2.301   4.931  20.044  0.00  0.00    +0.000 A 
ATOM     13  C   UNL     1       1.589   4.114  20.924  0.00  0.00    +0.000 A 
ATOM     14  C   UNL     1       0.870   3.023  20.439  0.00  0.00    +0.000 A 
ATOM     15  C   UNL     1       0.846   2.759  19.071  0.00  0.00    +0.000 A 
ATOM     16  C   UNL     1       1.559   3.574  18.189  0.00  0.00    +0.000 A 
ENDBRANCH  10  11
ENDBRANCH   9  10
ENDBRANCH   1   9
TORSDOF 6
ENDMDL
MODEL 7
REMARK VINA RESULT:      -6.3      1.848      2.605
REMARK  Name = 
REMARK  7 active torsions:
REMARK  status: ('A' for Active; 'I' for Inactive)
REMARK    1  A    between atoms: C_1  and  C_2
REMARK    2  A    between atoms: N_4  and  O_5
REMARK    3  A    between atoms: N_4  and  C_6
REMARK    4  A    between atoms: C_6  and  C_7
REMARK    5  A    between atoms: C_7  and  C_8
REMARK    6  A    between atoms: C_8  and  C_9
REMARK    7  A    between atoms: C_9  and  C_10
REMARK                            x       y       z     vdW  Elec       q    Type
REMARK                         _______ _______ _______ _____ _____    ______ ____
ROOT
ATOM      1  C   UNL     1       4.231   4.916  17.168  0.00  0.00    +0.000 C 
ENDROOT
BRANCH   1   2
ATOM      2  C   UNL     1       5.748   4.897  17.006  0.00  0.00    +0.000 C 
BRANCH   2   6
ATOM      3  C   UNL     1       7.721   6.729  18.052  0.00  0.00    +0.000 C 
ATOM      4  C   UNL     1       7.255   5.540  18.851  0.00  0.00    +0.000 C 
ATOM      5  O   UNL     1       7.446   5.462  20.061  0.00  0.00    +0.000 OA
ATOM      6  N   UNL     1       6.553   4.550  18.162  0.00  0.00    +0.000 N 
BRANCH   6   7
ATOM      7  O   UNL     1       5.863   3.686  19.063  0.00  0.00    +0.000 OA
ATOM      8  H   UNL     1       6.537   3.535  19.763  0.00  0.00    +0.000 HD
ENDBRANCH   6   7
ENDBRANCH   2   6
ENDBRANCH   1   2
BRANCH   1   9
ATOM      9  C   UNL     1       3.700   6.267  17.691  0.00  0.00    +0.000 C 
BRANCH   9  10
ATOM     10  C   UNL     1       2.353   6.241  18.445  0.00  0.00    +0.000 C 
BRANCH  10  11
ATOM     11  C   UNL     1       2.015   4.939  19.133  0.00  0.00    +0.000 A 
ATOM     12  C   UNL     1       2.522   4.636  20.405  0.00  0.00    +0.000 A 
ATOM     13  C   UNL     1       2.343   3.366  20.957  0.00  0.00    +0.000 A 
ATOM     14  C   UNL     1       1.627   2.395  20.258  0.00  0.00    +0.000 A 
ATOM     15  C   UNL     1       1.074   2.698  19.016  0.00  0.00    +0.000 A 
ATOM     16  C   UNL     1       1.253   3.967  18.462  0.00  0.00    +0.000 A 
ENDBRANCH  10  11
ENDBRANCH   9  10
ENDBRANCH   1   9
TORSDOF 6
ENDMDL
MODEL 8
REMARK VINA RESULT:      -6.2      0.913      1.594
REMARK  Name = 
REMARK  7 active torsions:
REMARK  status: ('A' for Active; 'I' for Inactive)
REMARK    1  A    between atoms: C_1  and  C_2
REMARK    2  A    between atoms: N_4  and  O_5
REMARK    3  A    between atoms: N_4  and  C_6
REMARK    4  A    between atoms: C_6  and  C_7
REMARK    5  A    between atoms: C_7  and  C_8
REMARK    6  A    between atoms: C_8  and  C_9
REMARK    7  A    between atoms: C_9  and  C_10
REMARK                            x       y       z     vdW  Elec       q    Type
REMARK                         _______ _______ _______ _____ _____    ______ ____
ROOT
ATOM      1  C   UNL     1       4.599   7.116  17.139  0.00  0.00    +0.000 C 
ENDROOT
BRANCH   1   2
ATOM      2  C   UNL     1       5.187   5.718  16.970  0.00  0.00    +0.000 C 
BRANCH   2   6
ATOM      3  C   UNL     1       5.870   4.013  14.741  0.00  0.00    +0.000 C 
ATOM      4  C   UNL     1       6.830   5.055  15.253  0.00  0.00    +0.000 C 
ATOM      5  O   UNL     1       7.788   5.432  14.584  0.00  0.00    +0.000 OA
ATOM      6  N   UNL     1       6.557   5.606  16.505  0.00  0.00    +0.000 N 
BRANCH   6   7
ATOM      7  O   UNL     1       7.298   6.807  16.712  0.00  0.00    +0.000 OA
ATOM      8  H   UNL     1       8.191   6.462  16.942  0.00  0.00    +0.000 HD
ENDBRANCH   6   7
ENDBRANCH   2   6
ENDBRANCH   1   2
BRANCH   1   9
ATOM      9  C   UNL     1       3.168   7.100  17.714  0.00  0.00    +0.000 C 
BRANCH   9  10
ATOM     10  C   UNL     1       2.998   6.545  19.144  0.00  0.00    +0.000 C 
BRANCH  10  11
ATOM     11  C   UNL     1       2.170   5.285  19.261  0.00  0.00    +0.000 A 
ATOM     12  C   UNL     1       1.712   4.830  20.506  0.00  0.00    +0.000 A 
ATOM     13  C   UNL     1       1.096   3.582  20.622  0.00  0.00    +0.000 A 
ATOM     14  C   UNL     1       0.901   2.791  19.492  0.00  0.00    +0.000 A 
ATOM     15  C   UNL     1       1.304   3.253  18.241  0.00  0.00    +0.000 A 
ATOM     16  C   UNL     1       1.922   4.500  18.123  0.00  0.00    +0.000 A 
ENDBRANCH  10  11
ENDBRANCH   9  10
ENDBRANCH   1   9
TORSDOF 6
ENDMDL
MODEL 9
REMARK VINA RESULT:      -6.2      1.744      2.550
REMARK  Name = 
REMARK  7 active torsions:
REMARK  status: ('A' for Active; 'I' for Inactive)
REMARK    1  A    between atoms: C_1  and  C_2
REMARK    2  A    between atoms: N_4  and  O_5
REMARK    3  A    between atoms: N_4  and  C_6
REMARK    4  A    between atoms: C_6  and  C_7
REMARK    5  A    between atoms: C_7  and  C_8
REMARK    6  A    between atoms: C_8  and  C_9
REMARK    7  A    between atoms: C_9  and  C_10
REMARK                            x       y       z     vdW  Elec       q    Type
REMARK                         _______ _______ _______ _____ _____    ______ ____
ROOT
ATOM      1  C   UNL     1       3.747   5.230  17.451  0.00  0.00    +0.000 C 
ENDROOT
BRANCH   1   2
ATOM      2  C   UNL     1       5.027   5.908  17.928  0.00  0.00    +0.000 C 
BRANCH   2   6
ATOM      3  C   UNL     1       7.614   4.654  17.648  0.00  0.00    +0.000 C 
ATOM      4  C   UNL     1       7.064   5.559  16.578  0.00  0.00    +0.000 C 
ATOM      5  O   UNL     1       7.524   5.567  15.441  0.00  0.00    +0.000 OA
ATOM      6  N   UNL     1       5.974   6.359  16.925  0.00  0.00    +0.000 N 
BRANCH   6   7
ATOM      7  O   UNL     1       5.327   6.879  15.765  0.00  0.00    +0.000 OA
ATOM      8  H   UNL     1       4.975   7.738  16.092  0.00  0.00    +0.000 HD
ENDBRANCH   6   7
ENDBRANCH   2   6
ENDBRANCH   1   2
BRANCH   1   9
ATOM      9  C   UNL     1       3.980   3.786  16.959  0.00  0.00    +0.000 C 
BRANCH   9  10
ATOM     10  C   UNL     1       3.017   2.704  17.493  0.00  0.00    +0.000 C 
BRANCH  10  11
ATOM     11  C   UNL     1       2.540   2.900  18.914  0.00  0.00    +0.000 A 
ATOM     12  C   UNL     1       3.369   2.605  20.006  0.00  0.00    +0.000 A 
ATOM     13  C   UNL     1       2.863   2.628  21.307  0.00  0.00    +0.000 A 
ATOM     14  C   UNL     1       1.533   2.977  21.535  0.00  0.00    +0.000 A 
ATOM     15  C   UNL     1       0.712   3.323  20.464  0.00  0.00    +0.000 A 
ATOM     16  C   UNL     1       1.216   3.299  19.161  0.00  0.00    +0.000 A 
ENDBRANCH  10  11
ENDBRANCH   9  10
ENDBRANCH   1   9
TORSDOF 6
ENDMDL
