MODEL 1
REMARK VINA RESULT:      -7.8      0.000      0.000
REMARK  Name = 
REMARK  8 active torsions:
REMARK  status: ('A' for Active; 'I' for Inactive)
REMARK    1  A    between atoms: C_1  and  C_2
REMARK    2  A    between atoms: C_2  and  N_3
REMARK    3  A    between atoms: N_3  and  C_4
REMARK    4  A    between atoms: N_3  and  S_20
REMARK    5  A    between atoms: C_4  and  C_5
REMARK    6  A    between atoms: N_10  and  C_11
REMARK    7  A    between atoms: C_11  and  C_12
REMARK    8  A    between atoms: S_20  and  C_23
REMARK                            x       y       z     vdW  Elec       q    Type
REMARK                         _______ _______ _______ _____ _____    ______ ____
ROOT
ATOM      1  C   UNL     1       2.966   7.249  18.508  0.00  0.00    +0.000 C 
ATOM      2  O   UNL     1       3.541   7.260  17.417  0.00  0.00    +0.000 OA
ATOM      3  N   UNL     1       2.081   8.265  18.878  0.00  0.00    +0.000 N 
ATOM      4  C   UNL     1       1.400   8.305  20.175  0.00  0.00    +0.000 C 
ATOM      5  C   UNL     1       0.865   9.702  20.551  0.00  0.00    +0.000 C 
ATOM      6  N   UNL     1       0.096  10.377  19.485  0.00  0.00    +0.000 NA
ATOM      7  C   UNL     1       0.943  10.417  18.271  0.00  0.00    +0.000 C 
ATOM      8  C   UNL     1       1.465   9.048  17.799  0.00  0.00    +0.000 C 
ENDROOT
BRANCH   1   9
ATOM      9  C   UNL     1       3.242   6.155  19.539  0.00  0.00    +0.000 C 
BRANCH   9  10
ATOM     10  N   UNL     1       3.504   4.780  19.024  0.00  0.00    +0.000 NA
BRANCH  10  11
ATOM     11  S   UNL     1       5.176   4.385  19.078  0.00  0.00    +0.000 S 
ATOM     12  O   UNL     1       5.863   5.471  19.750  0.00  0.00    +0.000 OA
ATOM     13  O   UNL     1       5.322   3.021  19.531  0.00  0.00    +0.000 OA
BRANCH  11  14
ATOM     14  C   UNL     1       5.662   4.448  17.369  0.00  0.00    +0.000 A 
ATOM     15  C   UNL     1       6.988   4.747  17.045  0.00  0.00    +0.000 A 
ATOM     16  C   UNL     1       7.387   4.733  15.708  0.00  0.00    +0.000 A 
ATOM     17  C   UNL     1       6.467   4.417  14.707  0.00  0.00    +0.000 A 
ATOM     18  C   UNL     1       5.143   4.116  15.036  0.00  0.00    +0.000 A 
ATOM     19  C   UNL     1       4.736   4.129  16.369  0.00  0.00    +0.000 A 
ENDBRANCH  11  14
ENDBRANCH  10  11
BRANCH  10  21
ATOM     20  C   UNL     1       1.279   4.288  20.059  0.00  0.00    +0.000 C 
ATOM     21  C   UNL     1       2.592   3.720  19.537  0.00  0.00    +0.000 C 
ENDBRANCH  10  21
ENDBRANCH   9  10
ENDBRANCH   1   9
BRANCH   6  22
ATOM     22  C   UNL     1      -1.193   9.688  19.280  0.00  0.00    +0.000 C 
BRANCH  22  23
ATOM     23  C   UNL     1      -2.053  10.260  18.177  0.00  0.00    +0.000 A 
ATOM     24  C   UNL     1      -1.905   9.798  16.861  0.00  0.00    +0.000 A 
ATOM     25  C   UNL     1      -2.718  10.288  15.840  0.00  0.00    +0.000 A 
ATOM     26  C   UNL     1      -3.691  11.244  16.125  0.00  0.00    +0.000 A 
ATOM     27  C   UNL     1      -3.846  11.713  17.428  0.00  0.00    +0.000 A 
ATOM     28  C   UNL     1      -3.031  11.225  18.451  0.00  0.00    +0.000 A 
ENDBRANCH  22  23
ENDBRANCH   6  22
TORSDOF 7
ENDMDL
MODEL 2
REMARK VINA RESULT:      -7.6      1.089      1.763
REMARK  Name = 
REMARK  8 active torsions:
REMARK  status: ('A' for Active; 'I' for Inactive)
REMARK    1  A    between atoms: C_1  and  C_2
REMARK    2  A    between atoms: C_2  and  N_3
REMARK    3  A    between atoms: N_3  and  C_4
REMARK    4  A    between atoms: N_3  and  S_20
REMARK    5  A    between atoms: C_4  and  C_5
REMARK    6  A    between atoms: N_10  and  C_11
REMARK    7  A    between atoms: C_11  and  C_12
REMARK    8  A    between atoms: S_20  and  C_23
REMARK                            x       y       z     vdW  Elec       q    Type
REMARK                         _______ _______ _______ _____ _____    ______ ____
ROOT
ATOM      1  C   UNL     1       3.476   6.975  18.383  0.00  0.00    +0.000 C 
ATOM      2  O   UNL     1       4.382   7.092  17.554  0.00  0.00    +0.000 OA
ATOM      3  N   UNL     1       2.570   8.010  18.625  0.00  0.00    +0.000 N 
ATOM      4  C   UNL     1       1.498   7.924  19.622  0.00  0.00    +0.000 C 
ATOM      5  C   UNL     1       0.938   9.295  20.048  0.00  0.00    +0.000 C 
ATOM      6  N   UNL     1       0.600  10.201  18.930  0.00  0.00    +0.000 NA
ATOM      7  C   UNL     1       1.804  10.336  18.079  0.00  0.00    +0.000 C 
ATOM      8  C   UNL     1       2.386   9.008  17.563  0.00  0.00    +0.000 C 
ENDROOT
BRANCH   1   9
ATOM      9  C   UNL     1       3.341   5.715  19.236  0.00  0.00    +0.000 C 
BRANCH   9  10
ATOM     10  N   UNL     1       2.856   4.478  18.558  0.00  0.00    +0.000 NA
BRANCH  10  11
ATOM     11  S   UNL     1       4.070   3.263  18.501  0.00  0.00    +0.000 S 
ATOM     12  O   UNL     1       4.755   3.265  19.779  0.00  0.00    +0.000 OA
ATOM     13  O   UNL     1       3.496   2.049  17.968  0.00  0.00    +0.000 OA
BRANCH  11  14
ATOM     14  C   UNL     1       5.219   3.897  17.301  0.00  0.00    +0.000 A 
ATOM     15  C   UNL     1       4.825   3.998  15.964  0.00  0.00    +0.000 A 
ATOM     16  C   UNL     1       5.701   4.555  15.032  0.00  0.00    +0.000 A 
ATOM     17  C   UNL     1       6.956   5.012  15.437  0.00  0.00    +0.000 A 
ATOM     18  C   UNL     1       7.344   4.912  16.775  0.00  0.00    +0.000 A 
ATOM     19  C   UNL     1       6.476   4.354  17.713  0.00  0.00    +0.000 A 
ENDBRANCH  11  14
ENDBRANCH  10  11
BRANCH  10  21
ATOM     20  C   UNL     1       1.258   4.221  20.468  0.00  0.00    +0.000 C 
ATOM     21  C   UNL     1       1.510   4.001  18.982  0.00  0.00    +0.000 C 
ENDBRANCH  10  21
ENDBRANCH   9  10
ENDBRANCH   1   9
BRANCH   6  22
ATOM     22  C   UNL     1      -0.579   9.689  18.206  0.00  0.00    +0.000 C 
BRANCH  22  23
ATOM     23  C   UNL     1      -1.855  10.466  18.436  0.00  0.00    +0.000 A 
ATOM     24  C   UNL     1      -1.863  11.553  19.323  0.00  0.00    +0.000 A 
ATOM     25  C   UNL     1      -3.023  12.303  19.516  0.00  0.00    +0.000 A 
ATOM     26  C   UNL     1      -4.186  11.977  18.821  0.00  0.00    +0.000 A 
ATOM     27  C   UNL     1      -4.190  10.898  17.938  0.00  0.00    +0.000 A 
ATOM     28  C   UNL     1      -3.031  10.144  17.746  0.00  0.00    +0.000 A 
ENDBRANCH  22  23
ENDBRANCH   6  22
TORSDOF 7
ENDMDL
MODEL 3
REMARK VINA RESULT:      -7.5      1.086      1.511
REMARK  Name = 
REMARK  8 active torsions:
REMARK  status: ('A' for Active; 'I' for Inactive)
REMARK    1  A    between atoms: C_1  and  C_2
REMARK    2  A    between atoms: C_2  and  N_3
REMARK    3  A    between atoms: N_3  and  C_4
REMARK    4  A    between atoms: N_3  and  S_20
REMARK    5  A    between atoms: C_4  and  C_5
REMARK    6  A    between atoms: N_10  and  C_11
REMARK    7  A    between atoms: C_11  and  C_12
REMARK    8  A    between atoms: S_20  and  C_23
REMARK                            x       y       z     vdW  Elec       q    Type
REMARK                         _______ _______ _______ _____ _____    ______ ____
ROOT
ATOM      1  C   UNL     1       3.285   7.045  18.344  0.00  0.00    +0.000 C 
ATOM      2  O   UNL     1       4.097   7.137  17.420  0.00  0.00    +0.000 OA
ATOM      3  N   UNL     1       2.456   8.113  18.696  0.00  0.00    +0.000 N 
ATOM      4  C   UNL     1       1.499   8.058  19.805  0.00  0.00    +0.000 C 
ATOM      5  C   UNL     1       1.050   9.445  20.305  0.00  0.00    +0.000 C 
ATOM      6  N   UNL     1       0.630  10.381  19.241  0.00  0.00    +0.000 NA
ATOM      7  C   UNL     1       1.737  10.478  18.262  0.00  0.00    +0.000 C 
ATOM      8  C   UNL     1       2.200   9.135  17.672  0.00  0.00    +0.000 C 
ENDROOT
BRANCH   1   9
ATOM      9  C   UNL     1       3.190   5.779  19.194  0.00  0.00    +0.000 C 
BRANCH   9  10
ATOM     10  N   UNL     1       2.796   4.517  18.502  0.00  0.00    +0.000 NA
BRANCH  10  11
ATOM     11  S   UNL     1       4.077   3.371  18.488  0.00  0.00    +0.000 S 
ATOM     12  O   UNL     1       4.760   3.458  19.764  0.00  0.00    +0.000 OA
ATOM     13  O   UNL     1       3.571   2.108  18.001  0.00  0.00    +0.000 OA
BRANCH  11  14
ATOM     14  C   UNL     1       5.189   4.022  17.263  0.00  0.00    +0.000 A 
ATOM     15  C   UNL     1       6.444   4.493  17.660  0.00  0.00    +0.000 A 
ATOM     16  C   UNL     1       7.343   4.944  16.693  0.00  0.00    +0.000 A 
ATOM     17  C   UNL     1       6.992   4.915  15.342  0.00  0.00    +0.000 A 
ATOM     18  C   UNL     1       5.738   4.440  14.951  0.00  0.00    +0.000 A 
ATOM     19  C   UNL     1       4.832   3.989  15.910  0.00  0.00    +0.000 A 
ENDBRANCH  11  14
ENDBRANCH  10  11
BRANCH  10  21
ATOM     20  C   UNL     1       1.143   4.190  20.352  0.00  0.00    +0.000 C 
ATOM     21  C   UNL     1       1.465   3.968  18.880  0.00  0.00    +0.000 C 
ENDBRANCH  10  21
ENDBRANCH   9  10
ENDBRANCH   1   9
BRANCH   6  22
ATOM     22  C   UNL     1      -0.643   9.930  18.647  0.00  0.00    +0.000 C 
BRANCH  22  23
ATOM     23  C   UNL     1      -1.820  10.846  18.893  0.00  0.00    +0.000 A 
ATOM     24  C   UNL     1      -2.977  10.728  18.109  0.00  0.00    +0.000 A 
ATOM     25  C   UNL     1      -4.085  11.539  18.351  0.00  0.00    +0.000 A 
ATOM     26  C   UNL     1      -4.049  12.476  19.382  0.00  0.00    +0.000 A 
ATOM     27  C   UNL     1      -2.904  12.604  20.167  0.00  0.00    +0.000 A 
ATOM     28  C   UNL     1      -1.793  11.794  19.925  0.00  0.00    +0.000 A 
ENDBRANCH  22  23
ENDBRANCH   6  22
TORSDOF 7
ENDMDL
MODEL 4
REMARK VINA RESULT:      -7.5      0.546      1.050
REMARK  Name = 
REMARK  8 active torsions:
REMARK  status: ('A' for Active; 'I' for Inactive)
REMARK    1  A    between atoms: C_1  and  C_2
REMARK    2  A    between atoms: C_2  and  N_3
REMARK    3  A    between atoms: N_3  and  C_4
REMARK    4  A    between atoms: N_3  and  S_20
REMARK    5  A    between atoms: C_4  and  C_5
REMARK    6  A    between atoms: N_10  and  C_11
REMARK    7  A    between atoms: C_11  and  C_12
REMARK    8  A    between atoms: S_20  and  C_23
REMARK                            x       y       z     vdW  Elec       q    Type
REMARK                         _______ _______ _______ _____ _____    ______ ____
ROOT
ATOM      1  C   UNL     1       3.089   7.260  18.350  0.00  0.00    +0.000 C 
ATOM      2  O   UNL     1       3.667   7.338  17.263  0.00  0.00    +0.000 OA
ATOM      3  N   UNL     1       2.186   8.240  18.768  0.00  0.00    +0.000 N 
ATOM      4  C   UNL     1       1.501   8.201  20.064  0.00  0.00    +0.000 C 
ATOM      5  C   UNL     1       0.941   9.566  20.510  0.00  0.00    +0.000 C 
ATOM      6  N   UNL     1       0.162  10.282  19.478  0.00  0.00    +0.000 NA
ATOM      7  C   UNL     1       1.011  10.400  18.271  0.00  0.00    +0.000 C 
ATOM      8  C   UNL     1       1.558   9.067  17.730  0.00  0.00    +0.000 C 
ENDROOT
BRANCH   1   9
ATOM      9  C   UNL     1       3.383   6.119  19.323  0.00  0.00    +0.000 C 
BRANCH   9  10
ATOM     10  N   UNL     1       3.125   4.729  18.847  0.00  0.00    +0.000 NA
BRANCH  10  11
ATOM     11  S   UNL     1       4.541   3.758  18.916  0.00  0.00    +0.000 S 
ATOM     12  O   UNL     1       5.358   4.247  20.009  0.00  0.00    +0.000 OA
ATOM     13  O   UNL     1       4.160   2.366  18.839  0.00  0.00    +0.000 OA
BRANCH  11  14
ATOM     14  C   UNL     1       5.391   4.175  17.411  0.00  0.00    +0.000 A 
ATOM     15  C   UNL     1       4.761   3.949  16.184  0.00  0.00    +0.000 A 
ATOM     16  C   UNL     1       5.399   4.335  15.005  0.00  0.00    +0.000 A 
ATOM     17  C   UNL     1       6.652   4.948  15.055  0.00  0.00    +0.000 A 
ATOM     18  C   UNL     1       7.276   5.175  16.284  0.00  0.00    +0.000 A 
ATOM     19  C   UNL     1       6.647   4.790  17.467  0.00  0.00    +0.000 A 
ENDBRANCH  11  14
ENDBRANCH  10  11
BRANCH  10  21
ATOM     20  C   UNL     1       1.648   4.440  20.846  0.00  0.00    +0.000 C 
ATOM     21  C   UNL     1       1.895   4.086  19.386  0.00  0.00    +0.000 C 
ENDBRANCH  10  21
ENDBRANCH   9  10
ENDBRANCH   1   9
BRANCH   6  22
ATOM     22  C   UNL     1      -1.114   9.582  19.234  0.00  0.00    +0.000 C 
BRANCH  22  23
ATOM     23  C   UNL     1      -1.985  10.199  18.164  0.00  0.00    +0.000 A 
ATOM     24  C   UNL     1      -1.893   9.749  16.839  0.00  0.00    +0.000 A 
ATOM     25  C   UNL     1      -2.718  10.282  15.849  0.00  0.00    +0.000 A 
ATOM     26  C   UNL     1      -3.646  11.269  16.174  0.00  0.00    +0.000 A 
ATOM     27  C   UNL     1      -3.745  11.726  17.487  0.00  0.00    +0.000 A 
ATOM     28  C   UNL     1      -2.918  11.196  18.480  0.00  0.00    +0.000 A 
ENDBRANCH  22  23
ENDBRANCH   6  22
TORSDOF 7
ENDMDL
MODEL 5
REMARK VINA RESULT:      -7.4      1.129      1.993
REMARK  Name = 
REMARK  8 active torsions:
REMARK  status: ('A' for Active; 'I' for Inactive)
REMARK    1  A    between atoms: C_1  and  C_2
REMARK    2  A    between atoms: C_2  and  N_3
REMARK    3  A    between atoms: N_3  and  C_4
REMARK    4  A    between atoms: N_3  and  S_20
REMARK    5  A    between atoms: C_4  and  C_5
REMARK    6  A    between atoms: N_10  and  C_11
REMARK    7  A    between atoms: C_11  and  C_12
REMARK    8  A    between atoms: S_20  and  C_23
REMARK                            x       y       z     vdW  Elec       q    Type
REMARK                         _______ _______ _______ _____ _____    ______ ____
ROOT
ATOM      1  C   UNL     1       2.838   7.261  18.468  0.00  0.00    +0.000 C 
ATOM      2  O   UNL     1       3.548   7.281  17.460  0.00  0.00    +0.000 OA
ATOM      3  N   UNL     1       2.119   8.387  18.877  0.00  0.00    +0.000 N 
ATOM      4  C   UNL     1       1.289   8.416  20.085  0.00  0.00    +0.000 C 
ATOM      5  C   UNL     1       0.982   9.839  20.592  0.00  0.00    +0.000 C 
ATOM      6  N   UNL     1       0.505  10.776  19.554  0.00  0.00    +0.000 NA
ATOM      7  C   UNL     1       1.501  10.782  18.458  0.00  0.00    +0.000 C 
ATOM      8  C   UNL     1       1.814   9.400  17.859  0.00  0.00    +0.000 C 
ENDROOT
BRANCH   1   9
ATOM      9  C   UNL     1       2.761   6.022  19.359  0.00  0.00    +0.000 C 
BRANCH   9  10
ATOM     10  N   UNL     1       3.137   4.714  18.747  0.00  0.00    +0.000 NA
BRANCH  10  11
ATOM     11  S   UNL     1       4.775   4.306  19.069  0.00  0.00    +0.000 S 
ATOM     12  O   UNL     1       5.358   5.394  19.832  0.00  0.00    +0.000 OA
ATOM     13  O   UNL     1       4.834   2.946  19.551  0.00  0.00    +0.000 OA
BRANCH  11  14
ATOM     14  C   UNL     1       5.526   4.348  17.458  0.00  0.00    +0.000 A 
ATOM     15  C   UNL     1       4.730   4.144  16.327  0.00  0.00    +0.000 A 
ATOM     16  C   UNL     1       5.304   4.240  15.059  0.00  0.00    +0.000 A 
ATOM     17  C   UNL     1       6.659   4.545  14.925  0.00  0.00    +0.000 A 
ATOM     18  C   UNL     1       7.449   4.751  16.058  0.00  0.00    +0.000 A 
ATOM     19  C   UNL     1       6.885   4.655  17.330  0.00  0.00    +0.000 A 
ENDBRANCH  11  14
ENDBRANCH  10  11
BRANCH  10  21
ATOM     20  C   UNL     1       1.254   3.850  20.152  0.00  0.00    +0.000 C 
ATOM     21  C   UNL     1       2.162   3.608  18.953  0.00  0.00    +0.000 C 
ENDBRANCH  10  21
ENDBRANCH   9  10
ENDBRANCH   1   9
BRANCH   6  22
ATOM     22  C   UNL     1      -0.851  10.395  19.114  0.00  0.00    +0.000 C 
BRANCH  22  23
ATOM     23  C   UNL     1      -1.951  11.331  19.557  0.00  0.00    +0.000 A 
ATOM     24  C   UNL     1      -1.780  12.122  20.704  0.00  0.00    +0.000 A 
ATOM     25  C   UNL     1      -2.770  13.019  21.102  0.00  0.00    +0.000 A 
ATOM     26  C   UNL     1      -3.941  13.138  20.356  0.00  0.00    +0.000 A 
ATOM     27  C   UNL     1      -4.123  12.357  19.217  0.00  0.00    +0.000 A 
ATOM     28  C   UNL     1      -3.134  11.456  18.818  0.00  0.00    +0.000 A 
ENDBRANCH  22  23
ENDBRANCH   6  22
TORSDOF 7
ENDMDL
MODEL 6
REMARK VINA RESULT:      -7.4      0.958      1.713
REMARK  Name = 
REMARK  8 active torsions:
REMARK  status: ('A' for Active; 'I' for Inactive)
REMARK    1  A    between atoms: C_1  and  C_2
REMARK    2  A    between atoms: C_2  and  N_3
REMARK    3  A    between atoms: N_3  and  C_4
REMARK    4  A    between atoms: N_3  and  S_20
REMARK    5  A    between atoms: C_4  and  C_5
REMARK    6  A    between atoms: N_10  and  C_11
REMARK    7  A    between atoms: C_11  and  C_12
REMARK    8  A    between atoms: S_20  and  C_23
REMARK                            x       y       z     vdW  Elec       q    Type
REMARK                         _______ _______ _______ _____ _____    ______ ____
ROOT
ATOM      1  C   UNL     1       3.078   7.287  18.482  0.00  0.00    +0.000 C 
ATOM      2  O   UNL     1       3.847   7.298  17.518  0.00  0.00    +0.000 OA
ATOM      3  N   UNL     1       2.271   8.387  18.785  0.00  0.00    +0.000 N 
ATOM      4  C   UNL     1       1.367   8.427  19.939  0.00  0.00    +0.000 C 
ATOM      5  C   UNL     1       0.947   9.853  20.347  0.00  0.00    +0.000 C 
ATOM      6  N   UNL     1       0.482  10.704  19.232  0.00  0.00    +0.000 NA
ATOM      7  C   UNL     1       1.542  10.714  18.198  0.00  0.00    +0.000 C 
ATOM      8  C   UNL     1       1.971   9.325  17.696  0.00  0.00    +0.000 C 
ENDROOT
BRANCH   1   9
ATOM      9  C   UNL     1       3.018   6.094  19.435  0.00  0.00    +0.000 C 
BRANCH   9  10
ATOM     10  N   UNL     1       3.306   4.746  18.863  0.00  0.00    +0.000 NA
BRANCH  10  11
ATOM     11  S   UNL     1       4.955   4.305  19.069  0.00  0.00    +0.000 S 
ATOM     12  O   UNL     1       5.605   5.367  19.811  0.00  0.00    +0.000 OA
ATOM     13  O   UNL     1       5.021   2.934  19.521  0.00  0.00    +0.000 OA
BRANCH  11  14
ATOM     14  C   UNL     1       5.599   4.365  17.412  0.00  0.00    +0.000 A 
ATOM     15  C   UNL     1       4.742   4.122  16.336  0.00  0.00    +0.000 A 
ATOM     16  C   UNL     1       5.230   4.233  15.033  0.00  0.00    +0.000 A 
ATOM     17  C   UNL     1       6.561   4.590  14.812  0.00  0.00    +0.000 A 
ATOM     18  C   UNL     1       7.412   4.836  15.892  0.00  0.00    +0.000 A 
ATOM     19  C   UNL     1       6.934   4.726  17.197  0.00  0.00    +0.000 A 
ENDBRANCH  11  14
ENDBRANCH  10  11
BRANCH  10  21
ATOM     20  C   UNL     1       1.793   2.963  17.973  0.00  0.00    +0.000 C 
ATOM     21  C   UNL     1       2.323   3.682  19.206  0.00  0.00    +0.000 C 
ENDBRANCH  10  21
ENDBRANCH   9  10
ENDBRANCH   1   9
BRANCH   6  22
ATOM     22  C   UNL     1      -0.820  10.217  18.735  0.00  0.00    +0.000 C 
BRANCH  22  23
ATOM     23  C   UNL     1      -1.997  11.110  19.054  0.00  0.00    +0.000 A 
ATOM     24  C   UNL     1      -3.174  11.017  18.296  0.00  0.00    +0.000 A 
ATOM     25  C   UNL     1      -4.281  11.806  18.603  0.00  0.00    +0.000 A 
ATOM     26  C   UNL     1      -4.226  12.694  19.676  0.00  0.00    +0.000 A 
ATOM     27  C   UNL     1      -3.062  12.796  20.435  0.00  0.00    +0.000 A 
ATOM     28  C   UNL     1      -1.951  12.010  20.127  0.00  0.00    +0.000 A 
ENDBRANCH  22  23
ENDBRANCH   6  22
TORSDOF 7
ENDMDL
MODEL 7
REMARK VINA RESULT:      -7.4      1.299      1.959
REMARK  Name = 
REMARK  8 active torsions:
REMARK  status: ('A' for Active; 'I' for Inactive)
REMARK    1  A    between atoms: C_1  and  C_2
REMARK    2  A    between atoms: C_2  and  N_3
REMARK    3  A    between atoms: N_3  and  C_4
REMARK    4  A    between atoms: N_3  and  S_20
REMARK    5  A    between atoms: C_4  and  C_5
REMARK    6  A    between atoms: N_10  and  C_11
REMARK    7  A    between atoms: C_11  and  C_12
REMARK    8  A    between atoms: S_20  and  C_23
REMARK                            x       y       z     vdW  Elec       q    Type
REMARK                         _______ _______ _______ _____ _____    ______ ____
ROOT
ATOM      1  C   UNL     1       3.069   7.023  18.287  0.00  0.00    +0.000 C 
ATOM      2  O   UNL     1       3.764   7.082  17.270  0.00  0.00    +0.000 OA
ATOM      3  N   UNL     1       2.353   8.131  18.747  0.00  0.00    +0.000 N 
ATOM      4  C   UNL     1       1.540   8.113  19.967  0.00  0.00    +0.000 C 
ATOM      5  C   UNL     1       1.236   9.516  20.529  0.00  0.00    +0.000 C 
ATOM      6  N   UNL     1       0.742  10.488  19.533  0.00  0.00    +0.000 NA
ATOM      7  C   UNL     1       1.722  10.537  18.424  0.00  0.00    +0.000 C 
ATOM      8  C   UNL     1       2.030   9.179  17.771  0.00  0.00    +0.000 C 
ENDROOT
BRANCH   1   9
ATOM      9  C   UNL     1       3.009   5.752  19.133  0.00  0.00    +0.000 C 
BRANCH   9  10
ATOM     10  N   UNL     1       2.632   4.486  18.441  0.00  0.00    +0.000 NA
BRANCH  10  11
ATOM     11  S   UNL     1       3.909   3.335  18.476  0.00  0.00    +0.000 S 
ATOM     12  O   UNL     1       4.479   3.351  19.809  0.00  0.00    +0.000 OA
ATOM     13  O   UNL     1       3.447   2.103  17.880  0.00  0.00    +0.000 OA
BRANCH  11  14
ATOM     14  C   UNL     1       5.124   4.046  17.389  0.00  0.00    +0.000 A 
ATOM     15  C   UNL     1       6.327   4.516  17.922  0.00  0.00    +0.000 A 
ATOM     16  C   UNL     1       7.308   5.014  17.063  0.00  0.00    +0.000 A 
ATOM     17  C   UNL     1       7.088   5.034  15.685  0.00  0.00    +0.000 A 
ATOM     18  C   UNL     1       5.885   4.559  15.157  0.00  0.00    +0.000 A 
ATOM     19  C   UNL     1       4.898   4.062  16.008  0.00  0.00    +0.000 A 
ENDBRANCH  11  14
ENDBRANCH  10  11
BRANCH  10  21
ATOM     20  C   UNL     1       0.980   4.056  20.270  0.00  0.00    +0.000 C 
ATOM     21  C   UNL     1       1.289   3.944  18.783  0.00  0.00    +0.000 C 
ENDBRANCH  10  21
ENDBRANCH   9  10
ENDBRANCH   1   9
BRANCH   6  22
ATOM     22  C   UNL     1      -0.620  10.118  19.099  0.00  0.00    +0.000 C 
BRANCH  22  23
ATOM     23  C   UNL     1      -1.704  11.086  19.510  0.00  0.00    +0.000 A 
ATOM     24  C   UNL     1      -1.575  11.821  20.698  0.00  0.00    +0.000 A 
ATOM     25  C   UNL     1      -2.549  12.747  21.070  0.00  0.00    +0.000 A 
ATOM     26  C   UNL     1      -3.662  12.950  20.256  0.00  0.00    +0.000 A 
ATOM     27  C   UNL     1      -3.802  12.225  19.074  0.00  0.00    +0.000 A 
ATOM     28  C   UNL     1      -2.830  11.295  18.701  0.00  0.00    +0.000 A 
ENDBRANCH  22  23
ENDBRANCH   6  22
TORSDOF 7
ENDMDL
MODEL 8
REMARK VINA RESULT:      -7.2      2.310      2.957
REMARK  Name = 
REMARK  8 active torsions:
REMARK  status: ('A' for Active; 'I' for Inactive)
REMARK    1  A    between atoms: C_1  and  C_2
REMARK    2  A    between atoms: C_2  and  N_3
REMARK    3  A    between atoms: N_3  and  C_4
REMARK    4  A    between atoms: N_3  and  S_20
REMARK    5  A    between atoms: C_4  and  C_5
REMARK    6  A    between atoms: N_10  and  C_11
REMARK    7  A    between atoms: C_11  and  C_12
REMARK    8  A    between atoms: S_20  and  C_23
REMARK                            x       y       z     vdW  Elec       q    Type
REMARK                         _______ _______ _______ _____ _____    ______ ____
ROOT
ATOM      1  C   UNL     1       2.107   7.551  19.128  0.00  0.00    +0.000 C 
ATOM      2  O   UNL     1       2.394   7.777  17.950  0.00  0.00    +0.000 OA
ATOM      3  N   UNL     1       1.670   8.568  19.981  0.00  0.00    +0.000 N 
ATOM      4  C   UNL     1       1.347   8.349  21.394  0.00  0.00    +0.000 C 
ATOM      5  C   UNL     1       1.348   9.640  22.237  0.00  0.00    +0.000 C 
ATOM      6  N   UNL     1       0.588  10.763  21.649  0.00  0.00    +0.000 NA
ATOM      7  C   UNL     1       1.108  10.995  20.282  0.00  0.00    +0.000 C 
ATOM      8  C   UNL     1       1.081   9.762  19.361  0.00  0.00    +0.000 C 
ENDROOT
BRANCH   1   9
ATOM      9  C   UNL     1       2.277   6.158  19.733  0.00  0.00    +0.000 C 
BRANCH   9  10
ATOM     10  N   UNL     1       2.554   5.033  18.793  0.00  0.00    +0.000 NA
BRANCH  10  11
ATOM     11  S   UNL     1       4.185   4.502  18.896  0.00  0.00    +0.000 S 
ATOM     12  O   UNL     1       4.899   5.434  19.747  0.00  0.00    +0.000 OA
ATOM     13  O   UNL     1       4.201   3.083  19.170  0.00  0.00    +0.000 OA
BRANCH  11  14
ATOM     14  C   UNL     1       4.794   4.745  17.243  0.00  0.00    +0.000 A 
ATOM     15  C   UNL     1       4.818   6.035  16.705  0.00  0.00    +0.000 A 
ATOM     16  C   UNL     1       5.355   6.237  15.433  0.00  0.00    +0.000 A 
ATOM     17  C   UNL     1       5.870   5.159  14.711  0.00  0.00    +0.000 A 
ATOM     18  C   UNL     1       5.847   3.873  15.255  0.00  0.00    +0.000 A 
ATOM     19  C   UNL     1       5.310   3.661  16.524  0.00  0.00    +0.000 A 
ENDBRANCH  11  14
ENDBRANCH  10  11
BRANCH  10  21
ATOM     20  C   UNL     1       0.886   3.746  20.144  0.00  0.00    +0.000 C 
ATOM     21  C   UNL     1       1.538   3.944  18.782  0.00  0.00    +0.000 C 
ENDBRANCH  10  21
ENDBRANCH   9  10
ENDBRANCH   1   9
BRANCH   6  22
ATOM     22  C   UNL     1      -0.857  10.469  21.687  0.00  0.00    +0.000 C 
BRANCH  22  23
ATOM     23  C   UNL     1      -1.741  11.655  21.997  0.00  0.00    +0.000 A 
ATOM     24  C   UNL     1      -2.107  12.543  20.975  0.00  0.00    +0.000 A 
ATOM     25  C   UNL     1      -2.954  13.619  21.239  0.00  0.00    +0.000 A 
ATOM     26  C   UNL     1      -3.446  13.817  22.528  0.00  0.00    +0.000 A 
ATOM     27  C   UNL     1      -3.087  12.942  23.552  0.00  0.00    +0.000 A 
ATOM     28  C   UNL     1      -2.237  11.866  23.291  0.00  0.00    +0.000 A 
ENDBRANCH  22  23
ENDBRANCH   6  22
TORSDOF 7
ENDMDL
MODEL 9
REMARK VINA RESULT:      -7.2      0.777      1.550
REMARK  Name = 
REMARK  8 active torsions:
REMARK  status: ('A' for Active; 'I' for Inactive)
REMARK    1  A    between atoms: C_1  and  C_2
REMARK    2  A    between atoms: C_2  and  N_3
REMARK    3  A    between atoms: N_3  and  C_4
REMARK    4  A    between atoms: N_3  and  S_20
REMARK    5  A    between atoms: C_4  and  C_5
REMARK    6  A    between atoms: N_10  and  C_11
REMARK    7  A    between atoms: C_11  and  C_12
REMARK    8  A    between atoms: S_20  and  C_23
REMARK                            x       y       z     vdW  Elec       q    Type
REMARK                         _______ _______ _______ _____ _____    ______ ____
ROOT
ATOM      1  C   UNL     1       3.203   6.921  18.408  0.00  0.00    +0.000 C 
ATOM      2  O   UNL     1       3.761   6.978  17.310  0.00  0.00    +0.000 OA
ATOM      3  N   UNL     1       2.350   7.937  18.846  0.00  0.00    +0.000 N 
ATOM      4  C   UNL     1       1.690   7.924  20.155  0.00  0.00    +0.000 C 
ATOM      5  C   UNL     1       1.197   9.311  20.614  0.00  0.00    +0.000 C 
ATOM      6  N   UNL     1       0.429  10.062  19.599  0.00  0.00    +0.000 NA
ATOM      7  C   UNL     1       1.259  10.147  18.376  0.00  0.00    +0.000 C 
ATOM      8  C   UNL     1       1.737   8.793  17.822  0.00  0.00    +0.000 C 
ENDROOT
BRANCH   1   9
ATOM      9  C   UNL     1       3.466   5.766  19.374  0.00  0.00    +0.000 C 
BRANCH   9  10
ATOM     10  N   UNL     1       2.999   4.411  18.964  0.00  0.00    +0.000 NA
BRANCH  10  11
ATOM     11  S   UNL     1       4.303   3.299  18.827  0.00  0.00    +0.000 S 
ATOM     12  O   UNL     1       5.109   3.417  20.027  0.00  0.00    +0.000 OA
ATOM     13  O   UNL     1       3.786   2.019  18.402  0.00  0.00    +0.000 OA
BRANCH  11  14
ATOM     14  C   UNL     1       5.267   3.970  17.492  0.00  0.00    +0.000 A 
ATOM     15  C   UNL     1       4.758   3.924  16.191  0.00  0.00    +0.000 A 
ATOM     16  C   UNL     1       5.484   4.508  15.152  0.00  0.00    +0.000 A 
ATOM     17  C   UNL     1       6.702   5.136  15.414  0.00  0.00    +0.000 A 
ATOM     18  C   UNL     1       7.204   5.182  16.717  0.00  0.00    +0.000 A 
ATOM     19  C   UNL     1       6.487   4.600  17.762  0.00  0.00    +0.000 A 
ENDBRANCH  11  14
ENDBRANCH  10  11
BRANCH  10  21
ATOM     20  C   UNL     1       0.821   3.191  18.775  0.00  0.00    +0.000 C 
ATOM     21  C   UNL     1       1.809   3.896  19.696  0.00  0.00    +0.000 C 
ENDBRANCH  10  21
ENDBRANCH   9  10
ENDBRANCH   1   9
BRANCH   6  22
ATOM     22  C   UNL     1      -0.880   9.418  19.379  0.00  0.00    +0.000 C 
BRANCH  22  23
ATOM     23  C   UNL     1      -1.766  10.105  18.367  0.00  0.00    +0.000 A 
ATOM     24  C   UNL     1      -2.612  11.150  18.769  0.00  0.00    +0.000 A 
ATOM     25  C   UNL     1      -3.406  11.819  17.838  0.00  0.00    +0.000 A 
ATOM     26  C   UNL     1      -3.360  11.454  16.494  0.00  0.00    +0.000 A 
ATOM     27  C   UNL     1      -2.525  10.417  16.083  0.00  0.00    +0.000 A 
ATOM     28  C   UNL     1      -1.732   9.743  17.013  0.00  0.00    +0.000 A 
ENDBRANCH  22  23
ENDBRANCH   6  22
TORSDOF 7
ENDMDL
