MODEL 1
REMARK VINA RESULT:      -7.9      0.000      0.000
REMARK  Name = 
REMARK  6 active torsions:
REMARK  status: ('A' for Active; 'I' for Inactive)
REMARK    1  A    between atoms: C_3  and  O_4
REMARK    2  A    between atoms: C_5  and  C_6
REMARK    3  A    between atoms: C_8  and  O_9
REMARK    4  A    between atoms: C_10  and  O_11
REMARK    5  A    between atoms: C_12  and  O_13
REMARK    6  A    between atoms: C_18  and  O_19
REMARK                            x       y       z     vdW  Elec       q    Type
REMARK                         _______ _______ _______ _____ _____    ______ ____
ROOT
ATOM      1  O   UNL     1       1.821   9.790  17.467  0.00  0.00    +0.000 OA
ATOM      2  C   UNL     1       1.807   9.057  18.451  0.00  0.00    +0.000 A 
ATOM      3  C   UNL     1       2.472   7.735  18.396  0.00  0.00    +0.000 A 
ATOM      4  C   UNL     1       2.431   6.950  19.485  0.00  0.00    +0.000 A 
ATOM      5  O   UNL     1       1.808   7.284  20.677  0.00  0.00    +0.000 OA
ATOM      6  C   UNL     1       1.206   8.516  20.776  0.00  0.00    +0.000 A 
ATOM      7  C   UNL     1       0.623   8.842  22.001  0.00  0.00    +0.000 A 
ATOM      8  C   UNL     1       0.016  10.087  22.154  0.00  0.00    +0.000 A 
ATOM      9  C   UNL     1      -0.025  11.000  21.103  0.00  0.00    +0.000 A 
ATOM     10  C   UNL     1       0.553  10.671  19.877  0.00  0.00    +0.000 A 
ATOM     11  C   UNL     1       1.170   9.427  19.722  0.00  0.00    +0.000 A 
ENDROOT
BRANCH   4  12
ATOM     12  C   UNL     1       3.072   5.628  19.517  0.00  0.00    +0.000 A 
ATOM     13  C   UNL     1       4.426   5.497  19.161  0.00  0.00    +0.000 A 
ATOM     14  C   UNL     1       5.033   4.245  19.216  0.00  0.00    +0.000 A 
ATOM     15  C   UNL     1       4.305   3.133  19.620  0.00  0.00    +0.000 A 
ATOM     16  C   UNL     1       2.967   3.260  19.965  0.00  0.00    +0.000 A 
ATOM     17  C   UNL     1       2.340   4.498  19.916  0.00  0.00    +0.000 A 
BRANCH  14  18
ATOM     18  O   UNL     1       6.348   4.060  18.887  0.00  0.00    +0.000 OA
ATOM     19  H   UNL     1       6.555   4.630  18.125  0.00  0.00    +0.000 HD
ENDBRANCH  14  18
BRANCH  15  20
ATOM     20  O   UNL     1       4.897   1.900  19.687  0.00  0.00    +0.000 OA
ATOM     21  H   UNL     1       5.839   2.076  19.485  0.00  0.00    +0.000 HD
ENDBRANCH  15  20
BRANCH  16  22
ATOM     22  O   UNL     1       2.258   2.162  20.363  0.00  0.00    +0.000 OA
ATOM     23  H   UNL     1       2.933   1.465  20.485  0.00  0.00    +0.000 HD
ENDBRANCH  16  22
ENDBRANCH   4  12
BRANCH   3  24
ATOM     24  O   UNL     1       3.109   7.389  17.219  0.00  0.00    +0.000 OA
ATOM     25  H   UNL     1       2.385   7.230  16.577  0.00  0.00    +0.000 HD
ENDBRANCH   3  24
BRANCH   8  26
ATOM     26  O   UNL     1      -0.554  10.461  23.334  0.00  0.00    +0.000 OA
ATOM     27  H   UNL     1      -1.007   9.696  23.726  0.00  0.00    +0.000 HD
ENDBRANCH   8  26
TORSDOF 6
ENDMDL
MODEL 2
REMARK VINA RESULT:      -7.9      0.043      1.764
REMARK  Name = 
REMARK  6 active torsions:
REMARK  status: ('A' for Active; 'I' for Inactive)
REMARK    1  A    between atoms: C_3  and  O_4
REMARK    2  A    between atoms: C_5  and  C_6
REMARK    3  A    between atoms: C_8  and  O_9
REMARK    4  A    between atoms: C_10  and  O_11
REMARK    5  A    between atoms: C_12  and  O_13
REMARK    6  A    between atoms: C_18  and  O_19
REMARK                            x       y       z     vdW  Elec       q    Type
REMARK                         _______ _______ _______ _____ _____    ______ ____
ROOT
ATOM      1  O   UNL     1       1.836   9.760  17.475  0.00  0.00    +0.000 OA
ATOM      2  C   UNL     1       1.814   9.034  18.465  0.00  0.00    +0.000 A 
ATOM      3  C   UNL     1       2.478   7.711  18.424  0.00  0.00    +0.000 A 
ATOM      4  C   UNL     1       2.429   6.935  19.519  0.00  0.00    +0.000 A 
ATOM      5  O   UNL     1       1.798   7.279  20.704  0.00  0.00    +0.000 OA
ATOM      6  C   UNL     1       1.198   8.512  20.790  0.00  0.00    +0.000 A 
ATOM      7  C   UNL     1       0.607   8.849  22.009  0.00  0.00    +0.000 A 
ATOM      8  C   UNL     1       0.002  10.096  22.148  0.00  0.00    +0.000 A 
ATOM      9  C   UNL     1      -0.032  11.001  21.090  0.00  0.00    +0.000 A 
ATOM     10  C   UNL     1       0.553  10.661  19.870  0.00  0.00    +0.000 A 
ATOM     11  C   UNL     1       1.170   9.415  19.728  0.00  0.00    +0.000 A 
ENDROOT
BRANCH   4  12
ATOM     12  C   UNL     1       3.067   5.612  19.565  0.00  0.00    +0.000 A 
ATOM     13  C   UNL     1       2.322   4.487  19.962  0.00  0.00    +0.000 A 
ATOM     14  C   UNL     1       2.928   3.234  19.981  0.00  0.00    +0.000 A 
ATOM     15  C   UNL     1       4.260   3.095  19.610  0.00  0.00    +0.000 A 
ATOM     16  C   UNL     1       4.998   4.206  19.224  0.00  0.00    +0.000 A 
ATOM     17  C   UNL     1       4.415   5.466  19.199  0.00  0.00    +0.000 A 
BRANCH  14  18
ATOM     18  O   UNL     1       2.251   2.105  20.352  0.00  0.00    +0.000 OA
ATOM     19  H   UNL     1       2.898   1.455  20.677  0.00  0.00    +0.000 HD
ENDBRANCH  14  18
BRANCH  15  20
ATOM     20  O   UNL     1       4.861   1.865  19.616  0.00  0.00    +0.000 OA
ATOM     21  H   UNL     1       4.133   1.245  19.829  0.00  0.00    +0.000 HD
ENDBRANCH  15  20
BRANCH  16  22
ATOM     22  O   UNL     1       6.306   4.062  18.859  0.00  0.00    +0.000 OA
ATOM     23  H   UNL     1       6.779   3.897  19.700  0.00  0.00    +0.000 HD
ENDBRANCH  16  22
ENDBRANCH   4  12
BRANCH   3  24
ATOM     24  O   UNL     1       3.122   7.356  17.253  0.00  0.00    +0.000 OA
ATOM     25  H   UNL     1       2.406   7.069  16.648  0.00  0.00    +0.000 HD
ENDBRANCH   3  24
BRANCH   8  26
ATOM     26  O   UNL     1      -0.576  10.480  23.321  0.00  0.00    +0.000 OA
ATOM     27  H   UNL     1      -0.285  11.380  23.541  0.00  0.00    +0.000 HD
ENDBRANCH   8  26
TORSDOF 6
ENDMDL
MODEL 3
REMARK VINA RESULT:      -7.7      2.582      7.252
REMARK  Name = 
REMARK  6 active torsions:
REMARK  status: ('A' for Active; 'I' for Inactive)
REMARK    1  A    between atoms: C_3  and  O_4
REMARK    2  A    between atoms: C_5  and  C_6
REMARK    3  A    between atoms: C_8  and  O_9
REMARK    4  A    between atoms: C_10  and  O_11
REMARK    5  A    between atoms: C_12  and  O_13
REMARK    6  A    between atoms: C_18  and  O_19
REMARK                            x       y       z     vdW  Elec       q    Type
REMARK                         _______ _______ _______ _____ _____    ______ ____
ROOT
ATOM      1  O   UNL     1       2.978   2.756  17.508  0.00  0.00    +0.000 OA
ATOM      2  C   UNL     1       3.345   3.923  17.412  0.00  0.00    +0.000 A 
ATOM      3  C   UNL     1       2.598   4.992  18.113  0.00  0.00    +0.000 A 
ATOM      4  C   UNL     1       3.017   6.261  17.981  0.00  0.00    +0.000 A 
ATOM      5  O   UNL     1       4.112   6.658  17.229  0.00  0.00    +0.000 OA
ATOM      6  C   UNL     1       4.848   5.690  16.588  0.00  0.00    +0.000 A 
ATOM      7  C   UNL     1       5.969   6.113  15.873  0.00  0.00    +0.000 A 
ATOM      8  C   UNL     1       6.756   5.166  15.221  0.00  0.00    +0.000 A 
ATOM      9  C   UNL     1       6.434   3.811  15.265  0.00  0.00    +0.000 A 
ATOM     10  C   UNL     1       5.310   3.390  15.975  0.00  0.00    +0.000 A 
ATOM     11  C   UNL     1       4.523   4.336  16.637  0.00  0.00    +0.000 A 
ENDROOT
BRANCH   4  12
ATOM     12  C   UNL     1       2.338   7.379  18.649  0.00  0.00    +0.000 A 
ATOM     13  C   UNL     1       1.830   8.448  17.888  0.00  0.00    +0.000 A 
ATOM     14  C   UNL     1       1.167   9.492  18.527  0.00  0.00    +0.000 A 
ATOM     15  C   UNL     1       1.009   9.480  19.907  0.00  0.00    +0.000 A 
ATOM     16  C   UNL     1       1.515   8.430  20.660  0.00  0.00    +0.000 A 
ATOM     17  C   UNL     1       2.182   7.377  20.044  0.00  0.00    +0.000 A 
BRANCH  14  18
ATOM     18  O   UNL     1       0.648  10.553  17.836  0.00  0.00    +0.000 OA
ATOM     19  H   UNL     1       1.116  11.358  18.118  0.00  0.00    +0.000 HD
ENDBRANCH  14  18
BRANCH  15  20
ATOM     20  O   UNL     1       0.350  10.498  20.542  0.00  0.00    +0.000 OA
ATOM     21  H   UNL     1       0.242  10.176  21.460  0.00  0.00    +0.000 HD
ENDBRANCH  15  20
BRANCH  16  22
ATOM     22  O   UNL     1       1.354   8.423  22.016  0.00  0.00    +0.000 OA
ATOM     23  H   UNL     1       0.395   8.558  22.150  0.00  0.00    +0.000 HD
ENDBRANCH  16  22
ENDBRANCH   4  12
BRANCH   3  24
ATOM     24  O   UNL     1       1.510   4.614  18.878  0.00  0.00    +0.000 OA
ATOM     25  H   UNL     1       1.304   5.399  19.429  0.00  0.00    +0.000 HD
ENDBRANCH   3  24
BRANCH   8  26
ATOM     26  O   UNL     1       7.870   5.525  14.522  0.00  0.00    +0.000 OA
ATOM     27  H   UNL     1       7.864   6.486  14.385  0.00  0.00    +0.000 HD
ENDBRANCH   8  26
TORSDOF 6
ENDMDL
MODEL 4
REMARK VINA RESULT:      -7.7      2.576      7.318
REMARK  Name = 
REMARK  6 active torsions:
REMARK  status: ('A' for Active; 'I' for Inactive)
REMARK    1  A    between atoms: C_3  and  O_4
REMARK    2  A    between atoms: C_5  and  C_6
REMARK    3  A    between atoms: C_8  and  O_9
REMARK    4  A    between atoms: C_10  and  O_11
REMARK    5  A    between atoms: C_12  and  O_13
REMARK    6  A    between atoms: C_18  and  O_19
REMARK                            x       y       z     vdW  Elec       q    Type
REMARK                         _______ _______ _______ _____ _____    ______ ____
ROOT
ATOM      1  O   UNL     1       2.981   2.739  17.502  0.00  0.00    +0.000 OA
ATOM      2  C   UNL     1       3.344   3.908  17.412  0.00  0.00    +0.000 A 
ATOM      3  C   UNL     1       2.588   4.972  18.112  0.00  0.00    +0.000 A 
ATOM      4  C   UNL     1       3.002   6.243  17.986  0.00  0.00    +0.000 A 
ATOM      5  O   UNL     1       4.101   6.646  17.242  0.00  0.00    +0.000 OA
ATOM      6  C   UNL     1       4.844   5.684  16.603  0.00  0.00    +0.000 A 
ATOM      7  C   UNL     1       5.968   6.114  15.896  0.00  0.00    +0.000 A 
ATOM      8  C   UNL     1       6.763   5.172  15.246  0.00  0.00    +0.000 A 
ATOM      9  C   UNL     1       6.446   3.816  15.283  0.00  0.00    +0.000 A 
ATOM     10  C   UNL     1       5.319   3.387  15.985  0.00  0.00    +0.000 A 
ATOM     11  C   UNL     1       4.524   4.328  16.646  0.00  0.00    +0.000 A 
ENDROOT
BRANCH   4  12
ATOM     12  C   UNL     1       2.315   7.356  18.655  0.00  0.00    +0.000 A 
ATOM     13  C   UNL     1       2.165   7.349  20.053  0.00  0.00    +0.000 A 
ATOM     14  C   UNL     1       1.533   8.419  20.682  0.00  0.00    +0.000 A 
ATOM     15  C   UNL     1       1.054   9.486  19.932  0.00  0.00    +0.000 A 
ATOM     16  C   UNL     1       1.195   9.491  18.551  0.00  0.00    +0.000 A 
ATOM     17  C   UNL     1       1.820   8.433  17.903  0.00  0.00    +0.000 A 
BRANCH  14  18
ATOM     18  O   UNL     1       1.365   8.468  22.038  0.00  0.00    +0.000 OA
ATOM     19  H   UNL     1       1.166   7.569  22.353  0.00  0.00    +0.000 HD
ENDBRANCH  14  18
BRANCH  15  20
ATOM     20  O   UNL     1       0.440  10.546  20.543  0.00  0.00    +0.000 OA
ATOM     21  H   UNL     1      -0.041  10.994  19.817  0.00  0.00    +0.000 HD
ENDBRANCH  15  20
BRANCH  16  22
ATOM     22  O   UNL     1       0.723  10.544  17.821  0.00  0.00    +0.000 OA
ATOM     23  H   UNL     1      -0.144  10.240  17.485  0.00  0.00    +0.000 HD
ENDBRANCH  16  22
ENDBRANCH   4  12
BRANCH   3  24
ATOM     24  O   UNL     1       1.497   4.587  18.869  0.00  0.00    +0.000 OA
ATOM     25  H   UNL     1       1.874   4.061  19.606  0.00  0.00    +0.000 HD
ENDBRANCH   3  24
BRANCH   8  26
ATOM     26  O   UNL     1       7.879   5.538  14.554  0.00  0.00    +0.000 OA
ATOM     27  H   UNL     1       7.858   5.128  13.674  0.00  0.00    +0.000 HD
ENDBRANCH   8  26
TORSDOF 6
ENDMDL
MODEL 5
REMARK VINA RESULT:      -7.7      1.066      1.066
REMARK  Name = 
REMARK  6 active torsions:
REMARK  status: ('A' for Active; 'I' for Inactive)
REMARK    1  A    between atoms: C_3  and  O_4
REMARK    2  A    between atoms: C_5  and  C_6
REMARK    3  A    between atoms: C_8  and  O_9
REMARK    4  A    between atoms: C_10  and  O_11
REMARK    5  A    between atoms: C_12  and  O_13
REMARK    6  A    between atoms: C_18  and  O_19
REMARK                            x       y       z     vdW  Elec       q    Type
REMARK                         _______ _______ _______ _____ _____    ______ ____
ROOT
ATOM      1  O   UNL     1       1.673  10.476  17.821  0.00  0.00    +0.000 OA
ATOM      2  C   UNL     1       1.662   9.551  18.628  0.00  0.00    +0.000 A 
ATOM      3  C   UNL     1       2.274   8.251  18.268  0.00  0.00    +0.000 A 
ATOM      4  C   UNL     1       2.238   7.255  19.168  0.00  0.00    +0.000 A 
ATOM      5  O   UNL     1       1.666   7.347  20.428  0.00  0.00    +0.000 OA
ATOM      6  C   UNL     1       1.115   8.548  20.807  0.00  0.00    +0.000 A 
ATOM      7  C   UNL     1       0.584   8.624  22.096  0.00  0.00    +0.000 A 
ATOM      8  C   UNL     1       0.031   9.827  22.532  0.00  0.00    +0.000 A 
ATOM      9  C   UNL     1      -0.009  10.943  21.700  0.00  0.00    +0.000 A 
ATOM     10  C   UNL     1       0.517  10.864  20.410  0.00  0.00    +0.000 A 
ATOM     11  C   UNL     1       1.081   9.662  19.972  0.00  0.00    +0.000 A 
ENDROOT
BRANCH   4  12
ATOM     12  C   UNL     1       2.828   5.938  18.895  0.00  0.00    +0.000 A 
ATOM     13  C   UNL     1       4.159   5.674  19.269  0.00  0.00    +0.000 A 
ATOM     14  C   UNL     1       4.704   4.416  19.029  0.00  0.00    +0.000 A 
ATOM     15  C   UNL     1       3.939   3.427  18.423  0.00  0.00    +0.000 A 
ATOM     16  C   UNL     1       2.629   3.688  18.047  0.00  0.00    +0.000 A 
ATOM     17  C   UNL     1       2.064   4.936  18.275  0.00  0.00    +0.000 A 
BRANCH  14  18
ATOM     18  O   UNL     1       5.989   4.103  19.377  0.00  0.00    +0.000 OA
ATOM     19  H   UNL     1       6.299   4.763  20.022  0.00  0.00    +0.000 HD
ENDBRANCH  14  18
BRANCH  15  20
ATOM     20  O   UNL     1       4.464   2.184  18.191  0.00  0.00    +0.000 OA
ATOM     21  H   UNL     1       3.958   1.597  18.789  0.00  0.00    +0.000 HD
ENDBRANCH  15  20
BRANCH  16  22
ATOM     22  O   UNL     1       1.882   2.710  17.453  0.00  0.00    +0.000 OA
ATOM     23  H   UNL     1       1.448   2.247  18.197  0.00  0.00    +0.000 HD
ENDBRANCH  16  22
ENDBRANCH   4  12
BRANCH   3  24
ATOM     24  O   UNL     1       2.860   8.145  17.021  0.00  0.00    +0.000 OA
ATOM     25  H   UNL     1       3.700   8.646  17.093  0.00  0.00    +0.000 HD
ENDBRANCH   3  24
BRANCH   8  26
ATOM     26  O   UNL     1      -0.487   9.959  23.786  0.00  0.00    +0.000 OA
ATOM     27  H   UNL     1      -0.036   9.341  24.384  0.00  0.00    +0.000 HD
ENDBRANCH   8  26
TORSDOF 6
ENDMDL
MODEL 6
REMARK VINA RESULT:      -7.2      4.846      6.996
REMARK  Name = 
REMARK  6 active torsions:
REMARK  status: ('A' for Active; 'I' for Inactive)
REMARK    1  A    between atoms: C_3  and  O_4
REMARK    2  A    between atoms: C_5  and  C_6
REMARK    3  A    between atoms: C_8  and  O_9
REMARK    4  A    between atoms: C_10  and  O_11
REMARK    5  A    between atoms: C_12  and  O_13
REMARK    6  A    between atoms: C_18  and  O_19
REMARK                            x       y       z     vdW  Elec       q    Type
REMARK                         _______ _______ _______ _____ _____    ______ ____
ROOT
ATOM      1  O   UNL     1       5.990   4.759  20.022  0.00  0.00    +0.000 OA
ATOM      2  C   UNL     1       5.367   4.452  19.010  0.00  0.00    +0.000 A 
ATOM      3  C   UNL     1       6.022   4.542  17.685  0.00  0.00    +0.000 A 
ATOM      4  C   UNL     1       5.311   4.209  16.595  0.00  0.00    +0.000 A 
ATOM      5  O   UNL     1       3.993   3.780  16.610  0.00  0.00    +0.000 OA
ATOM      6  C   UNL     1       3.362   3.655  17.825  0.00  0.00    +0.000 A 
ATOM      7  C   UNL     1       2.049   3.181  17.814  0.00  0.00    +0.000 A 
ATOM      8  C   UNL     1       1.375   3.022  19.023  0.00  0.00    +0.000 A 
ATOM      9  C   UNL     1       1.986   3.338  20.234  0.00  0.00    +0.000 A 
ATOM     10  C   UNL     1       3.296   3.818  20.243  0.00  0.00    +0.000 A 
ATOM     11  C   UNL     1       3.980   3.971  19.034  0.00  0.00    +0.000 A 
ENDROOT
BRANCH   4  12
ATOM     12  C   UNL     1       5.888   4.262  15.244  0.00  0.00    +0.000 A 
ATOM     13  C   UNL     1       5.287   3.539  14.197  0.00  0.00    +0.000 A 
ATOM     14  C   UNL     1       5.825   3.612  12.915  0.00  0.00    +0.000 A 
ATOM     15  C   UNL     1       6.948   4.394  12.672  0.00  0.00    +0.000 A 
ATOM     16  C   UNL     1       7.545   5.102  13.705  0.00  0.00    +0.000 A 
ATOM     17  C   UNL     1       7.026   5.043  14.993  0.00  0.00    +0.000 A 
BRANCH  14  18
ATOM     18  O   UNL     1       5.280   2.936  11.859  0.00  0.00    +0.000 OA
ATOM     19  H   UNL     1       4.683   2.252  12.211  0.00  0.00    +0.000 HD
ENDBRANCH  14  18
BRANCH  15  20
ATOM     20  O   UNL     1       7.477   4.479  11.412  0.00  0.00    +0.000 OA
ATOM     21  H   UNL     1       8.406   4.189  11.524  0.00  0.00    +0.000 HD
ENDBRANCH  15  20
BRANCH  16  22
ATOM     22  O   UNL     1       8.647   5.870  13.458  0.00  0.00    +0.000 OA
ATOM     23  H   UNL     1       8.581   6.095  12.509  0.00  0.00    +0.000 HD
ENDBRANCH  16  22
ENDBRANCH   4  12
BRANCH   3  24
ATOM     24  O   UNL     1       7.340   4.956  17.651  0.00  0.00    +0.000 OA
ATOM     25  H   UNL     1       7.476   5.290  16.739  0.00  0.00    +0.000 HD
ENDBRANCH   3  24
BRANCH   8  26
ATOM     26  O   UNL     1       0.098   2.549  19.068  0.00  0.00    +0.000 OA
ATOM     27  H   UNL     1       0.061   1.787  19.670  0.00  0.00    +0.000 HD
ENDBRANCH   8  26
TORSDOF 6
ENDMDL
MODEL 7
REMARK VINA RESULT:      -7.2      4.835      6.815
REMARK  Name = 
REMARK  6 active torsions:
REMARK  status: ('A' for Active; 'I' for Inactive)
REMARK    1  A    between atoms: C_3  and  O_4
REMARK    2  A    between atoms: C_5  and  C_6
REMARK    3  A    between atoms: C_8  and  O_9
REMARK    4  A    between atoms: C_10  and  O_11
REMARK    5  A    between atoms: C_12  and  O_13
REMARK    6  A    between atoms: C_18  and  O_19
REMARK                            x       y       z     vdW  Elec       q    Type
REMARK                         _______ _______ _______ _____ _____    ______ ____
ROOT
ATOM      1  O   UNL     1       5.971   4.754  20.007  0.00  0.00    +0.000 OA
ATOM      2  C   UNL     1       5.345   4.457  18.994  0.00  0.00    +0.000 A 
ATOM      3  C   UNL     1       5.996   4.553  17.668  0.00  0.00    +0.000 A 
ATOM      4  C   UNL     1       5.282   4.231  16.577  0.00  0.00    +0.000 A 
ATOM      5  O   UNL     1       3.962   3.806  16.593  0.00  0.00    +0.000 OA
ATOM      6  C   UNL     1       3.334   3.676  17.809  0.00  0.00    +0.000 A 
ATOM      7  C   UNL     1       2.020   3.206  17.798  0.00  0.00    +0.000 A 
ATOM      8  C   UNL     1       1.348   3.041  19.007  0.00  0.00    +0.000 A 
ATOM      9  C   UNL     1       1.963   3.346  20.219  0.00  0.00    +0.000 A 
ATOM     10  C   UNL     1       3.275   3.821  20.228  0.00  0.00    +0.000 A 
ATOM     11  C   UNL     1       3.956   3.980  19.018  0.00  0.00    +0.000 A 
ENDROOT
BRANCH   4  12
ATOM     12  C   UNL     1       5.855   4.291  15.226  0.00  0.00    +0.000 A 
ATOM     13  C   UNL     1       6.982   5.096  14.977  0.00  0.00    +0.000 A 
ATOM     14  C   UNL     1       7.533   5.130  13.699  0.00  0.00    +0.000 A 
ATOM     15  C   UNL     1       6.974   4.373  12.676  0.00  0.00    +0.000 A 
ATOM     16  C   UNL     1       5.859   3.583  12.919  0.00  0.00    +0.000 A 
ATOM     17  C   UNL     1       5.291   3.536  14.186  0.00  0.00    +0.000 A 
BRANCH  14  18
ATOM     18  O   UNL     1       8.631   5.889  13.401  0.00  0.00    +0.000 OA
ATOM     19  H   UNL     1       9.242   5.347  12.873  0.00  0.00    +0.000 HD
ENDBRANCH  14  18
BRANCH  15  20
ATOM     20  O   UNL     1       7.516   4.392  11.419  0.00  0.00    +0.000 OA
ATOM     21  H   UNL     1       7.837   5.311  11.312  0.00  0.00    +0.000 HD
ENDBRANCH  15  20
BRANCH  16  22
ATOM     22  O   UNL     1       5.316   2.841  11.909  0.00  0.00    +0.000 OA
ATOM     23  H   UNL     1       4.491   3.312  11.675  0.00  0.00    +0.000 HD
ENDBRANCH  16  22
ENDBRANCH   4  12
BRANCH   3  24
ATOM     24  O   UNL     1       7.316   4.963  17.634  0.00  0.00    +0.000 OA
ATOM     25  H   UNL     1       7.649   4.818  18.545  0.00  0.00    +0.000 HD
ENDBRANCH   3  24
BRANCH   8  26
ATOM     26  O   UNL     1       0.069   2.572  19.052  0.00  0.00    +0.000 OA
ATOM     27  H   UNL     1      -0.491   3.216  19.516  0.00  0.00    +0.000 HD
ENDBRANCH   8  26
TORSDOF 6
ENDMDL
MODEL 8
REMARK VINA RESULT:      -7.2      3.813      7.381
REMARK  Name = 
REMARK  6 active torsions:
REMARK  status: ('A' for Active; 'I' for Inactive)
REMARK    1  A    between atoms: C_3  and  O_4
REMARK    2  A    between atoms: C_5  and  C_6
REMARK    3  A    between atoms: C_8  and  O_9
REMARK    4  A    between atoms: C_10  and  O_11
REMARK    5  A    between atoms: C_12  and  O_13
REMARK    6  A    between atoms: C_18  and  O_19
REMARK                            x       y       z     vdW  Elec       q    Type
REMARK                         _______ _______ _______ _____ _____    ______ ____
ROOT
ATOM      1  O   UNL     1       7.735   6.532  16.642  0.00  0.00    +0.000 OA
ATOM      2  C   UNL     1       6.830   5.735  16.410  0.00  0.00    +0.000 A 
ATOM      3  C   UNL     1       5.818   5.445  17.450  0.00  0.00    +0.000 A 
ATOM      4  C   UNL     1       4.846   4.561  17.170  0.00  0.00    +0.000 A 
ATOM      5  O   UNL     1       4.711   3.889  15.965  0.00  0.00    +0.000 OA
ATOM      6  C   UNL     1       5.615   4.156  14.965  0.00  0.00    +0.000 A 
ATOM      7  C   UNL     1       5.430   3.497  13.748  0.00  0.00    +0.000 A 
ATOM      8  C   UNL     1       6.312   3.749  12.699  0.00  0.00    +0.000 A 
ATOM      9  C   UNL     1       7.374   4.637  12.851  0.00  0.00    +0.000 A 
ATOM     10  C   UNL     1       7.562   5.290  14.069  0.00  0.00    +0.000 A 
ATOM     11  C   UNL     1       6.675   5.047  15.121  0.00  0.00    +0.000 A 
ENDROOT
BRANCH   4  12
ATOM     12  C   UNL     1       3.798   4.222  18.143  0.00  0.00    +0.000 A 
ATOM     13  C   UNL     1       3.421   5.159  19.123  0.00  0.00    +0.000 A 
ATOM     14  C   UNL     1       2.411   4.840  20.026  0.00  0.00    +0.000 A 
ATOM     15  C   UNL     1       1.779   3.605  19.960  0.00  0.00    +0.000 A 
ATOM     16  C   UNL     1       2.154   2.677  18.998  0.00  0.00    +0.000 A 
ATOM     17  C   UNL     1       3.160   2.973  18.087  0.00  0.00    +0.000 A 
BRANCH  14  18
ATOM     18  O   UNL     1       2.001   5.713  20.995  0.00  0.00    +0.000 OA
ATOM     19  H   UNL     1       2.552   5.572  21.785  0.00  0.00    +0.000 HD
ENDBRANCH  14  18
BRANCH  15  20
ATOM     20  O   UNL     1       0.778   3.286  20.838  0.00  0.00    +0.000 OA
ATOM     21  H   UNL     1      -0.041   3.371  20.307  0.00  0.00    +0.000 HD
ENDBRANCH  15  20
BRANCH  16  22
ATOM     22  O   UNL     1       1.526   1.465  18.937  0.00  0.00    +0.000 OA
ATOM     23  H   UNL     1       0.624   1.672  18.622  0.00  0.00    +0.000 HD
ENDBRANCH  16  22
ENDBRANCH   4  12
BRANCH   3  24
ATOM     24  O   UNL     1       5.929   6.115  18.654  0.00  0.00    +0.000 OA
ATOM     25  H   UNL     1       6.108   7.047  18.408  0.00  0.00    +0.000 HD
ENDBRANCH   3  24
BRANCH   8  26
ATOM     26  O   UNL     1       6.167   3.143  11.487  0.00  0.00    +0.000 OA
ATOM     27  H   UNL     1       6.917   2.544  11.338  0.00  0.00    +0.000 HD
ENDBRANCH   8  26
TORSDOF 6
ENDMDL
MODEL 9
REMARK VINA RESULT:      -7.2      3.878      7.479
REMARK  Name = 
REMARK  6 active torsions:
REMARK  status: ('A' for Active; 'I' for Inactive)
REMARK    1  A    between atoms: C_3  and  O_4
REMARK    2  A    between atoms: C_5  and  C_6
REMARK    3  A    between atoms: C_8  and  O_9
REMARK    4  A    between atoms: C_10  and  O_11
REMARK    5  A    between atoms: C_12  and  O_13
REMARK    6  A    between atoms: C_18  and  O_19
REMARK                            x       y       z     vdW  Elec       q    Type
REMARK                         _______ _______ _______ _____ _____    ______ ____
ROOT
ATOM      1  O   UNL     1       7.665   6.579  16.594  0.00  0.00    +0.000 OA
ATOM      2  C   UNL     1       6.769   5.778  16.346  0.00  0.00    +0.000 A 
ATOM      3  C   UNL     1       5.724   5.503  17.358  0.00  0.00    +0.000 A 
ATOM      4  C   UNL     1       4.762   4.613  17.062  0.00  0.00    +0.000 A 
ATOM      5  O   UNL     1       4.666   3.921  15.865  0.00  0.00    +0.000 OA
ATOM      6  C   UNL     1       5.601   4.173  14.890  0.00  0.00    +0.000 A 
ATOM      7  C   UNL     1       5.457   3.494  13.679  0.00  0.00    +0.000 A 
ATOM      8  C   UNL     1       6.371   3.730  12.654  0.00  0.00    +0.000 A 
ATOM      9  C   UNL     1       7.427   4.621  12.825  0.00  0.00    +0.000 A 
ATOM     10  C   UNL     1       7.575   5.296  14.037  0.00  0.00    +0.000 A 
ATOM     11  C   UNL     1       6.655   5.069  15.065  0.00  0.00    +0.000 A 
ENDROOT
BRANCH   4  12
ATOM     12  C   UNL     1       3.684   4.289  18.006  0.00  0.00    +0.000 A 
ATOM     13  C   UNL     1       2.930   3.114  17.834  0.00  0.00    +0.000 A 
ATOM     14  C   UNL     1       1.926   2.802  18.745  0.00  0.00    +0.000 A 
ATOM     15  C   UNL     1       1.669   3.645  19.819  0.00  0.00    +0.000 A 
ATOM     16  C   UNL     1       2.407   4.809  19.986  0.00  0.00    +0.000 A 
ATOM     17  C   UNL     1       3.413   5.142  19.088  0.00  0.00    +0.000 A 
BRANCH  14  18
ATOM     18  O   UNL     1       1.167   1.670  18.630  0.00  0.00    +0.000 OA
ATOM     19  H   UNL     1       1.433   1.051  19.333  0.00  0.00    +0.000 HD
ENDBRANCH  14  18
BRANCH  15  20
ATOM     20  O   UNL     1       0.690   3.341  20.725  0.00  0.00    +0.000 OA
ATOM     21  H   UNL     1       1.182   3.093  21.535  0.00  0.00    +0.000 HD
ENDBRANCH  15  20
BRANCH  16  22
ATOM     22  O   UNL     1       2.150   5.633  21.045  0.00  0.00    +0.000 OA
ATOM     23  H   UNL     1       1.226   5.431  21.294  0.00  0.00    +0.000 HD
ENDBRANCH  16  22
ENDBRANCH   4  12
BRANCH   3  24
ATOM     24  O   UNL     1       5.796   6.193  18.554  0.00  0.00    +0.000 OA
ATOM     25  H   UNL     1       5.009   5.901  19.061  0.00  0.00    +0.000 HD
ENDBRANCH   3  24
BRANCH   8  26
ATOM     26  O   UNL     1       6.266   3.104  11.448  0.00  0.00    +0.000 OA
ATOM     27  H   UNL     1       5.520   2.482  11.475  0.00  0.00    +0.000 HD
ENDBRANCH   8  26
TORSDOF 6
ENDMDL
