MODEL 1
REMARK VINA RESULT:      -6.9      0.000      0.000
REMARK  Name = 
REMARK  11 active torsions:
REMARK  status: ('A' for Active; 'I' for Inactive)
REMARK    1  A    between atoms: C_1  and  C_2
REMARK    2  A    between atoms: C_2  and  C_3
REMARK    3  A    between atoms: C_2  and  C_4
REMARK    4  A    between atoms: C_4  and  C_5
REMARK    5  A    between atoms: C_5  and  C_6
REMARK    6  A    between atoms: C_5  and  N_10
REMARK    7  A    between atoms: C_6  and  N_7
REMARK    8  A    between atoms: N_7  and  C_8
REMARK    9  A    between atoms: N_7  and  C_9
REMARK   10  A    between atoms: C_11  and  C_13
REMARK   11  A    between atoms: C_17  and  C_18
REMARK                            x       y       z     vdW  Elec       q    Type
REMARK                         _______ _______ _______ _____ _____    ______ ____
ROOT
ATOM      1  N   UNL     1       5.069   4.291  17.178  0.00  0.00    +0.000 N 
ATOM      2  C   UNL     1       4.762   3.716  18.390  0.00  0.00    +0.000 C 
ATOM      3  O   UNL     1       5.576   3.630  19.296  0.00  0.00    +0.000 OA
ATOM      4  H   UNL     1       4.318   4.593  16.575  0.00  0.00    +0.000 HD
ENDROOT
BRANCH   2   5
ATOM      5  C   UNL     1       3.405   3.187  18.526  0.00  0.00    +0.000 A 
ATOM      6  C   UNL     1       2.963   1.909  18.255  0.00  0.00    +0.000 A 
ATOM      7  N   UNL     1       1.614   1.913  18.468  0.00  0.00    +0.000 N 
ATOM      8  N   UNL     1       1.135   3.099  18.858  0.00  0.00    +0.000 NA
ATOM      9  C   UNL     1       2.220   3.885  18.910  0.00  0.00    +0.000 A 
ATOM     10  H   UNL     1       0.956   1.146  18.355  0.00  0.00    +0.000 HD
BRANCH   9  11
ATOM     11  C   UNL     1       2.120   5.278  19.348  0.00  0.00    +0.000 A 
ATOM     12  C   UNL     1       1.681   5.694  20.632  0.00  0.00    +0.000 A 
ATOM     13  C   UNL     1       1.736   7.069  20.631  0.00  0.00    +0.000 A 
ATOM     14  O   UNL     1       2.207   7.524  19.441  0.00  0.00    +0.000 OA
ATOM     15  C   UNL     1       2.440   6.430  18.666  0.00  0.00    +0.000 A 
ENDBRANCH   9  11
ENDBRANCH   2   5
BRANCH   1  16
ATOM     16  C   UNL     1       6.416   4.828  16.867  0.00  0.00    +0.000 C 
BRANCH  16  17
ATOM     17  C   UNL     1       6.979   4.159  15.567  0.00  0.00    +0.000 C 
BRANCH  17  19
ATOM     18  C   UNL     1       7.767   5.249  13.386  0.00  0.00    +0.000 C 
ATOM     19  C   UNL     1       6.569   4.736  14.189  0.00  0.00    +0.000 C 
ATOM     20  C   UNL     1       5.863   3.672  13.323  0.00  0.00    +0.000 C 
ENDBRANCH  17  19
ENDBRANCH  16  17
BRANCH  16  21
ATOM     21  C   UNL     1       6.322   6.396  16.837  0.00  0.00    +0.000 C 
BRANCH  21  22
ATOM     22  N   UNL     1       6.993   7.044  18.006  0.00  0.00    +0.000 NA
ATOM     23  C   UNL     1       7.864   6.104  18.724  0.00  0.00    +0.000 C 
ATOM     24  C   UNL     1       7.810   8.203  17.616  0.00  0.00    +0.000 C 
ENDBRANCH  21  22
ENDBRANCH  16  21
ENDBRANCH   1  16
TORSDOF 7
ENDMDL
MODEL 2
REMARK VINA RESULT:      -6.9      0.670      1.408
REMARK  Name = 
REMARK  11 active torsions:
REMARK  status: ('A' for Active; 'I' for Inactive)
REMARK    1  A    between atoms: C_1  and  C_2
REMARK    2  A    between atoms: C_2  and  C_3
REMARK    3  A    between atoms: C_2  and  C_4
REMARK    4  A    between atoms: C_4  and  C_5
REMARK    5  A    between atoms: C_5  and  C_6
REMARK    6  A    between atoms: C_5  and  N_10
REMARK    7  A    between atoms: C_6  and  N_7
REMARK    8  A    between atoms: N_7  and  C_8
REMARK    9  A    between atoms: N_7  and  C_9
REMARK   10  A    between atoms: C_11  and  C_13
REMARK   11  A    between atoms: C_17  and  C_18
REMARK                            x       y       z     vdW  Elec       q    Type
REMARK                         _______ _______ _______ _____ _____    ______ ____
ROOT
ATOM      1  N   UNL     1       4.715   4.438  16.880  0.00  0.00    +0.000 N 
ATOM      2  C   UNL     1       4.680   3.788  18.092  0.00  0.00    +0.000 C 
ATOM      3  O   UNL     1       5.641   3.761  18.846  0.00  0.00    +0.000 OA
ATOM      4  H   UNL     1       3.845   4.675  16.425  0.00  0.00    +0.000 HD
ENDROOT
BRANCH   2   5
ATOM      5  C   UNL     1       3.429   3.106  18.420  0.00  0.00    +0.000 A 
ATOM      6  C   UNL     1       3.083   1.797  18.154  0.00  0.00    +0.000 A 
ATOM      7  N   UNL     1       1.797   1.642  18.587  0.00  0.00    +0.000 N 
ATOM      8  N   UNL     1       1.271   2.750  19.117  0.00  0.00    +0.000 NA
ATOM      9  C   UNL     1       2.261   3.650  19.034  0.00  0.00    +0.000 A 
ATOM     10  H   UNL     1       1.213   0.811  18.541  0.00  0.00    +0.000 HD
BRANCH   9  11
ATOM     11  C   UNL     1       2.093   5.006  19.561  0.00  0.00    +0.000 A 
ATOM     12  C   UNL     1       2.426   6.194  18.859  0.00  0.00    +0.000 A 
ATOM     13  C   UNL     1       2.116   7.238  19.701  0.00  0.00    +0.000 A 
ATOM     14  O   UNL     1       1.587   6.770  20.862  0.00  0.00    +0.000 OA
ATOM     15  C   UNL     1       1.574   5.413  20.769  0.00  0.00    +0.000 A 
ENDBRANCH   9  11
ENDBRANCH   2   5
BRANCH   1  16
ATOM     16  C   UNL     1       5.927   5.134  16.380  0.00  0.00    +0.000 C 
BRANCH  16  17
ATOM     17  C   UNL     1       5.861   5.286  14.823  0.00  0.00    +0.000 C 
BRANCH  17  19
ATOM     18  C   UNL     1       5.921   3.547  12.942  0.00  0.00    +0.000 C 
ATOM     19  C   UNL     1       6.742   4.365  13.942  0.00  0.00    +0.000 C 
ATOM     20  C   UNL     1       7.767   5.182  13.128  0.00  0.00    +0.000 C 
ENDBRANCH  17  19
ENDBRANCH  16  17
BRANCH  16  21
ATOM     21  C   UNL     1       6.088   6.472  17.186  0.00  0.00    +0.000 C 
BRANCH  21  22
ATOM     22  N   UNL     1       7.510   6.777  17.536  0.00  0.00    +0.000 NA
ATOM     23  C   UNL     1       7.763   8.224  17.575  0.00  0.00    +0.000 C 
ATOM     24  C   UNL     1       7.902   6.218  18.839  0.00  0.00    +0.000 C 
ENDBRANCH  21  22
ENDBRANCH  16  21
ENDBRANCH   1  16
TORSDOF 7
ENDMDL
MODEL 3
REMARK VINA RESULT:      -6.8      2.342      5.911
REMARK  Name = 
REMARK  11 active torsions:
REMARK  status: ('A' for Active; 'I' for Inactive)
REMARK    1  A    between atoms: C_1  and  C_2
REMARK    2  A    between atoms: C_2  and  C_3
REMARK    3  A    between atoms: C_2  and  C_4
REMARK    4  A    between atoms: C_4  and  C_5
REMARK    5  A    between atoms: C_5  and  C_6
REMARK    6  A    between atoms: C_5  and  N_10
REMARK    7  A    between atoms: C_6  and  N_7
REMARK    8  A    between atoms: N_7  and  C_8
REMARK    9  A    between atoms: N_7  and  C_9
REMARK   10  A    between atoms: C_11  and  C_13
REMARK   11  A    between atoms: C_17  and  C_18
REMARK                            x       y       z     vdW  Elec       q    Type
REMARK                         _______ _______ _______ _____ _____    ______ ____
ROOT
ATOM      1  N   UNL     1       3.850   4.991  17.172  0.00  0.00    +0.000 N 
ATOM      2  C   UNL     1       4.560   3.978  16.570  0.00  0.00    +0.000 C 
ATOM      3  O   UNL     1       4.361   2.800  16.828  0.00  0.00    +0.000 OA
ATOM      4  H   UNL     1       3.842   5.906  16.743  0.00  0.00    +0.000 HD
ENDROOT
BRANCH   2   5
ATOM      5  C   UNL     1       5.591   4.391  15.619  0.00  0.00    +0.000 A 
ATOM      6  C   UNL     1       5.592   4.234  14.248  0.00  0.00    +0.000 A 
ATOM      7  N   UNL     1       6.791   4.713  13.805  0.00  0.00    +0.000 N 
ATOM      8  N   UNL     1       7.580   5.173  14.781  0.00  0.00    +0.000 NA
ATOM      9  C   UNL     1       6.855   4.995  15.894  0.00  0.00    +0.000 A 
ATOM     10  H   UNL     1       7.141   4.746  12.851  0.00  0.00    +0.000 HD
BRANCH   9  11
ATOM     11  C   UNL     1       7.363   5.422  17.199  0.00  0.00    +0.000 A 
ATOM     12  C   UNL     1       7.533   6.774  17.598  0.00  0.00    +0.000 A 
ATOM     13  C   UNL     1       8.027   6.736  18.883  0.00  0.00    +0.000 A 
ATOM     14  O   UNL     1       8.143   5.452  19.309  0.00  0.00    +0.000 OA
ATOM     15  C   UNL     1       7.736   4.658  18.282  0.00  0.00    +0.000 A 
ENDBRANCH   9  11
ENDBRANCH   2   5
BRANCH   1  16
ATOM     16  C   UNL     1       2.806   4.738  18.196  0.00  0.00    +0.000 C 
BRANCH  16  17
ATOM     17  C   UNL     1       3.467   4.310  19.549  0.00  0.00    +0.000 C 
BRANCH  17  19
ATOM     18  C   UNL     1       1.880   3.621  21.439  0.00  0.00    +0.000 C 
ATOM     19  C   UNL     1       2.844   3.140  20.351  0.00  0.00    +0.000 C 
ATOM     20  C   UNL     1       2.052   2.188  19.430  0.00  0.00    +0.000 C 
ENDBRANCH  17  19
ENDBRANCH  16  17
BRANCH  16  21
ATOM     21  C   UNL     1       1.875   6.001  18.265  0.00  0.00    +0.000 C 
BRANCH  21  22
ATOM     22  N   UNL     1       2.556   7.200  18.845  0.00  0.00    +0.000 NA
ATOM     23  C   UNL     1       2.535   8.339  17.918  0.00  0.00    +0.000 C 
ATOM     24  C   UNL     1       1.945   7.638  20.109  0.00  0.00    +0.000 C 
ENDBRANCH  21  22
ENDBRANCH  16  21
ENDBRANCH   1  16
TORSDOF 7
ENDMDL
MODEL 4
REMARK VINA RESULT:      -6.7      2.372      6.363
REMARK  Name = 
REMARK  11 active torsions:
REMARK  status: ('A' for Active; 'I' for Inactive)
REMARK    1  A    between atoms: C_1  and  C_2
REMARK    2  A    between atoms: C_2  and  C_3
REMARK    3  A    between atoms: C_2  and  C_4
REMARK    4  A    between atoms: C_4  and  C_5
REMARK    5  A    between atoms: C_5  and  C_6
REMARK    6  A    between atoms: C_5  and  N_10
REMARK    7  A    between atoms: C_6  and  N_7
REMARK    8  A    between atoms: N_7  and  C_8
REMARK    9  A    between atoms: N_7  and  C_9
REMARK   10  A    between atoms: C_11  and  C_13
REMARK   11  A    between atoms: C_17  and  C_18
REMARK                            x       y       z     vdW  Elec       q    Type
REMARK                         _______ _______ _______ _____ _____    ______ ____
ROOT
ATOM      1  N   UNL     1       3.884   5.659  18.685  0.00  0.00    +0.000 N 
ATOM      2  C   UNL     1       4.903   6.082  17.863  0.00  0.00    +0.000 C 
ATOM      3  O   UNL     1       4.725   6.895  16.968  0.00  0.00    +0.000 OA
ATOM      4  H   UNL     1       4.114   5.219  19.564  0.00  0.00    +0.000 HD
ENDROOT
BRANCH   2   5
ATOM      5  C   UNL     1       6.214   5.481  18.102  0.00  0.00    +0.000 A 
ATOM      6  C   UNL     1       6.953   5.495  19.268  0.00  0.00    +0.000 A 
ATOM      7  N   UNL     1       8.131   4.866  18.987  0.00  0.00    +0.000 N 
ATOM      8  N   UNL     1       8.225   4.440  17.723  0.00  0.00    +0.000 NA
ATOM      9  C   UNL     1       7.056   4.797  17.173  0.00  0.00    +0.000 A 
ATOM     10  H   UNL     1       8.922   4.703  19.606  0.00  0.00    +0.000 HD
BRANCH   9  11
ATOM     11  C   UNL     1       6.744   4.463  15.783  0.00  0.00    +0.000 A 
ATOM     12  C   UNL     1       7.381   5.036  14.650  0.00  0.00    +0.000 A 
ATOM     13  C   UNL     1       6.799   4.454  13.547  0.00  0.00    +0.000 A 
ATOM     14  O   UNL     1       5.868   3.541  13.927  0.00  0.00    +0.000 OA
ATOM     15  C   UNL     1       5.841   3.551  15.287  0.00  0.00    +0.000 A 
ENDBRANCH   9  11
ENDBRANCH   2   5
BRANCH   1  16
ATOM     16  C   UNL     1       2.487   6.136  18.537  0.00  0.00    +0.000 C 
BRANCH  16  17
ATOM     17  C   UNL     1       1.510   4.919  18.405  0.00  0.00    +0.000 C 
BRANCH  17  19
ATOM     18  C   UNL     1       1.163   3.753  20.660  0.00  0.00    +0.000 C 
ATOM     19  C   UNL     1       1.771   3.653  19.259  0.00  0.00    +0.000 C 
ATOM     20  C   UNL     1       1.174   2.395  18.592  0.00  0.00    +0.000 C 
ENDBRANCH  17  19
ENDBRANCH  16  17
BRANCH  16  21
ATOM     21  C   UNL     1       2.182   7.127  19.716  0.00  0.00    +0.000 C 
BRANCH  21  22
ATOM     22  N   UNL     1       2.047   8.548  19.267  0.00  0.00    +0.000 NA
ATOM     23  C   UNL     1       1.836   8.642  17.816  0.00  0.00    +0.000 C 
ATOM     24  C   UNL     1       0.934   9.245  19.928  0.00  0.00    +0.000 C 
ENDBRANCH  21  22
ENDBRANCH  16  21
ENDBRANCH   1  16
TORSDOF 7
ENDMDL
MODEL 5
REMARK VINA RESULT:      -6.7      1.882      6.204
REMARK  Name = 
REMARK  11 active torsions:
REMARK  status: ('A' for Active; 'I' for Inactive)
REMARK    1  A    between atoms: C_1  and  C_2
REMARK    2  A    between atoms: C_2  and  C_3
REMARK    3  A    between atoms: C_2  and  C_4
REMARK    4  A    between atoms: C_4  and  C_5
REMARK    5  A    between atoms: C_5  and  C_6
REMARK    6  A    between atoms: C_5  and  N_10
REMARK    7  A    between atoms: C_6  and  N_7
REMARK    8  A    between atoms: N_7  and  C_8
REMARK    9  A    between atoms: N_7  and  C_9
REMARK   10  A    between atoms: C_11  and  C_13
REMARK   11  A    between atoms: C_17  and  C_18
REMARK                            x       y       z     vdW  Elec       q    Type
REMARK                         _______ _______ _______ _____ _____    ______ ____
ROOT
ATOM      1  N   UNL     1       3.971   4.930  18.411  0.00  0.00    +0.000 N 
ATOM      2  C   UNL     1       5.283   4.522  18.330  0.00  0.00    +0.000 C 
ATOM      3  O   UNL     1       5.895   4.096  19.299  0.00  0.00    +0.000 OA
ATOM      4  H   UNL     1       3.429   5.005  17.563  0.00  0.00    +0.000 HD
ENDROOT
BRANCH   2   5
ATOM      5  C   UNL     1       5.918   4.651  17.020  0.00  0.00    +0.000 A 
ATOM      6  C   UNL     1       5.706   3.880  15.895  0.00  0.00    +0.000 A 
ATOM      7  N   UNL     1       6.572   4.337  14.944  0.00  0.00    +0.000 N 
ATOM      8  N   UNL     1       7.339   5.350  15.358  0.00  0.00    +0.000 NA
ATOM      9  C   UNL     1       6.942   5.563  16.620  0.00  0.00    +0.000 A 
ATOM     10  H   UNL     1       6.702   3.996  13.995  0.00  0.00    +0.000 HD
BRANCH   9  11
ATOM     11  C   UNL     1       7.522   6.642  17.421  0.00  0.00    +0.000 A 
ATOM     12  C   UNL     1       7.485   8.018  17.074  0.00  0.00    +0.000 A 
ATOM     13  C   UNL     1       8.137   8.687  18.084  0.00  0.00    +0.000 A 
ATOM     14  O   UNL     1       8.546   7.817  19.043  0.00  0.00    +0.000 OA
ATOM     15  C   UNL     1       8.168   6.576  18.635  0.00  0.00    +0.000 A 
ENDBRANCH   9  11
ENDBRANCH   2   5
BRANCH   1  16
ATOM     16  C   UNL     1       3.204   4.908  19.681  0.00  0.00    +0.000 C 
BRANCH  16  17
ATOM     17  C   UNL     1       2.023   5.935  19.617  0.00  0.00    +0.000 C 
BRANCH  17  19
ATOM     18  C   UNL     1       2.138   8.152  18.339  0.00  0.00    +0.000 C 
ATOM     19  C   UNL     1       2.341   7.450  19.684  0.00  0.00    +0.000 C 
ATOM     20  C   UNL     1       1.442   8.166  20.713  0.00  0.00    +0.000 C 
ENDBRANCH  17  19
ENDBRANCH  16  17
BRANCH  16  21
ATOM     21  C   UNL     1       2.796   3.421  19.980  0.00  0.00    +0.000 C 
BRANCH  21  22
ATOM     22  N   UNL     1       2.372   2.674  18.755  0.00  0.00    +0.000 NA
ATOM     23  C   UNL     1       3.205   1.486  18.527  0.00  0.00    +0.000 C 
ATOM     24  C   UNL     1       0.970   2.233  18.822  0.00  0.00    +0.000 C 
ENDBRANCH  21  22
ENDBRANCH  16  21
ENDBRANCH   1  16
TORSDOF 7
ENDMDL
MODEL 6
REMARK VINA RESULT:      -6.7      2.356      5.801
REMARK  Name = 
REMARK  11 active torsions:
REMARK  status: ('A' for Active; 'I' for Inactive)
REMARK    1  A    between atoms: C_1  and  C_2
REMARK    2  A    between atoms: C_2  and  C_3
REMARK    3  A    between atoms: C_2  and  C_4
REMARK    4  A    between atoms: C_4  and  C_5
REMARK    5  A    between atoms: C_5  and  C_6
REMARK    6  A    between atoms: C_5  and  N_10
REMARK    7  A    between atoms: C_6  and  N_7
REMARK    8  A    between atoms: N_7  and  C_8
REMARK    9  A    between atoms: N_7  and  C_9
REMARK   10  A    between atoms: C_11  and  C_13
REMARK   11  A    between atoms: C_17  and  C_18
REMARK                            x       y       z     vdW  Elec       q    Type
REMARK                         _______ _______ _______ _____ _____    ______ ____
ROOT
ATOM      1  N   UNL     1       3.870   5.016  17.167  0.00  0.00    +0.000 N 
ATOM      2  C   UNL     1       4.594   4.002  16.583  0.00  0.00    +0.000 C 
ATOM      3  O   UNL     1       4.417   2.827  16.866  0.00  0.00    +0.000 OA
ATOM      4  H   UNL     1       3.843   5.920  16.719  0.00  0.00    +0.000 HD
ENDROOT
BRANCH   2   5
ATOM      5  C   UNL     1       5.611   4.412  15.616  0.00  0.00    +0.000 A 
ATOM      6  C   UNL     1       5.645   4.157  14.260  0.00  0.00    +0.000 A 
ATOM      7  N   UNL     1       6.817   4.681  13.797  0.00  0.00    +0.000 N 
ATOM      8  N   UNL     1       7.559   5.261  14.746  0.00  0.00    +0.000 NA
ATOM      9  C   UNL     1       6.829   5.117  15.860  0.00  0.00    +0.000 A 
ATOM     10  H   UNL     1       7.181   4.667  12.847  0.00  0.00    +0.000 HD
BRANCH   9  11
ATOM     11  C   UNL     1       7.286   5.670  17.136  0.00  0.00    +0.000 A 
ATOM     12  C   UNL     1       7.561   4.903  18.299  0.00  0.00    +0.000 A 
ATOM     13  C   UNL     1       7.960   5.799  19.265  0.00  0.00    +0.000 A 
ATOM     14  O   UNL     1       7.976   7.062  18.764  0.00  0.00    +0.000 OA
ATOM     15  C   UNL     1       7.567   6.975  17.469  0.00  0.00    +0.000 A 
ENDBRANCH   9  11
ENDBRANCH   2   5
BRANCH   1  16
ATOM     16  C   UNL     1       2.838   4.767  18.203  0.00  0.00    +0.000 C 
BRANCH  16  17
ATOM     17  C   UNL     1       3.514   4.352  19.554  0.00  0.00    +0.000 C 
BRANCH  17  19
ATOM     18  C   UNL     1       4.507   2.137  20.372  0.00  0.00    +0.000 C 
ATOM     19  C   UNL     1       3.229   2.944  20.134  0.00  0.00    +0.000 C 
ATOM     20  C   UNL     1       2.488   3.035  21.484  0.00  0.00    +0.000 C 
ENDBRANCH  17  19
ENDBRANCH  16  17
BRANCH  16  21
ATOM     21  C   UNL     1       1.902   6.026  18.272  0.00  0.00    +0.000 C 
BRANCH  21  22
ATOM     22  N   UNL     1       2.578   7.227  18.854  0.00  0.00    +0.000 NA
ATOM     23  C   UNL     1       2.604   8.349  17.905  0.00  0.00    +0.000 C 
ATOM     24  C   UNL     1       1.929   7.697  20.087  0.00  0.00    +0.000 C 
ENDBRANCH  21  22
ENDBRANCH  16  21
ENDBRANCH   1  16
TORSDOF 7
ENDMDL
MODEL 7
REMARK VINA RESULT:      -6.7      2.370      6.197
REMARK  Name = 
REMARK  11 active torsions:
REMARK  status: ('A' for Active; 'I' for Inactive)
REMARK    1  A    between atoms: C_1  and  C_2
REMARK    2  A    between atoms: C_2  and  C_3
REMARK    3  A    between atoms: C_2  and  C_4
REMARK    4  A    between atoms: C_4  and  C_5
REMARK    5  A    between atoms: C_5  and  C_6
REMARK    6  A    between atoms: C_5  and  N_10
REMARK    7  A    between atoms: C_6  and  N_7
REMARK    8  A    between atoms: N_7  and  C_8
REMARK    9  A    between atoms: N_7  and  C_9
REMARK   10  A    between atoms: C_11  and  C_13
REMARK   11  A    between atoms: C_17  and  C_18
REMARK                            x       y       z     vdW  Elec       q    Type
REMARK                         _______ _______ _______ _____ _____    ______ ____
ROOT
ATOM      1  N   UNL     1       3.867   5.628  18.915  0.00  0.00    +0.000 N 
ATOM      2  C   UNL     1       4.817   5.983  17.985  0.00  0.00    +0.000 C 
ATOM      3  O   UNL     1       4.553   6.679  17.016  0.00  0.00    +0.000 OA
ATOM      4  H   UNL     1       4.167   5.302  19.822  0.00  0.00    +0.000 HD
ENDROOT
BRANCH   2   5
ATOM      5  C   UNL     1       6.163   5.457  18.207  0.00  0.00    +0.000 A 
ATOM      6  C   UNL     1       6.897   5.472  19.375  0.00  0.00    +0.000 A 
ATOM      7  N   UNL     1       8.113   4.929  19.075  0.00  0.00    +0.000 N 
ATOM      8  N   UNL     1       8.235   4.559  17.796  0.00  0.00    +0.000 NA
ATOM      9  C   UNL     1       7.047   4.863  17.256  0.00  0.00    +0.000 A 
ATOM     10  H   UNL     1       8.911   4.793  19.690  0.00  0.00    +0.000 HD
BRANCH   9  11
ATOM     11  C   UNL     1       6.759   4.564  15.852  0.00  0.00    +0.000 A 
ATOM     12  C   UNL     1       5.779   3.639  15.406  0.00  0.00    +0.000 A 
ATOM     13  C   UNL     1       5.831   3.657  14.031  0.00  0.00    +0.000 A 
ATOM     14  O   UNL     1       6.757   4.554  13.602  0.00  0.00    +0.000 OA
ATOM     15  C   UNL     1       7.316   5.103  14.714  0.00  0.00    +0.000 A 
ENDBRANCH   9  11
ENDBRANCH   2   5
BRANCH   1  16
ATOM     16  C   UNL     1       2.446   6.040  18.804  0.00  0.00    +0.000 C 
BRANCH  16  17
ATOM     17  C   UNL     1       1.591   4.877  18.196  0.00  0.00    +0.000 C 
BRANCH  17  19
ATOM     18  C   UNL     1       0.730   2.596  18.985  0.00  0.00    +0.000 C 
ATOM     19  C   UNL     1       1.951   3.414  18.557  0.00  0.00    +0.000 C 
ATOM     20  C   UNL     1       2.592   2.683  17.359  0.00  0.00    +0.000 C 
ENDBRANCH  17  19
ENDBRANCH  16  17
BRANCH  16  21
ATOM     21  C   UNL     1       1.978   6.564  20.208  0.00  0.00    +0.000 C 
BRANCH  21  22
ATOM     22  N   UNL     1       1.890   8.056  20.276  0.00  0.00    +0.000 NA
ATOM     23  C   UNL     1       1.756   8.654  18.940  0.00  0.00    +0.000 C 
ATOM     24  C   UNL     1       0.755   8.517  21.089  0.00  0.00    +0.000 C 
ENDBRANCH  21  22
ENDBRANCH  16  21
ENDBRANCH   1  16
TORSDOF 7
ENDMDL
MODEL 8
REMARK VINA RESULT:      -6.5      2.399      5.970
REMARK  Name = 
REMARK  11 active torsions:
REMARK  status: ('A' for Active; 'I' for Inactive)
REMARK    1  A    between atoms: C_1  and  C_2
REMARK    2  A    between atoms: C_2  and  C_3
REMARK    3  A    between atoms: C_2  and  C_4
REMARK    4  A    between atoms: C_4  and  C_5
REMARK    5  A    between atoms: C_5  and  C_6
REMARK    6  A    between atoms: C_5  and  N_10
REMARK    7  A    between atoms: C_6  and  N_7
REMARK    8  A    between atoms: N_7  and  C_8
REMARK    9  A    between atoms: N_7  and  C_9
REMARK   10  A    between atoms: C_11  and  C_13
REMARK   11  A    between atoms: C_17  and  C_18
REMARK                            x       y       z     vdW  Elec       q    Type
REMARK                         _______ _______ _______ _____ _____    ______ ____
ROOT
ATOM      1  N   UNL     1       4.120   5.571  17.553  0.00  0.00    +0.000 N 
ATOM      2  C   UNL     1       4.355   4.498  16.724  0.00  0.00    +0.000 C 
ATOM      3  O   UNL     1       3.719   3.458  16.805  0.00  0.00    +0.000 OA
ATOM      4  H   UNL     1       4.457   6.483  17.281  0.00  0.00    +0.000 HD
ENDROOT
BRANCH   2   5
ATOM      5  C   UNL     1       5.433   4.661  15.750  0.00  0.00    +0.000 A 
ATOM      6  C   UNL     1       5.434   4.302  14.417  0.00  0.00    +0.000 A 
ATOM      7  N   UNL     1       6.681   4.590  13.940  0.00  0.00    +0.000 N 
ATOM      8  N   UNL     1       7.501   5.110  14.859  0.00  0.00    +0.000 NA
ATOM      9  C   UNL     1       6.749   5.173  15.966  0.00  0.00    +0.000 A 
ATOM     10  H   UNL     1       7.044   4.445  13.002  0.00  0.00    +0.000 HD
BRANCH   9  11
ATOM     11  C   UNL     1       7.282   5.738  17.207  0.00  0.00    +0.000 A 
ATOM     12  C   UNL     1       7.603   4.985  18.367  0.00  0.00    +0.000 A 
ATOM     13  C   UNL     1       8.067   5.889  19.295  0.00  0.00    +0.000 A 
ATOM     14  O   UNL     1       8.079   7.143  18.773  0.00  0.00    +0.000 OA
ATOM     15  C   UNL     1       7.602   7.043  17.502  0.00  0.00    +0.000 A 
ENDBRANCH   9  11
ENDBRANCH   2   5
BRANCH   1  16
ATOM     16  C   UNL     1       3.095   5.543  18.625  0.00  0.00    +0.000 C 
BRANCH  16  17
ATOM     17  C   UNL     1       3.347   4.331  19.584  0.00  0.00    +0.000 C 
BRANCH  17  19
ATOM     18  C   UNL     1       0.899   4.024  20.275  0.00  0.00    +0.000 C 
ATOM     19  C   UNL     1       2.354   4.075  20.746  0.00  0.00    +0.000 C 
ATOM     20  C   UNL     1       2.652   2.736  21.452  0.00  0.00    +0.000 C 
ENDBRANCH  17  19
ENDBRANCH  16  17
BRANCH  16  21
ATOM     21  C   UNL     1       3.068   6.956  19.310  0.00  0.00    +0.000 C 
BRANCH  21  22
ATOM     22  N   UNL     1       1.901   7.790  18.885  0.00  0.00    +0.000 NA
ATOM     23  C   UNL     1       1.397   8.622  19.986  0.00  0.00    +0.000 C 
ATOM     24  C   UNL     1       2.225   8.681  17.761  0.00  0.00    +0.000 C 
ENDBRANCH  21  22
ENDBRANCH  16  21
ENDBRANCH   1  16
TORSDOF 7
ENDMDL
MODEL 9
REMARK VINA RESULT:      -6.5      0.953      1.164
REMARK  Name = 
REMARK  11 active torsions:
REMARK  status: ('A' for Active; 'I' for Inactive)
REMARK    1  A    between atoms: C_1  and  C_2
REMARK    2  A    between atoms: C_2  and  C_3
REMARK    3  A    between atoms: C_2  and  C_4
REMARK    4  A    between atoms: C_4  and  C_5
REMARK    5  A    between atoms: C_5  and  C_6
REMARK    6  A    between atoms: C_5  and  N_10
REMARK    7  A    between atoms: C_6  and  N_7
REMARK    8  A    between atoms: N_7  and  C_8
REMARK    9  A    between atoms: N_7  and  C_9
REMARK   10  A    between atoms: C_11  and  C_13
REMARK   11  A    between atoms: C_17  and  C_18
REMARK                            x       y       z     vdW  Elec       q    Type
REMARK                         _______ _______ _______ _____ _____    ______ ____
ROOT
ATOM      1  N   UNL     1       4.670   3.891  16.496  0.00  0.00    +0.000 N 
ATOM      2  C   UNL     1       4.640   3.631  17.847  0.00  0.00    +0.000 C 
ATOM      3  O   UNL     1       5.578   3.896  18.583  0.00  0.00    +0.000 OA
ATOM      4  H   UNL     1       3.800   3.921  15.983  0.00  0.00    +0.000 HD
ENDROOT
BRANCH   2   5
ATOM      5  C   UNL     1       3.425   2.993  18.352  0.00  0.00    +0.000 A 
ATOM      6  C   UNL     1       3.073   1.660  18.277  0.00  0.00    +0.000 A 
ATOM      7  N   UNL     1       1.827   1.559  18.824  0.00  0.00    +0.000 N 
ATOM      8  N   UNL     1       1.331   2.724  19.253  0.00  0.00    +0.000 NA
ATOM      9  C   UNL     1       2.302   3.608  18.984  0.00  0.00    +0.000 A 
ATOM     10  H   UNL     1       1.250   0.728  18.926  0.00  0.00    +0.000 HD
BRANCH   9  11
ATOM     11  C   UNL     1       2.160   5.018  19.351  0.00  0.00    +0.000 A 
ATOM     12  C   UNL     1       1.852   5.488  20.655  0.00  0.00    +0.000 A 
ATOM     13  C   UNL     1       1.812   6.861  20.569  0.00  0.00    +0.000 A 
ATOM     14  O   UNL     1       2.103   7.266  19.306  0.00  0.00    +0.000 OA
ATOM     15  C   UNL     1       2.315   6.141  18.571  0.00  0.00    +0.000 A 
ENDBRANCH   9  11
ENDBRANCH   2   5
BRANCH   1  16
ATOM     16  C   UNL     1       5.849   4.488  15.822  0.00  0.00    +0.000 C 
BRANCH  16  17
ATOM     17  C   UNL     1       6.277   3.609  14.598  0.00  0.00    +0.000 C 
BRANCH  17  19
ATOM     18  C   UNL     1       7.437   4.694  12.588  0.00  0.00    +0.000 C 
ATOM     19  C   UNL     1       6.116   4.185  13.169  0.00  0.00    +0.000 C 
ATOM     20  C   UNL     1       5.570   3.120  12.195  0.00  0.00    +0.000 C 
ENDBRANCH  17  19
ENDBRANCH  16  17
BRANCH  16  21
ATOM     21  C   UNL     1       5.517   5.988  15.497  0.00  0.00    +0.000 C 
BRANCH  21  22
ATOM     22  N   UNL     1       6.164   6.949  16.444  0.00  0.00    +0.000 NA
ATOM     23  C   UNL     1       5.250   7.350  17.522  0.00  0.00    +0.000 C 
ATOM     24  C   UNL     1       7.376   6.396  17.067  0.00  0.00    +0.000 C 
ENDBRANCH  21  22
ENDBRANCH  16  21
ENDBRANCH   1  16
TORSDOF 7
ENDMDL
