MODEL 1
REMARK VINA RESULT:      -6.8      0.000      0.000
REMARK  Name = 
REMARK  8 active torsions:
REMARK  status: ('A' for Active; 'I' for Inactive)
REMARK    1  A    between atoms: C_1  and  C_2
REMARK    2  A    between atoms: C_2  and  C_3
REMARK    3  A    between atoms: C_3  and  C_4
REMARK    4  A    between atoms: C_3  and  C_5
REMARK    5  A    between atoms: N_7  and  CA_8
REMARK    6  A    between atoms: CA_8  and  CB_9
REMARK    7  A    between atoms: CA_8  and  C_15
REMARK    8  A    between atoms: CB_9  and  CG_10
REMARK                            x       y       z     vdW  Elec       q    Type
REMARK                         _______ _______ _______ _____ _____    ______ ____
ROOT
ATOM      1  CA  HIS A   1       6.702   5.030  18.169  0.00  0.00    +0.000 C 
ENDROOT
BRANCH   1   4
ATOM      2  C   UNK A   0       4.515   4.035  19.048  0.00  0.00    +0.000 C 
ATOM      3  O   UNK A   0       3.798   4.966  18.687  0.00  0.00    +0.000 OA
ATOM      4  N   HIS A   1       5.860   3.990  18.800  0.00  0.00    +0.000 N 
ATOM      5  H   HIS A   1       6.447   3.270  19.228  0.00  0.00    +0.000 HD
BRANCH   2   6
ATOM      6  C   UNK A   0       3.989   2.788  19.776  0.00  0.00    +0.000 C 
ATOM      7  C   UNK A   0       3.522   1.748  18.751  0.00  0.00    +0.000 C 
BRANCH   6   9
ATOM      8  C   UNK A   0       1.486   2.635  20.338  0.00  0.00    +0.000 C 
ATOM      9  C   UNK A   0       2.859   3.149  20.759  0.00  0.00    +0.000 C 
ENDBRANCH   6   9
ENDBRANCH   2   6
ENDBRANCH   1   4
BRANCH   1  10
ATOM     10  C   HIS A   1       7.574   5.774  19.239  0.00  0.00    +0.000 C 
ATOM     11  O   HIS A   1       7.570   5.291  20.403  0.00  0.00    +0.000 OA
ATOM     12  OXT HIS A   1       8.144   6.815  18.784  0.00  0.00    +0.000 OA
ENDBRANCH   1  10
BRANCH   1  13
ATOM     13  CB  HIS A   1       7.597   4.522  17.034  0.00  0.00    +0.000 C 
BRANCH  13  14
ATOM     14  CG  HIS A   1       7.005   4.529  15.653  0.00  0.00    +0.000 A 
ATOM     15  CD2 HIS A   1       5.951   3.800  15.147  0.00  0.00    +0.000 A 
ATOM     16  NE2 HIS A   1       6.002   3.952  13.798  0.00  0.00    +0.000 N 
ATOM     17  CE1 HIS A   1       6.992   4.853  13.528  0.00  0.00    +0.000 A 
ATOM     18  ND1 HIS A   1       7.578   5.280  14.637  0.00  0.00    +0.000 NA
ATOM     19  HE2 HIS A   1       5.448   3.440  13.126  0.00  0.00    +0.000 HD
ENDBRANCH  13  14
ENDBRANCH   1  13
TORSDOF 6
ENDMDL
MODEL 2
REMARK VINA RESULT:      -6.5      2.618      5.545
REMARK  Name = 
REMARK  8 active torsions:
REMARK  status: ('A' for Active; 'I' for Inactive)
REMARK    1  A    between atoms: C_1  and  C_2
REMARK    2  A    between atoms: C_2  and  C_3
REMARK    3  A    between atoms: C_3  and  C_4
REMARK    4  A    between atoms: C_3  and  C_5
REMARK    5  A    between atoms: N_7  and  CA_8
REMARK    6  A    between atoms: CA_8  and  CB_9
REMARK    7  A    between atoms: CA_8  and  C_15
REMARK    8  A    between atoms: CB_9  and  CG_10
REMARK                            x       y       z     vdW  Elec       q    Type
REMARK                         _______ _______ _______ _____ _____    ______ ____
ROOT
ATOM      1  CA  HIS A   1       3.101   5.921  18.642  0.00  0.00    +0.000 C 
ENDROOT
BRANCH   1   4
ATOM      2  C   UNK A   0       5.648   5.685  18.578  0.00  0.00    +0.000 C 
ATOM      3  O   UNK A   0       5.763   5.241  19.718  0.00  0.00    +0.000 OA
ATOM      4  N   HIS A   1       4.439   5.980  18.010  0.00  0.00    +0.000 N 
ATOM      5  H   HIS A   1       4.387   6.471  17.115  0.00  0.00    +0.000 HD
BRANCH   2   6
ATOM      6  C   UNK A   0       6.837   5.919  17.633  0.00  0.00    +0.000 C 
ATOM      7  C   UNK A   0       7.488   4.578  17.277  0.00  0.00    +0.000 C 
BRANCH   6   9
ATOM      8  C   UNK A   0       7.822   8.293  17.654  0.00  0.00    +0.000 C 
ATOM      9  C   UNK A   0       7.861   6.890  18.250  0.00  0.00    +0.000 C 
ENDBRANCH   6   9
ENDBRANCH   2   6
ENDBRANCH   1   4
BRANCH   1  10
ATOM     10  C   HIS A   1       2.505   7.359  18.831  0.00  0.00    +0.000 C 
ATOM     11  O   HIS A   1       2.626   8.151  17.859  0.00  0.00    +0.000 OA
ATOM     12  OXT HIS A   1       2.009   7.545  19.986  0.00  0.00    +0.000 OA
ENDBRANCH   1  10
BRANCH   1  13
ATOM     13  CB  HIS A   1       2.091   5.033  17.907  0.00  0.00    +0.000 C 
BRANCH  13  14
ATOM     14  CG  HIS A   1       2.294   3.548  18.015  0.00  0.00    +0.000 A 
ATOM     15  CD2 HIS A   1       1.428   2.575  18.466  0.00  0.00    +0.000 A 
ATOM     16  NE2 HIS A   1       2.178   1.456  18.636  0.00  0.00    +0.000 N 
ATOM     17  CE1 HIS A   1       3.433   1.732  18.175  0.00  0.00    +0.000 A 
ATOM     18  ND1 HIS A   1       3.523   2.975  17.725  0.00  0.00    +0.000 NA
ATOM     19  HE2 HIS A   1       1.869   0.602  19.080  0.00  0.00    +0.000 HD
ENDBRANCH  13  14
ENDBRANCH   1  13
TORSDOF 6
ENDMDL
MODEL 3
REMARK VINA RESULT:      -6.4      1.414      1.752
REMARK  Name = 
REMARK  8 active torsions:
REMARK  status: ('A' for Active; 'I' for Inactive)
REMARK    1  A    between atoms: C_1  and  C_2
REMARK    2  A    between atoms: C_2  and  C_3
REMARK    3  A    between atoms: C_3  and  C_4
REMARK    4  A    between atoms: C_3  and  C_5
REMARK    5  A    between atoms: N_7  and  CA_8
REMARK    6  A    between atoms: CA_8  and  CB_9
REMARK    7  A    between atoms: CA_8  and  C_15
REMARK    8  A    between atoms: CB_9  and  CG_10
REMARK                            x       y       z     vdW  Elec       q    Type
REMARK                         _______ _______ _______ _____ _____    ______ ____
ROOT
ATOM      1  CA  HIS A   1       6.713   5.706  17.903  0.00  0.00    +0.000 C 
ENDROOT
BRANCH   1   4
ATOM      2  C   UNK A   0       4.176   5.995  18.066  0.00  0.00    +0.000 C 
ATOM      3  O   UNK A   0       4.102   6.921  17.261  0.00  0.00    +0.000 OA
ATOM      4  N   HIS A   1       5.351   5.366  18.373  0.00  0.00    +0.000 N 
ATOM      5  H   HIS A   1       5.399   4.692  19.141  0.00  0.00    +0.000 HD
BRANCH   2   6
ATOM      6  C   UNK A   0       2.959   5.397  18.790  0.00  0.00    +0.000 C 
ATOM      7  C   UNK A   0       3.429   4.431  19.883  0.00  0.00    +0.000 C 
BRANCH   6   9
ATOM      8  C   UNK A   0       2.320   3.223  17.577  0.00  0.00    +0.000 C 
ATOM      9  C   UNK A   0       2.007   4.699  17.800  0.00  0.00    +0.000 C 
ENDBRANCH   6   9
ENDBRANCH   2   6
ENDBRANCH   1   4
BRANCH   1  10
ATOM     10  C   HIS A   1       7.640   6.099  19.105  0.00  0.00    +0.000 C 
ATOM     11  O   HIS A   1       7.504   5.429  20.164  0.00  0.00    +0.000 OA
ATOM     12  OXT HIS A   1       8.390   7.094  18.853  0.00  0.00    +0.000 OA
ENDBRANCH   1  10
BRANCH   1  13
ATOM     13  CB  HIS A   1       7.387   4.616  17.063  0.00  0.00    +0.000 C 
BRANCH  13  14
ATOM     14  CG  HIS A   1       6.929   4.484  15.638  0.00  0.00    +0.000 A 
ATOM     15  CD2 HIS A   1       6.008   3.616  15.090  0.00  0.00    +0.000 A 
ATOM     16  NE2 HIS A   1       6.170   3.699  13.744  0.00  0.00    +0.000 N 
ATOM     17  CE1 HIS A   1       7.081   4.688  13.504  0.00  0.00    +0.000 A 
ATOM     18  ND1 HIS A   1       7.513   5.236  14.630  0.00  0.00    +0.000 NA
ATOM     19  HE2 HIS A   1       5.737   3.093  13.060  0.00  0.00    +0.000 HD
ENDBRANCH  13  14
ENDBRANCH   1  13
TORSDOF 6
ENDMDL
MODEL 4
REMARK VINA RESULT:      -6.3      2.481      5.455
REMARK  Name = 
REMARK  8 active torsions:
REMARK  status: ('A' for Active; 'I' for Inactive)
REMARK    1  A    between atoms: C_1  and  C_2
REMARK    2  A    between atoms: C_2  and  C_3
REMARK    3  A    between atoms: C_3  and  C_4
REMARK    4  A    between atoms: C_3  and  C_5
REMARK    5  A    between atoms: N_7  and  CA_8
REMARK    6  A    between atoms: CA_8  and  CB_9
REMARK    7  A    between atoms: CA_8  and  C_15
REMARK    8  A    between atoms: CB_9  and  CG_10
REMARK                            x       y       z     vdW  Elec       q    Type
REMARK                         _______ _______ _______ _____ _____    ______ ____
ROOT
ATOM      1  CA  HIS A   1       3.237   5.846  18.550  0.00  0.00    +0.000 C 
ENDROOT
BRANCH   1   4
ATOM      2  C   UNK A   0       5.750   5.427  18.319  0.00  0.00    +0.000 C 
ATOM      3  O   UNK A   0       5.871   4.800  19.370  0.00  0.00    +0.000 OA
ATOM      4  N   HIS A   1       4.549   5.901  17.867  0.00  0.00    +0.000 N 
ATOM      5  H   HIS A   1       4.504   6.529  17.062  0.00  0.00    +0.000 HD
BRANCH   2   6
ATOM      6  C   UNK A   0       6.917   5.715  17.361  0.00  0.00    +0.000 C 
ATOM      7  C   UNK A   0       7.444   7.135  17.598  0.00  0.00    +0.000 C 
BRANCH   6   9
ATOM      8  C   UNK A   0       6.427   4.051  15.464  0.00  0.00    +0.000 C 
ATOM      9  C   UNK A   0       6.498   5.513  15.892  0.00  0.00    +0.000 C 
ENDBRANCH   6   9
ENDBRANCH   2   6
ENDBRANCH   1   4
BRANCH   1  10
ATOM     10  C   HIS A   1       2.659   7.287  18.772  0.00  0.00    +0.000 C 
ATOM     11  O   HIS A   1       2.757   8.089  17.805  0.00  0.00    +0.000 OA
ATOM     12  OXT HIS A   1       2.200   7.465  19.944  0.00  0.00    +0.000 OA
ENDBRANCH   1  10
BRANCH   1  13
ATOM     13  CB  HIS A   1       2.192   4.971  17.850  0.00  0.00    +0.000 C 
BRANCH  13  14
ATOM     14  CG  HIS A   1       2.332   3.485  18.022  0.00  0.00    +0.000 A 
ATOM     15  CD2 HIS A   1       1.444   2.577  18.557  0.00  0.00    +0.000 A 
ATOM     16  NE2 HIS A   1       2.148   1.432  18.751  0.00  0.00    +0.000 N 
ATOM     17  CE1 HIS A   1       3.393   1.627  18.224  0.00  0.00    +0.000 A 
ATOM     18  ND1 HIS A   1       3.520   2.841  17.708  0.00  0.00    +0.000 NA
ATOM     19  HE2 HIS A   1       1.821   0.616  19.250  0.00  0.00    +0.000 HD
ENDBRANCH  13  14
ENDBRANCH   1  13
TORSDOF 6
ENDMDL
MODEL 5
REMARK VINA RESULT:      -6.2      2.672      5.994
REMARK  Name = 
REMARK  8 active torsions:
REMARK  status: ('A' for Active; 'I' for Inactive)
REMARK    1  A    between atoms: C_1  and  C_2
REMARK    2  A    between atoms: C_2  and  C_3
REMARK    3  A    between atoms: C_3  and  C_4
REMARK    4  A    between atoms: C_3  and  C_5
REMARK    5  A    between atoms: N_7  and  CA_8
REMARK    6  A    between atoms: CA_8  and  CB_9
REMARK    7  A    between atoms: CA_8  and  C_15
REMARK    8  A    between atoms: CB_9  and  CG_10
REMARK                            x       y       z     vdW  Elec       q    Type
REMARK                         _______ _______ _______ _____ _____    ______ ____
ROOT
ATOM      1  CA  HIS A   1       4.339   3.951  17.539  0.00  0.00    +0.000 C 
ENDROOT
BRANCH   1   4
ATOM      2  C   UNK A   0       6.662   4.961  17.177  0.00  0.00    +0.000 C 
ATOM      3  O   UNK A   0       6.955   4.263  16.209  0.00  0.00    +0.000 OA
ATOM      4  N   HIS A   1       5.450   4.891  17.809  0.00  0.00    +0.000 N 
ATOM      5  H   HIS A   1       5.289   5.387  18.688  0.00  0.00    +0.000 HD
BRANCH   2   6
ATOM      6  C   UNK A   0       7.595   6.030  17.768  0.00  0.00    +0.000 C 
ATOM      7  C   UNK A   0       7.735   5.818  19.279  0.00  0.00    +0.000 C 
BRANCH   6   9
ATOM      8  C   UNK A   0       8.070   8.555  17.834  0.00  0.00    +0.000 C 
ATOM      9  C   UNK A   0       7.091   7.451  17.448  0.00  0.00    +0.000 C 
ENDBRANCH   6   9
ENDBRANCH   2   6
ENDBRANCH   1   4
BRANCH   1  10
ATOM     10  C   HIS A   1       4.343   2.766  18.566  0.00  0.00    +0.000 C 
ATOM     11  O   HIS A   1       3.650   1.758  18.266  0.00  0.00    +0.000 OA
ATOM     12  OXT HIS A   1       5.027   3.012  19.609  0.00  0.00    +0.000 OA
ENDBRANCH   1  10
BRANCH   1  13
ATOM     13  CB  HIS A   1       2.952   4.601  17.501  0.00  0.00    +0.000 C 
BRANCH  13  14
ATOM     14  CG  HIS A   1       2.348   4.978  18.825  0.00  0.00    +0.000 A 
ATOM     15  CD2 HIS A   1       2.682   6.006  19.680  0.00  0.00    +0.000 A 
ATOM     16  NE2 HIS A   1       2.048   5.742  20.851  0.00  0.00    +0.000 N 
ATOM     17  CE1 HIS A   1       1.258   4.646  20.648  0.00  0.00    +0.000 A 
ATOM     18  ND1 HIS A   1       1.362   4.195  19.406  0.00  0.00    +0.000 NA
ATOM     19  HE2 HIS A   1       2.190   6.234  21.723  0.00  0.00    +0.000 HD
ENDBRANCH  13  14
ENDBRANCH   1  13
TORSDOF 6
ENDMDL
MODEL 6
REMARK VINA RESULT:      -6.2      2.557      5.749
REMARK  Name = 
REMARK  8 active torsions:
REMARK  status: ('A' for Active; 'I' for Inactive)
REMARK    1  A    between atoms: C_1  and  C_2
REMARK    2  A    between atoms: C_2  and  C_3
REMARK    3  A    between atoms: C_3  and  C_4
REMARK    4  A    between atoms: C_3  and  C_5
REMARK    5  A    between atoms: N_7  and  CA_8
REMARK    6  A    between atoms: CA_8  and  CB_9
REMARK    7  A    between atoms: CA_8  and  C_15
REMARK    8  A    between atoms: CB_9  and  CG_10
REMARK                            x       y       z     vdW  Elec       q    Type
REMARK                         _______ _______ _______ _____ _____    ______ ____
ROOT
ATOM      1  CA  HIS A   1       5.687   3.828  16.928  0.00  0.00    +0.000 C 
ENDROOT
BRANCH   1   4
ATOM      2  C   UNK A   0       6.207   4.483  14.510  0.00  0.00    +0.000 C 
ATOM      3  O   UNK A   0       6.077   5.694  14.676  0.00  0.00    +0.000 OA
ATOM      4  N   HIS A   1       6.078   3.572  15.523  0.00  0.00    +0.000 N 
ATOM      5  H   HIS A   1       6.059   2.569  15.326  0.00  0.00    +0.000 HD
BRANCH   2   6
ATOM      6  C   UNK A   0       6.574   3.843  13.161  0.00  0.00    +0.000 C 
ATOM      7  C   UNK A   0       7.442   4.810  12.348  0.00  0.00    +0.000 C 
BRANCH   6   9
ATOM      8  C   UNK A   0       5.510   2.201  11.494  0.00  0.00    +0.000 C 
ATOM      9  C   UNK A   0       5.315   3.430  12.376  0.00  0.00    +0.000 C 
ENDBRANCH   6   9
ENDBRANCH   2   6
ENDBRANCH   1   4
BRANCH   1  10
ATOM     10  C   HIS A   1       6.718   4.775  17.634  0.00  0.00    +0.000 C 
ATOM     11  O   HIS A   1       7.934   4.463  17.529  0.00  0.00    +0.000 OA
ATOM     12  OXT HIS A   1       6.166   5.728  18.269  0.00  0.00    +0.000 OA
ENDBRANCH   1  10
BRANCH   1  13
ATOM     13  CB  HIS A   1       4.270   4.381  17.103  0.00  0.00    +0.000 C 
BRANCH  13  14
ATOM     14  CG  HIS A   1       3.267   3.474  17.759  0.00  0.00    +0.000 A 
ATOM     15  CD2 HIS A   1       3.334   2.116  17.991  0.00  0.00    +0.000 A 
ATOM     16  NE2 HIS A   1       2.078   1.733  18.336  0.00  0.00    +0.000 N 
ATOM     17  CE1 HIS A   1       1.317   2.864  18.426  0.00  0.00    +0.000 A 
ATOM     18  ND1 HIS A   1       2.025   3.950  18.149  0.00  0.00    +0.000 NA
ATOM     19  HE2 HIS A   1       1.761   0.779  18.443  0.00  0.00    +0.000 HD
ENDBRANCH  13  14
ENDBRANCH   1  13
TORSDOF 6
ENDMDL
MODEL 7
REMARK VINA RESULT:      -6.2      2.541      3.332
REMARK  Name = 
REMARK  8 active torsions:
REMARK  status: ('A' for Active; 'I' for Inactive)
REMARK    1  A    between atoms: C_1  and  C_2
REMARK    2  A    between atoms: C_2  and  C_3
REMARK    3  A    between atoms: C_3  and  C_4
REMARK    4  A    between atoms: C_3  and  C_5
REMARK    5  A    between atoms: N_7  and  CA_8
REMARK    6  A    between atoms: CA_8  and  CB_9
REMARK    7  A    between atoms: CA_8  and  C_15
REMARK    8  A    between atoms: CB_9  and  CG_10
REMARK                            x       y       z     vdW  Elec       q    Type
REMARK                         _______ _______ _______ _____ _____    ______ ____
ROOT
ATOM      1  CA  HIS A   1       3.323   6.281  17.618  0.00  0.00    +0.000 C 
ENDROOT
BRANCH   1   4
ATOM      2  C   UNK A   0       2.496   3.925  18.177  0.00  0.00    +0.000 C 
ATOM      3  O   UNK A   0       1.587   3.910  17.350  0.00  0.00    +0.000 OA
ATOM      4  N   HIS A   1       3.358   4.978  18.320  0.00  0.00    +0.000 N 
ATOM      5  H   HIS A   1       4.014   5.015  19.103  0.00  0.00    +0.000 HD
BRANCH   2   6
ATOM      6  C   UNK A   0       2.809   2.751  19.118  0.00  0.00    +0.000 C 
ATOM      7  C   UNK A   0       3.439   1.603  18.322  0.00  0.00    +0.000 C 
BRANCH   6   9
ATOM      8  C   UNK A   0       1.324   2.989  21.202  0.00  0.00    +0.000 C 
ATOM      9  C   UNK A   0       1.548   2.283  19.869  0.00  0.00    +0.000 C 
ENDBRANCH   6   9
ENDBRANCH   2   6
ENDBRANCH   1   4
BRANCH   1  10
ATOM     10  C   HIS A   1       2.605   7.370  18.490  0.00  0.00    +0.000 C 
ATOM     11  O   HIS A   1       2.285   8.439  17.905  0.00  0.00    +0.000 OA
ATOM     12  OXT HIS A   1       2.482   7.032  19.709  0.00  0.00    +0.000 OA
ENDBRANCH   1  10
BRANCH   1  13
ATOM     13  CB  HIS A   1       4.693   6.798  17.169  0.00  0.00    +0.000 C 
BRANCH  13  14
ATOM     14  CG  HIS A   1       5.665   5.773  16.653  0.00  0.00    +0.000 A 
ATOM     15  CD2 HIS A   1       7.038   5.733  16.764  0.00  0.00    +0.000 A 
ATOM     16  NE2 HIS A   1       7.457   4.780  15.893  0.00  0.00    +0.000 N 
ATOM     17  CE1 HIS A   1       6.343   4.186  15.373  0.00  0.00    +0.000 A 
ATOM     18  ND1 HIS A   1       5.233   4.717  15.864  0.00  0.00    +0.000 NA
ATOM     19  HE2 HIS A   1       8.418   4.596  15.639  0.00  0.00    +0.000 HD
ENDBRANCH  13  14
ENDBRANCH   1  13
TORSDOF 6
ENDMDL
MODEL 8
REMARK VINA RESULT:      -6.2      2.795      5.829
REMARK  Name = 
REMARK  8 active torsions:
REMARK  status: ('A' for Active; 'I' for Inactive)
REMARK    1  A    between atoms: C_1  and  C_2
REMARK    2  A    between atoms: C_2  and  C_3
REMARK    3  A    between atoms: C_3  and  C_4
REMARK    4  A    between atoms: C_3  and  C_5
REMARK    5  A    between atoms: N_7  and  CA_8
REMARK    6  A    between atoms: CA_8  and  CB_9
REMARK    7  A    between atoms: CA_8  and  C_15
REMARK    8  A    between atoms: CB_9  and  CG_10
REMARK                            x       y       z     vdW  Elec       q    Type
REMARK                         _______ _______ _______ _____ _____    ______ ____
ROOT
ATOM      1  CA  HIS A   1       3.693   3.455  17.715  0.00  0.00    +0.000 C 
ENDROOT
BRANCH   1   4
ATOM      2  C   UNK A   0       5.713   4.498  16.542  0.00  0.00    +0.000 C 
ATOM      3  O   UNK A   0       5.463   4.041  15.429  0.00  0.00    +0.000 OA
ATOM      4  N   HIS A   1       4.909   4.294  17.630  0.00  0.00    +0.000 N 
ATOM      5  H   HIS A   1       5.213   4.574  18.565  0.00  0.00    +0.000 HD
BRANCH   2   6
ATOM      6  C   UNK A   0       6.928   5.390  16.842  0.00  0.00    +0.000 C 
ATOM      7  C   UNK A   0       7.762   4.769  17.968  0.00  0.00    +0.000 C 
BRANCH   6   9
ATOM      8  C   UNK A   0       7.649   7.743  17.584  0.00  0.00    +0.000 C 
ATOM      9  C   UNK A   0       6.495   6.826  17.196  0.00  0.00    +0.000 C 
ENDBRANCH   6   9
ENDBRANCH   2   6
ENDBRANCH   1   4
BRANCH   1  10
ATOM     10  C   HIS A   1       3.821   2.397  18.865  0.00  0.00    +0.000 C 
ATOM     11  O   HIS A   1       4.774   2.555  19.674  0.00  0.00    +0.000 OA
ATOM     12  OXT HIS A   1       2.948   1.475  18.795  0.00  0.00    +0.000 OA
ENDBRANCH   1  10
BRANCH   1  13
ATOM     13  CB  HIS A   1       2.388   4.241  17.877  0.00  0.00    +0.000 C 
BRANCH  13  14
ATOM     14  CG  HIS A   1       2.380   5.330  18.913  0.00  0.00    +0.000 A 
ATOM     15  CD2 HIS A   1       2.030   5.270  20.245  0.00  0.00    +0.000 A 
ATOM     16  NE2 HIS A   1       1.915   6.558  20.660  0.00  0.00    +0.000 N 
ATOM     17  CE1 HIS A   1       2.312   7.356  19.626  0.00  0.00    +0.000 A 
ATOM     18  ND1 HIS A   1       2.669   6.642  18.569  0.00  0.00    +0.000 NA
ATOM     19  HE2 HIS A   1       1.543   6.859  21.551  0.00  0.00    +0.000 HD
ENDBRANCH  13  14
ENDBRANCH   1  13
TORSDOF 6
ENDMDL
MODEL 9
REMARK VINA RESULT:      -6.2      2.884      5.757
REMARK  Name = 
REMARK  8 active torsions:
REMARK  status: ('A' for Active; 'I' for Inactive)
REMARK    1  A    between atoms: C_1  and  C_2
REMARK    2  A    between atoms: C_2  and  C_3
REMARK    3  A    between atoms: C_3  and  C_4
REMARK    4  A    between atoms: C_3  and  C_5
REMARK    5  A    between atoms: N_7  and  CA_8
REMARK    6  A    between atoms: CA_8  and  CB_9
REMARK    7  A    between atoms: CA_8  and  C_15
REMARK    8  A    between atoms: CB_9  and  CG_10
REMARK                            x       y       z     vdW  Elec       q    Type
REMARK                         _______ _______ _______ _____ _____    ______ ____
ROOT
ATOM      1  CA  HIS A   1       3.213   6.018  18.708  0.00  0.00    +0.000 C 
ENDROOT
BRANCH   1   4
ATOM      2  C   UNK A   0       5.633   5.186  18.684  0.00  0.00    +0.000 C 
ATOM      3  O   UNK A   0       5.426   4.176  19.352  0.00  0.00    +0.000 OA
ATOM      4  N   HIS A   1       4.641   6.056  18.320  0.00  0.00    +0.000 N 
ATOM      5  H   HIS A   1       4.866   6.951  17.881  0.00  0.00    +0.000 HD
BRANCH   2   6
ATOM      6  C   UNK A   0       7.015   5.575  18.135  0.00  0.00    +0.000 C 
ATOM      7  C   UNK A   0       7.986   5.814  19.297  0.00  0.00    +0.000 C 
BRANCH   6   9
ATOM      8  C   UNK A   0       7.813   7.971  17.659  0.00  0.00    +0.000 C 
ATOM      9  C   UNK A   0       6.926   6.811  17.220  0.00  0.00    +0.000 C 
ENDBRANCH   6   9
ENDBRANCH   2   6
ENDBRANCH   1   4
BRANCH   1  10
ATOM     10  C   HIS A   1       2.614   7.465  18.787  0.00  0.00    +0.000 C 
ATOM     11  O   HIS A   1       2.020   7.771  19.854  0.00  0.00    +0.000 OA
ATOM     12  OXT HIS A   1       2.777   8.132  17.717  0.00  0.00    +0.000 OA
ENDBRANCH   1  10
BRANCH   1  13
ATOM     13  CB  HIS A   1       2.334   5.141  17.811  0.00  0.00    +0.000 C 
BRANCH  13  14
ATOM     14  CG  HIS A   1       2.079   3.737  18.282  0.00  0.00    +0.000 A 
ATOM     15  CD2 HIS A   1       2.629   2.551  17.843  0.00  0.00    +0.000 A 
ATOM     16  NE2 HIS A   1       1.865   1.564  18.376  0.00  0.00    +0.000 N 
ATOM     17  CE1 HIS A   1       0.960   2.154  19.211  0.00  0.00    +0.000 A 
ATOM     18  ND1 HIS A   1       1.106   3.471  19.233  0.00  0.00    +0.000 NA
ATOM     19  HE2 HIS A   1       1.924   0.582  18.142  0.00  0.00    +0.000 HD
ENDBRANCH  13  14
ENDBRANCH   1  13
TORSDOF 6
ENDMDL
