MODEL 1
REMARK VINA RESULT:      -8.4      0.000      0.000
REMARK  Name = 
REMARK  1 active torsions:
REMARK  status: ('A' for Active; 'I' for Inactive)
REMARK    1  A    between atoms: C_4  and  C_5
REMARK                            x       y       z     vdW  Elec       q    Type
REMARK                         _______ _______ _______ _____ _____    ______ ____
ROOT
ATOM      1  C   UNL     1       5.961   4.065  15.974  0.00  0.00    +0.000 C 
ATOM      2  N   UNL     1       7.044   4.877  16.622  0.00  0.00    +0.000 NA
ATOM      3  C   UNL     1       7.157   4.757  18.062  0.00  0.00    +0.000 C 
ATOM      4  C   UNL     1       5.927   5.365  18.704  0.00  0.00    +0.000 C 
ATOM      5  C   UNL     1       4.739   4.691  18.136  0.00  0.00    +0.000 A 
ATOM      6  C   UNL     1       4.678   4.248  16.817  0.00  0.00    +0.000 A 
ATOM      7  N   UNL     1       3.391   3.708  16.694  0.00  0.00    +0.000 N 
ATOM      8  C   UNL     1       2.718   3.756  17.932  0.00  0.00    +0.000 A 
ATOM      9  C   UNL     1       1.416   3.404  18.361  0.00  0.00    +0.000 A 
ATOM     10  C   UNL     1       1.119   3.503  19.744  0.00  0.00    +0.000 A 
ATOM     11  C   UNL     1       2.082   3.859  20.677  0.00  0.00    +0.000 A 
ATOM     12  C   UNL     1       3.350   4.227  20.254  0.00  0.00    +0.000 A 
ATOM     13  C   UNL     1       3.630   4.241  18.864  0.00  0.00    +0.000 A 
ATOM     14  H   UNL     1       6.828   5.848  16.384  0.00  0.00    +0.000 HD
ATOM     15  H   UNL     1       3.009   3.262  15.872  0.00  0.00    +0.000 HD
ENDROOT
BRANCH   1  19
ATOM     16  C   UNL     1       7.084   4.002  11.824  0.00  0.00    +0.000 A 
ATOM     17  C   UNL     1       5.941   3.365  12.278  0.00  0.00    +0.000 A 
ATOM     18  C   UNL     1       5.493   3.630  13.571  0.00  0.00    +0.000 A 
ATOM     19  C   UNL     1       6.225   4.444  14.500  0.00  0.00    +0.000 A 
ATOM     20  C   UNL     1       7.333   5.129  14.000  0.00  0.00    +0.000 A 
ATOM     21  C   UNL     1       7.742   4.914  12.659  0.00  0.00    +0.000 A 
ENDBRANCH   1  19
TORSDOF 1
ENDMDL
MODEL 2
REMARK VINA RESULT:      -8.3      1.172      1.701
REMARK  Name = 
REMARK  1 active torsions:
REMARK  status: ('A' for Active; 'I' for Inactive)
REMARK    1  A    between atoms: C_4  and  C_5
REMARK                            x       y       z     vdW  Elec       q    Type
REMARK                         _______ _______ _______ _____ _____    ______ ____
ROOT
ATOM      1  C   UNL     1       5.723   4.628  16.255  0.00  0.00    +0.000 C 
ATOM      2  N   UNL     1       5.796   6.112  16.039  0.00  0.00    +0.000 NA
ATOM      3  C   UNL     1       5.400   6.939  17.162  0.00  0.00    +0.000 C 
ATOM      4  C   UNL     1       3.915   6.763  17.403  0.00  0.00    +0.000 C 
ATOM      5  C   UNL     1       3.656   5.319  17.599  0.00  0.00    +0.000 A 
ATOM      6  C   UNL     1       4.367   4.324  16.933  0.00  0.00    +0.000 A 
ATOM      7  N   UNL     1       3.791   3.129  17.382  0.00  0.00    +0.000 N 
ATOM      8  C   UNL     1       2.805   3.394  18.354  0.00  0.00    +0.000 A 
ATOM      9  C   UNL     1       1.900   2.588  19.086  0.00  0.00    +0.000 A 
ATOM     10  C   UNL     1       1.103   3.212  20.078  0.00  0.00    +0.000 A 
ATOM     11  C   UNL     1       1.242   4.557  20.392  0.00  0.00    +0.000 A 
ATOM     12  C   UNL     1       2.110   5.350  19.659  0.00  0.00    +0.000 A 
ATOM     13  C   UNL     1       2.834   4.765  18.589  0.00  0.00    +0.000 A 
ATOM     14  H   UNL     1       5.172   6.298  15.251  0.00  0.00    +0.000 HD
ATOM     15  H   UNL     1       4.082   2.196  17.128  0.00  0.00    +0.000 HD
ENDROOT
BRANCH   1  19
ATOM     16  C   UNL     1       6.958   4.442  12.141  0.00  0.00    +0.000 A 
ATOM     17  C   UNL     1       7.720   5.088  13.100  0.00  0.00    +0.000 A 
ATOM     18  C   UNL     1       7.406   4.900  14.445  0.00  0.00    +0.000 A 
ATOM     19  C   UNL     1       6.257   4.159  14.883  0.00  0.00    +0.000 A 
ATOM     20  C   UNL     1       5.548   3.461  13.905  0.00  0.00    +0.000 A 
ATOM     21  C   UNL     1       5.917   3.596  12.542  0.00  0.00    +0.000 A 
ENDBRANCH   1  19
TORSDOF 1
ENDMDL
MODEL 3
REMARK VINA RESULT:      -7.9      1.140      1.587
REMARK  Name = 
REMARK  1 active torsions:
REMARK  status: ('A' for Active; 'I' for Inactive)
REMARK    1  A    between atoms: C_4  and  C_5
REMARK                            x       y       z     vdW  Elec       q    Type
REMARK                         _______ _______ _______ _____ _____    ______ ____
ROOT
ATOM      1  C   UNL     1       6.402   4.589  15.913  0.00  0.00    +0.000 C 
ATOM      2  N   UNL     1       7.008   5.961  15.965  0.00  0.00    +0.000 NA
ATOM      3  C   UNL     1       6.871   6.670  17.222  0.00  0.00    +0.000 C 
ATOM      4  C   UNL     1       5.409   7.000  17.444  0.00  0.00    +0.000 C 
ATOM      5  C   UNL     1       4.644   5.735  17.381  0.00  0.00    +0.000 A 
ATOM      6  C   UNL     1       4.992   4.681  16.540  0.00  0.00    +0.000 A 
ATOM      7  N   UNL     1       4.005   3.714  16.774  0.00  0.00    +0.000 N 
ATOM      8  C   UNL     1       3.126   4.144  17.789  0.00  0.00    +0.000 A 
ATOM      9  C   UNL     1       1.956   3.605  18.374  0.00  0.00    +0.000 A 
ATOM     10  C   UNL     1       1.379   4.294  19.471  0.00  0.00    +0.000 A 
ATOM     11  C   UNL     1       1.970   5.424  20.018  0.00  0.00    +0.000 A 
ATOM     12  C   UNL     1       3.101   5.966  19.430  0.00  0.00    +0.000 A 
ATOM     13  C   UNL     1       3.627   5.352  18.264  0.00  0.00    +0.000 A 
ATOM     14  H   UNL     1       6.534   6.490  15.230  0.00  0.00    +0.000 HD
ATOM     15  H   UNL     1       3.960   2.796  16.354  0.00  0.00    +0.000 HD
ENDROOT
BRANCH   1  19
ATOM     16  C   UNL     1       7.052   4.564  11.663  0.00  0.00    +0.000 A 
ATOM     17  C   UNL     1       7.818   5.345  12.511  0.00  0.00    +0.000 A 
ATOM     18  C   UNL     1       7.737   5.124  13.885  0.00  0.00    +0.000 A 
ATOM     19  C   UNL     1       6.808   4.201  14.474  0.00  0.00    +0.000 A 
ATOM     20  C   UNL     1       6.099   3.377  13.599  0.00  0.00    +0.000 A 
ATOM     21  C   UNL     1       6.241   3.555  12.199  0.00  0.00    +0.000 A 
ENDBRANCH   1  19
TORSDOF 1
ENDMDL
MODEL 4
REMARK VINA RESULT:      -7.9      1.068      1.111
REMARK  Name = 
REMARK  1 active torsions:
REMARK  status: ('A' for Active; 'I' for Inactive)
REMARK    1  A    between atoms: C_4  and  C_5
REMARK                            x       y       z     vdW  Elec       q    Type
REMARK                         _______ _______ _______ _____ _____    ______ ____
ROOT
ATOM      1  C   UNL     1       5.632   4.891  15.867  0.00  0.00    +0.000 C 
ATOM      2  N   UNL     1       6.008   6.323  16.110  0.00  0.00    +0.000 NA
ATOM      3  C   UNL     1       5.855   6.799  17.471  0.00  0.00    +0.000 C 
ATOM      4  C   UNL     1       4.381   6.833  17.817  0.00  0.00    +0.000 C 
ATOM      5  C   UNL     1       3.831   5.478  17.589  0.00  0.00    +0.000 A 
ATOM      6  C   UNL     1       4.279   4.640  16.571  0.00  0.00    +0.000 A 
ATOM      7  N   UNL     1       3.485   3.493  16.695  0.00  0.00    +0.000 N 
ATOM      8  C   UNL     1       2.629   3.606  17.809  0.00  0.00    +0.000 A 
ATOM      9  C   UNL     1       1.612   2.789  18.358  0.00  0.00    +0.000 A 
ATOM     10  C   UNL     1       1.017   3.194  19.580  0.00  0.00    +0.000 A 
ATOM     11  C   UNL     1       1.455   4.313  20.273  0.00  0.00    +0.000 A 
ATOM     12  C   UNL     1       2.434   5.126  19.724  0.00  0.00    +0.000 A 
ATOM     13  C   UNL     1       2.961   4.796  18.449  0.00  0.00    +0.000 A 
ATOM     14  H   UNL     1       5.399   6.867  15.496  0.00  0.00    +0.000 HD
ATOM     15  H   UNL     1       3.558   2.656  16.134  0.00  0.00    +0.000 HD
ENDROOT
BRANCH   1  19
ATOM     16  C   UNL     1       6.790   3.508  11.963  0.00  0.00    +0.000 A 
ATOM     17  C   UNL     1       5.543   3.224  12.495  0.00  0.00    +0.000 A 
ATOM     18  C   UNL     1       5.130   3.904  13.640  0.00  0.00    +0.000 A 
ATOM     19  C   UNL     1       5.984   4.802  14.365  0.00  0.00    +0.000 A 
ATOM     20  C   UNL     1       7.206   5.125  13.773  0.00  0.00    +0.000 A 
ATOM     21  C   UNL     1       7.590   4.486  12.566  0.00  0.00    +0.000 A 
ENDBRANCH   1  19
TORSDOF 1
ENDMDL
MODEL 5
REMARK VINA RESULT:      -7.9      5.444      7.545
REMARK  Name = 
REMARK  1 active torsions:
REMARK  status: ('A' for Active; 'I' for Inactive)
REMARK    1  A    between atoms: C_4  and  C_5
REMARK                            x       y       z     vdW  Elec       q    Type
REMARK                         _______ _______ _______ _____ _____    ______ ____
ROOT
ATOM      1  C   UNL     1       2.232   7.264  19.725  0.00  0.00    +0.000 C 
ATOM      2  N   UNL     1       2.343   7.581  18.262  0.00  0.00    +0.000 NA
ATOM      3  C   UNL     1       2.433   8.987  17.920  0.00  0.00    +0.000 C 
ATOM      4  C   UNL     1       1.118   9.660  18.254  0.00  0.00    +0.000 C 
ATOM      5  C   UNL     1       0.830   9.407  19.683  0.00  0.00    +0.000 A 
ATOM      6  C   UNL     1       1.180   8.224  20.328  0.00  0.00    +0.000 A 
ATOM      7  N   UNL     1       0.704   8.390  21.635  0.00  0.00    +0.000 N 
ATOM      8  C   UNL     1       0.147   9.675  21.795  0.00  0.00    +0.000 A 
ATOM      9  C   UNL     1      -0.505  10.342  22.860  0.00  0.00    +0.000 A 
ATOM     10  C   UNL     1      -0.851  11.705  22.682  0.00  0.00    +0.000 A 
ATOM     11  C   UNL     1      -0.503  12.406  21.536  0.00  0.00    +0.000 A 
ATOM     12  C   UNL     1       0.113  11.747  20.484  0.00  0.00    +0.000 A 
ATOM     13  C   UNL     1       0.366  10.356  20.602  0.00  0.00    +0.000 A 
ATOM     14  H   UNL     1       1.499   7.188  17.839  0.00  0.00    +0.000 HD
ATOM     15  H   UNL     1       0.812   7.734  22.396  0.00  0.00    +0.000 HD
ENDROOT
BRANCH   1  19
ATOM     16  C   UNL     1       1.209   3.186  18.829  0.00  0.00    +0.000 A 
ATOM     17  C   UNL     1       1.775   4.019  17.879  0.00  0.00    +0.000 A 
ATOM     18  C   UNL     1       2.316   5.236  18.289  0.00  0.00    +0.000 A 
ATOM     19  C   UNL     1       2.211   5.722  19.636  0.00  0.00    +0.000 A 
ATOM     20  C   UNL     1       1.701   4.838  20.587  0.00  0.00    +0.000 A 
ATOM     21  C   UNL     1       1.219   3.568  20.176  0.00  0.00    +0.000 A 
ENDBRANCH   1  19
TORSDOF 1
ENDMDL
MODEL 6
REMARK VINA RESULT:      -7.7      1.207      6.231
REMARK  Name = 
REMARK  1 active torsions:
REMARK  status: ('A' for Active; 'I' for Inactive)
REMARK    1  A    between atoms: C_4  and  C_5
REMARK                            x       y       z     vdW  Elec       q    Type
REMARK                         _______ _______ _______ _____ _____    ______ ____
ROOT
ATOM      1  C   UNL     1       4.581   4.862  18.647  0.00  0.00    +0.000 C 
ATOM      2  N   UNL     1       5.754   5.013  19.572  0.00  0.00    +0.000 NA
ATOM      3  C   UNL     1       6.912   5.692  19.026  0.00  0.00    +0.000 C 
ATOM      4  C   UNL     1       7.521   4.830  17.938  0.00  0.00    +0.000 C 
ATOM      5  C   UNL     1       6.465   4.547  16.941  0.00  0.00    +0.000 A 
ATOM      6  C   UNL     1       5.125   4.379  17.283  0.00  0.00    +0.000 A 
ATOM      7  N   UNL     1       4.491   4.105  16.064  0.00  0.00    +0.000 N 
ATOM      8  C   UNL     1       5.414   4.181  15.002  0.00  0.00    +0.000 A 
ATOM      9  C   UNL     1       5.333   3.954  13.607  0.00  0.00    +0.000 A 
ATOM     10  C   UNL     1       6.477   4.234  12.817  0.00  0.00    +0.000 A 
ATOM     11  C   UNL     1       7.628   4.784  13.364  0.00  0.00    +0.000 A 
ATOM     12  C   UNL     1       7.715   4.983  14.733  0.00  0.00    +0.000 A 
ATOM     13  C   UNL     1       6.620   4.605  15.551  0.00  0.00    +0.000 A 
ATOM     14  H   UNL     1       6.016   4.059  19.827  0.00  0.00    +0.000 HD
ATOM     15  H   UNL     1       3.500   3.959  15.929  0.00  0.00    +0.000 HD
ENDROOT
BRANCH   1  19
ATOM     16  C   UNL     1       1.190   2.848  20.359  0.00  0.00    +0.000 A 
ATOM     17  C   UNL     1       2.087   2.189  19.536  0.00  0.00    +0.000 A 
ATOM     18  C   UNL     1       3.293   2.814  19.220  0.00  0.00    +0.000 A 
ATOM     19  C   UNL     1       3.602   4.160  19.613  0.00  0.00    +0.000 A 
ATOM     20  C   UNL     1       2.716   4.776  20.498  0.00  0.00    +0.000 A 
ATOM     21  C   UNL     1       1.525   4.106  20.877  0.00  0.00    +0.000 A 
ENDBRANCH   1  19
TORSDOF 1
ENDMDL
MODEL 7
REMARK VINA RESULT:      -7.7      1.085      6.310
REMARK  Name = 
REMARK  1 active torsions:
REMARK  status: ('A' for Active; 'I' for Inactive)
REMARK    1  A    between atoms: C_4  and  C_5
REMARK                            x       y       z     vdW  Elec       q    Type
REMARK                         _______ _______ _______ _____ _____    ______ ____
ROOT
ATOM      1  C   UNL     1       4.264   5.107  17.373  0.00  0.00    +0.000 C 
ATOM      2  N   UNL     1       5.216   5.800  18.304  0.00  0.00    +0.000 NA
ATOM      3  C   UNL     1       6.187   6.680  17.683  0.00  0.00    +0.000 C 
ATOM      4  C   UNL     1       7.151   5.848  16.863  0.00  0.00    +0.000 C 
ATOM      5  C   UNL     1       6.357   5.054  15.899  0.00  0.00    +0.000 A 
ATOM      6  C   UNL     1       5.092   4.551  16.192  0.00  0.00    +0.000 A 
ATOM      7  N   UNL     1       4.724   3.851  15.036  0.00  0.00    +0.000 N 
ATOM      8  C   UNL     1       5.711   3.993  14.040  0.00  0.00    +0.000 A 
ATOM      9  C   UNL     1       5.876   3.474  12.733  0.00  0.00    +0.000 A 
ATOM     10  C   UNL     1       6.979   3.929  11.968  0.00  0.00    +0.000 A 
ATOM     11  C   UNL     1       7.842   4.910  12.437  0.00  0.00    +0.000 A 
ATOM     12  C   UNL     1       7.695   5.400  13.726  0.00  0.00    +0.000 A 
ATOM     13  C   UNL     1       6.663   4.874  14.544  0.00  0.00    +0.000 A 
ATOM     14  H   UNL     1       5.710   5.047  18.788  0.00  0.00    +0.000 HD
ATOM     15  H   UNL     1       3.843   3.380  14.880  0.00  0.00    +0.000 HD
ENDROOT
BRANCH   1  19
ATOM     16  C   UNL     1       1.047   3.672  19.838  0.00  0.00    +0.000 A 
ATOM     17  C   UNL     1       1.159   3.311  18.506  0.00  0.00    +0.000 A 
ATOM     18  C   UNL     1       2.345   3.594  17.830  0.00  0.00    +0.000 A 
ATOM     19  C   UNL     1       3.417   4.346  18.417  0.00  0.00    +0.000 A 
ATOM     20  C   UNL     1       3.312   4.637  19.778  0.00  0.00    +0.000 A 
ATOM     21  C   UNL     1       2.132   4.281  20.481  0.00  0.00    +0.000 A 
ENDBRANCH   1  19
TORSDOF 1
ENDMDL
MODEL 8
REMARK VINA RESULT:      -7.5      5.126      6.714
REMARK  Name = 
REMARK  1 active torsions:
REMARK  status: ('A' for Active; 'I' for Inactive)
REMARK    1  A    between atoms: C_4  and  C_5
REMARK                            x       y       z     vdW  Elec       q    Type
REMARK                         _______ _______ _______ _____ _____    ______ ____
ROOT
ATOM      1  C   UNL     1       2.671   7.467  19.142  0.00  0.00    +0.000 C 
ATOM      2  N   UNL     1       2.469   8.002  17.754  0.00  0.00    +0.000 NA
ATOM      3  C   UNL     1       2.199   9.423  17.653  0.00  0.00    +0.000 C 
ATOM      4  C   UNL     1       0.844   9.712  18.266  0.00  0.00    +0.000 C 
ATOM      5  C   UNL     1       0.857   9.200  19.654  0.00  0.00    +0.000 A 
ATOM      6  C   UNL     1       1.554   8.056  20.034  0.00  0.00    +0.000 A 
ATOM      7  N   UNL     1       1.276   7.921  21.400  0.00  0.00    +0.000 N 
ATOM      8  C   UNL     1       0.492   9.001  21.851  0.00  0.00    +0.000 A 
ATOM      9  C   UNL     1      -0.103   9.339  23.091  0.00  0.00    +0.000 A 
ATOM     10  C   UNL     1      -0.756  10.593  23.199  0.00  0.00    +0.000 A 
ATOM     11  C   UNL     1      -0.760  11.509  22.156  0.00  0.00    +0.000 A 
ATOM     12  C   UNL     1      -0.200  11.168  20.935  0.00  0.00    +0.000 A 
ATOM     13  C   UNL     1       0.360   9.875  20.776  0.00  0.00    +0.000 A 
ATOM     14  H   UNL     1       1.670   7.484  17.383  0.00  0.00    +0.000 HD
ATOM     15  H   UNL     1       1.646   7.210  22.015  0.00  0.00    +0.000 HD
ENDROOT
BRANCH   1  19
ATOM     16  C   UNL     1       3.501   3.797  17.062  0.00  0.00    +0.000 A 
ATOM     17  C   UNL     1       4.470   4.772  17.231  0.00  0.00    +0.000 A 
ATOM     18  C   UNL     1       4.225   5.815  18.123  0.00  0.00    +0.000 A 
ATOM     19  C   UNL     1       2.966   5.992  18.790  0.00  0.00    +0.000 A 
ATOM     20  C   UNL     1       2.033   4.962  18.659  0.00  0.00    +0.000 A 
ATOM     21  C   UNL     1       2.318   3.864  17.808  0.00  0.00    +0.000 A 
ENDBRANCH   1  19
TORSDOF 1
ENDMDL
MODEL 9
REMARK VINA RESULT:      -7.4      3.940      7.412
REMARK  Name = 
REMARK  1 active torsions:
REMARK  status: ('A' for Active; 'I' for Inactive)
REMARK    1  A    between atoms: C_4  and  C_5
REMARK                            x       y       z     vdW  Elec       q    Type
REMARK                         _______ _______ _______ _____ _____    ______ ____
ROOT
ATOM      1  C   UNL     1       2.245   7.140  20.085  0.00  0.00    +0.000 C 
ATOM      2  N   UNL     1       1.436   5.998  20.627  0.00  0.00    +0.000 NA
ATOM      3  C   UNL     1       2.044   4.685  20.533  0.00  0.00    +0.000 C 
ATOM      4  C   UNL     1       2.144   4.292  19.073  0.00  0.00    +0.000 C 
ATOM      5  C   UNL     1       2.895   5.355  18.369  0.00  0.00    +0.000 A 
ATOM      6  C   UNL     1       2.807   6.701  18.714  0.00  0.00    +0.000 A 
ATOM      7  N   UNL     1       3.640   7.348  17.792  0.00  0.00    +0.000 N 
ATOM      8  C   UNL     1       4.275   6.405  16.957  0.00  0.00    +0.000 A 
ATOM      9  C   UNL     1       5.155   6.500  15.853  0.00  0.00    +0.000 A 
ATOM     10  C   UNL     1       5.680   5.300  15.312  0.00  0.00    +0.000 A 
ATOM     11  C   UNL     1       5.413   4.062  15.880  0.00  0.00    +0.000 A 
ATOM     12  C   UNL     1       4.532   3.967  16.945  0.00  0.00    +0.000 A 
ATOM     13  C   UNL     1       3.911   5.147  17.428  0.00  0.00    +0.000 A 
ATOM     14  H   UNL     1       0.570   6.004  20.084  0.00  0.00    +0.000 HD
ATOM     15  H   UNL     1       3.843   8.337  17.765  0.00  0.00    +0.000 HD
ENDROOT
BRANCH   1  19
ATOM     16  C   UNL     1       0.543  11.007  20.882  0.00  0.00    +0.000 A 
ATOM     17  C   UNL     1       0.874  10.609  19.598  0.00  0.00    +0.000 A 
ATOM     18  C   UNL     1       1.179   9.268  19.367  0.00  0.00    +0.000 A 
ATOM     19  C   UNL     1       1.280   8.299  20.421  0.00  0.00    +0.000 A 
ATOM     20  C   UNL     1       0.874   8.706  21.693  0.00  0.00    +0.000 A 
ATOM     21  C   UNL     1       0.493  10.055  21.907  0.00  0.00    +0.000 A 
ENDBRANCH   1  19
TORSDOF 1
ENDMDL
