MODEL 1
REMARK VINA RESULT:      -7.2      0.000      0.000
REMARK  Name = 
REMARK  3 active torsions:
REMARK  status: ('A' for Active; 'I' for Inactive)
REMARK    1  A    between atoms: C_2  and  C_4
REMARK    2  A    between atoms: C_7  and  N_8
REMARK    3  A    between atoms: C_9  and  C_11
REMARK                            x       y       z     vdW  Elec       q    Type
REMARK                         _______ _______ _______ _____ _____    ______ ____
ROOT
ATOM      1  C   UNL     1       2.660   3.413  19.517  0.00  0.00    +0.000 A 
ATOM      2  C   UNL     1       2.987   2.315  18.723  0.00  0.00    +0.000 A 
ATOM      3  C   UNL     1       3.739   2.493  17.559  0.00  0.00    +0.000 A 
ATOM      4  C   UNL     1       4.186   3.762  17.182  0.00  0.00    +0.000 A 
ATOM      5  C   UNL     1       3.903   4.852  18.015  0.00  0.00    +0.000 A 
ATOM      6  C   UNL     1       3.127   4.684  19.170  0.00  0.00    +0.000 A 
ENDROOT
BRANCH   1   8
ATOM      7  N   UNL     1       0.521   3.168  20.586  0.00  0.00    +0.000 NA
ATOM      8  C   UNL     1       1.804   3.215  20.719  0.00  0.00    +0.000 C 
ATOM      9  N   UNL     1       2.374   3.115  21.956  0.00  0.00    +0.000 N 
ATOM     10  H   UNL     1       0.081   2.998  21.492  0.00  0.00    +0.000 HD
ATOM     11  H   UNL     1       1.760   3.336  22.730  0.00  0.00    +0.000 HD
ATOM     12  H   UNL     1       3.270   3.583  22.054  0.00  0.00    +0.000 HD
ENDBRANCH   1   8
BRANCH   4  13
ATOM     13  N   UNL     1       4.909   4.001  15.996  0.00  0.00    +0.000 N 
ATOM     14  C   UNL     1       6.259   4.296  15.902  0.00  0.00    +0.000 C 
ATOM     15  O   UNL     1       7.033   4.373  16.853  0.00  0.00    +0.000 OA
ATOM     16  H   UNL     1       4.435   3.852  15.111  0.00  0.00    +0.000 HD
BRANCH  14  17
ATOM     17  C   UNL     1       6.728   4.468  14.542  0.00  0.00    +0.000 A 
ATOM     18  C   UNL     1       6.353   3.820  13.379  0.00  0.00    +0.000 A 
ATOM     19  C   UNL     1       7.119   4.383  12.335  0.00  0.00    +0.000 A 
ATOM     20  C   UNL     1       7.918   5.338  12.919  0.00  0.00    +0.000 A 
ATOM     21  O   UNL     1       7.691   5.402  14.258  0.00  0.00    +0.000 OA
ENDBRANCH  14  17
ENDBRANCH   4  13
TORSDOF 3
ENDMDL
MODEL 2
REMARK VINA RESULT:      -7.2      0.246      1.422
REMARK  Name = 
REMARK  3 active torsions:
REMARK  status: ('A' for Active; 'I' for Inactive)
REMARK    1  A    between atoms: C_2  and  C_4
REMARK    2  A    between atoms: C_7  and  N_8
REMARK    3  A    between atoms: C_9  and  C_11
REMARK                            x       y       z     vdW  Elec       q    Type
REMARK                         _______ _______ _______ _____ _____    ______ ____
ROOT
ATOM      1  C   UNL     1       2.769   3.219  19.534  0.00  0.00    +0.000 A 
ATOM      2  C   UNL     1       3.039   4.538  19.175  0.00  0.00    +0.000 A 
ATOM      3  C   UNL     1       3.725   4.815  17.989  0.00  0.00    +0.000 A 
ATOM      4  C   UNL     1       4.135   3.783  17.143  0.00  0.00    +0.000 A 
ATOM      5  C   UNL     1       3.809   2.462  17.480  0.00  0.00    +0.000 A 
ATOM      6  C   UNL     1       3.145   2.178  18.680  0.00  0.00    +0.000 A 
ENDROOT
BRANCH   1   8
ATOM      7  N   UNL     1       2.800   2.585  21.853  0.00  0.00    +0.000 NA
ATOM      8  C   UNL     1       2.094   2.939  20.832  0.00  0.00    +0.000 C 
ATOM      9  N   UNL     1       0.735   3.026  20.928  0.00  0.00    +0.000 N 
ATOM     10  H   UNL     1       2.197   2.460  22.667  0.00  0.00    +0.000 HD
ATOM     11  H   UNL     1       0.324   2.500  21.690  0.00  0.00    +0.000 HD
ATOM     12  H   UNL     1       0.231   2.866  20.060  0.00  0.00    +0.000 HD
ENDBRANCH   1   8
BRANCH   4  13
ATOM     13  N   UNL     1       4.868   4.005  15.959  0.00  0.00    +0.000 N 
ATOM     14  C   UNL     1       6.216   4.312  15.875  0.00  0.00    +0.000 C 
ATOM     15  O   UNL     1       6.979   4.415  16.832  0.00  0.00    +0.000 OA
ATOM     16  H   UNL     1       4.406   3.834  15.073  0.00  0.00    +0.000 HD
BRANCH  14  17
ATOM     17  C   UNL     1       6.699   4.461  14.516  0.00  0.00    +0.000 A 
ATOM     18  C   UNL     1       6.296   3.834  13.351  0.00  0.00    +0.000 A 
ATOM     19  C   UNL     1       7.093   4.359  12.310  0.00  0.00    +0.000 A 
ATOM     20  C   UNL     1       7.936   5.272  12.898  0.00  0.00    +0.000 A 
ATOM     21  O   UNL     1       7.707   5.346  14.236  0.00  0.00    +0.000 OA
ENDBRANCH  14  17
ENDBRANCH   4  13
TORSDOF 3
ENDMDL
MODEL 3
REMARK VINA RESULT:      -6.8      0.643      1.028
REMARK  Name = 
REMARK  3 active torsions:
REMARK  status: ('A' for Active; 'I' for Inactive)
REMARK    1  A    between atoms: C_2  and  C_4
REMARK    2  A    between atoms: C_7  and  N_8
REMARK    3  A    between atoms: C_9  and  C_11
REMARK                            x       y       z     vdW  Elec       q    Type
REMARK                         _______ _______ _______ _____ _____    ______ ____
ROOT
ATOM      1  C   UNL     1       2.548   3.623  19.449  0.00  0.00    +0.000 A 
ATOM      2  C   UNL     1       3.833   4.151  19.557  0.00  0.00    +0.000 A 
ATOM      3  C   UNL     1       4.599   4.370  18.408  0.00  0.00    +0.000 A 
ATOM      4  C   UNL     1       4.087   4.081  17.142  0.00  0.00    +0.000 A 
ATOM      5  C   UNL     1       2.773   3.605  17.036  0.00  0.00    +0.000 A 
ATOM      6  C   UNL     1       2.011   3.360  18.186  0.00  0.00    +0.000 A 
ENDROOT
BRANCH   1   8
ATOM      7  N   UNL     1       0.527   3.002  20.593  0.00  0.00    +0.000 NA
ATOM      8  C   UNL     1       1.771   3.336  20.686  0.00  0.00    +0.000 C 
ATOM      9  N   UNL     1       2.363   3.458  21.910  0.00  0.00    +0.000 N 
ATOM     10  H   UNL     1       0.146   2.811  21.521  0.00  0.00    +0.000 HD
ATOM     11  H   UNL     1       1.726   3.598  22.684  0.00  0.00    +0.000 HD
ATOM     12  H   UNL     1       3.137   4.115  21.950  0.00  0.00    +0.000 HD
ENDBRANCH   1   8
BRANCH   4  13
ATOM     13  N   UNL     1       4.834   4.242  15.957  0.00  0.00    +0.000 N 
ATOM     14  C   UNL     1       6.213   4.330  15.861  0.00  0.00    +0.000 C 
ATOM     15  O   UNL     1       6.993   4.261  16.807  0.00  0.00    +0.000 OA
ATOM     16  H   UNL     1       4.340   4.192  15.072  0.00  0.00    +0.000 HD
BRANCH  14  17
ATOM     17  C   UNL     1       6.698   4.468  14.502  0.00  0.00    +0.000 A 
ATOM     18  C   UNL     1       6.305   3.824  13.343  0.00  0.00    +0.000 A 
ATOM     19  C   UNL     1       7.100   4.343  12.299  0.00  0.00    +0.000 A 
ATOM     20  C   UNL     1       7.934   5.270  12.878  0.00  0.00    +0.000 A 
ATOM     21  O   UNL     1       7.700   5.358  14.215  0.00  0.00    +0.000 OA
ENDBRANCH  14  17
ENDBRANCH   4  13
TORSDOF 3
ENDMDL
MODEL 4
REMARK VINA RESULT:      -6.8      0.984      1.320
REMARK  Name = 
REMARK  3 active torsions:
REMARK  status: ('A' for Active; 'I' for Inactive)
REMARK    1  A    between atoms: C_2  and  C_4
REMARK    2  A    between atoms: C_7  and  N_8
REMARK    3  A    between atoms: C_9  and  C_11
REMARK                            x       y       z     vdW  Elec       q    Type
REMARK                         _______ _______ _______ _____ _____    ______ ____
ROOT
ATOM      1  C   UNL     1       2.761   3.188  19.608  0.00  0.00    +0.000 A 
ATOM      2  C   UNL     1       2.117   3.288  18.376  0.00  0.00    +0.000 A 
ATOM      3  C   UNL     1       2.866   3.442  17.206  0.00  0.00    +0.000 A 
ATOM      4  C   UNL     1       4.261   3.482  17.249  0.00  0.00    +0.000 A 
ATOM      5  C   UNL     1       4.904   3.322  18.484  0.00  0.00    +0.000 A 
ATOM      6  C   UNL     1       4.158   3.193  19.663  0.00  0.00    +0.000 A 
ENDROOT
BRANCH   1   8
ATOM      7  N   UNL     1       2.540   2.958  21.991  0.00  0.00    +0.000 NA
ATOM      8  C   UNL     1       1.947   3.089  20.851  0.00  0.00    +0.000 C 
ATOM      9  N   UNL     1       0.584   3.104  20.779  0.00  0.00    +0.000 N 
ATOM     10  H   UNL     1       1.849   2.934  22.743  0.00  0.00    +0.000 HD
ATOM     11  H   UNL     1       0.108   2.690  21.570  0.00  0.00    +0.000 HD
ATOM     12  H   UNL     1       0.197   2.768  19.902  0.00  0.00    +0.000 HD
ENDBRANCH   1   8
BRANCH   4  13
ATOM     13  N   UNL     1       5.060   3.680  16.104  0.00  0.00    +0.000 N 
ATOM     14  C   UNL     1       5.493   4.898  15.607  0.00  0.00    +0.000 C 
ATOM     15  O   UNL     1       5.255   5.992  16.111  0.00  0.00    +0.000 OA
ATOM     16  H   UNL     1       5.445   2.862  15.644  0.00  0.00    +0.000 HD
BRANCH  14  17
ATOM     17  C   UNL     1       6.324   4.785  14.424  0.00  0.00    +0.000 A 
ATOM     18  C   UNL     1       6.194   3.970  13.314  0.00  0.00    +0.000 A 
ATOM     19  C   UNL     1       7.273   4.275  12.456  0.00  0.00    +0.000 A 
ATOM     20  C   UNL     1       8.000   5.254  13.091  0.00  0.00    +0.000 A 
ATOM     21  O   UNL     1       7.436   5.575  14.285  0.00  0.00    +0.000 OA
ENDBRANCH  14  17
ENDBRANCH   4  13
TORSDOF 3
ENDMDL
MODEL 5
REMARK VINA RESULT:      -6.7      1.066      1.145
REMARK  Name = 
REMARK  3 active torsions:
REMARK  status: ('A' for Active; 'I' for Inactive)
REMARK    1  A    between atoms: C_2  and  C_4
REMARK    2  A    between atoms: C_7  and  N_8
REMARK    3  A    between atoms: C_9  and  C_11
REMARK                            x       y       z     vdW  Elec       q    Type
REMARK                         _______ _______ _______ _____ _____    ______ ____
ROOT
ATOM      1  C   UNL     1       2.768   4.750  19.291  0.00  0.00    +0.000 A 
ATOM      2  C   UNL     1       2.878   3.555  18.583  0.00  0.00    +0.000 A 
ATOM      3  C   UNL     1       3.621   3.508  17.400  0.00  0.00    +0.000 A 
ATOM      4  C   UNL     1       4.274   4.645  16.919  0.00  0.00    +0.000 A 
ATOM      5  C   UNL     1       4.207   5.828  17.666  0.00  0.00    +0.000 A 
ATOM      6  C   UNL     1       3.443   5.888  18.839  0.00  0.00    +0.000 A 
ENDROOT
BRANCH   1   8
ATOM      7  N   UNL     1       1.268   3.746  20.878  0.00  0.00    +0.000 NA
ATOM      8  C   UNL     1       1.920   4.799  20.514  0.00  0.00    +0.000 C 
ATOM      9  N   UNL     1       1.811   5.960  21.225  0.00  0.00    +0.000 N 
ATOM     10  H   UNL     1       0.762   3.931  21.746  0.00  0.00    +0.000 HD
ATOM     11  H   UNL     1       0.983   6.033  21.803  0.00  0.00    +0.000 HD
ATOM     12  H   UNL     1       1.957   6.809  20.686  0.00  0.00    +0.000 HD
ENDBRANCH   1   8
BRANCH   4  13
ATOM     13  N   UNL     1       4.998   4.661  15.710  0.00  0.00    +0.000 N 
ATOM     14  C   UNL     1       6.369   4.518  15.572  0.00  0.00    +0.000 C 
ATOM     15  O   UNL     1       7.156   4.334  16.496  0.00  0.00    +0.000 OA
ATOM     16  H   UNL     1       4.474   4.681  14.841  0.00  0.00    +0.000 HD
BRANCH  14  17
ATOM     17  C   UNL     1       6.826   4.552  14.197  0.00  0.00    +0.000 A 
ATOM     18  C   UNL     1       6.458   3.776  13.113  0.00  0.00    +0.000 A 
ATOM     19  C   UNL     1       7.205   4.239  12.008  0.00  0.00    +0.000 A 
ATOM     20  C   UNL     1       7.987   5.268  12.480  0.00  0.00    +0.000 A 
ATOM     21  O   UNL     1       7.765   5.471  13.806  0.00  0.00    +0.000 OA
ENDBRANCH  14  17
ENDBRANCH   4  13
TORSDOF 3
ENDMDL
MODEL 6
REMARK VINA RESULT:      -6.6      2.662      7.210
REMARK  Name = 
REMARK  3 active torsions:
REMARK  status: ('A' for Active; 'I' for Inactive)
REMARK    1  A    between atoms: C_2  and  C_4
REMARK    2  A    between atoms: C_7  and  N_8
REMARK    3  A    between atoms: C_9  and  C_11
REMARK                            x       y       z     vdW  Elec       q    Type
REMARK                         _______ _______ _______ _____ _____    ______ ____
ROOT
ATOM      1  C   UNL     1       6.729   4.693  14.525  0.00  0.00    +0.000 A 
ATOM      2  C   UNL     1       7.303   4.713  15.795  0.00  0.00    +0.000 A 
ATOM      3  C   UNL     1       6.509   4.497  16.925  0.00  0.00    +0.000 A 
ATOM      4  C   UNL     1       5.141   4.243  16.800  0.00  0.00    +0.000 A 
ATOM      5  C   UNL     1       4.582   4.166  15.517  0.00  0.00    +0.000 A 
ATOM      6  C   UNL     1       5.368   4.408  14.383  0.00  0.00    +0.000 A 
ENDROOT
BRANCH   1   8
ATOM      7  N   UNL     1       7.316   4.414  12.211  0.00  0.00    +0.000 NA
ATOM      8  C   UNL     1       7.577   4.989  13.337  0.00  0.00    +0.000 C 
ATOM      9  N   UNL     1       8.641   5.837  13.449  0.00  0.00    +0.000 N 
ATOM     10  H   UNL     1       7.964   4.742  11.493  0.00  0.00    +0.000 HD
ATOM     11  H   UNL     1       9.357   5.724  12.744  0.00  0.00    +0.000 HD
ATOM     12  H   UNL     1       9.048   5.895  14.378  0.00  0.00    +0.000 HD
ENDBRANCH   1   8
BRANCH   4  13
ATOM     13  N   UNL     1       4.289   4.062  17.909  0.00  0.00    +0.000 N 
ATOM     14  C   UNL     1       3.656   2.886  18.275  0.00  0.00    +0.000 C 
ATOM     15  O   UNL     1       3.765   1.813  17.687  0.00  0.00    +0.000 OA
ATOM     16  H   UNL     1       4.196   4.828  18.568  0.00  0.00    +0.000 HD
BRANCH  14  17
ATOM     17  C   UNL     1       2.859   3.000  19.480  0.00  0.00    +0.000 A 
ATOM     18  C   UNL     1       1.564   3.451  19.655  0.00  0.00    +0.000 A 
ATOM     19  C   UNL     1       1.277   3.340  21.033  0.00  0.00    +0.000 A 
ATOM     20  C   UNL     1       2.411   2.830  21.620  0.00  0.00    +0.000 A 
ATOM     21  O   UNL     1       3.379   2.617  20.689  0.00  0.00    +0.000 OA
ENDBRANCH  14  17
ENDBRANCH   4  13
TORSDOF 3
ENDMDL
MODEL 7
REMARK VINA RESULT:      -6.6      0.760      1.240
REMARK  Name = 
REMARK  3 active torsions:
REMARK  status: ('A' for Active; 'I' for Inactive)
REMARK    1  A    between atoms: C_2  and  C_4
REMARK    2  A    between atoms: C_7  and  N_8
REMARK    3  A    between atoms: C_9  and  C_11
REMARK                            x       y       z     vdW  Elec       q    Type
REMARK                         _______ _______ _______ _____ _____    ______ ____
ROOT
ATOM      1  C   UNL     1       2.637   3.487  19.487  0.00  0.00    +0.000 A 
ATOM      2  C   UNL     1       3.158   2.361  18.853  0.00  0.00    +0.000 A 
ATOM      3  C   UNL     1       3.888   2.499  17.669  0.00  0.00    +0.000 A 
ATOM      4  C   UNL     1       4.119   3.760  17.114  0.00  0.00    +0.000 A 
ATOM      5  C   UNL     1       3.642   4.892  17.788  0.00  0.00    +0.000 A 
ATOM      6  C   UNL     1       2.888   4.758  18.961  0.00  0.00    +0.000 A 
ENDROOT
BRANCH   1   8
ATOM      7  N   UNL     1       2.378   3.309  21.870  0.00  0.00    +0.000 NA
ATOM      8  C   UNL     1       1.808   3.317  20.712  0.00  0.00    +0.000 C 
ATOM      9  N   UNL     1       0.458   3.139  20.606  0.00  0.00    +0.000 N 
ATOM     10  H   UNL     1       1.676   3.214  22.605  0.00  0.00    +0.000 HD
ATOM     11  H   UNL     1       0.021   2.689  21.400  0.00  0.00    +0.000 HD
ATOM     12  H   UNL     1       0.148   2.723  19.732  0.00  0.00    +0.000 HD
ENDBRANCH   1   8
BRANCH   4  13
ATOM     13  N   UNL     1       4.810   3.950  15.900  0.00  0.00    +0.000 N 
ATOM     14  C   UNL     1       6.164   4.205  15.757  0.00  0.00    +0.000 C 
ATOM     15  O   UNL     1       6.969   4.284  16.681  0.00  0.00    +0.000 OA
ATOM     16  H   UNL     1       4.305   3.792  15.035  0.00  0.00    +0.000 HD
BRANCH  14  17
ATOM     17  C   UNL     1       6.594   4.330  14.379  0.00  0.00    +0.000 A 
ATOM     18  C   UNL     1       7.524   5.180  13.807  0.00  0.00    +0.000 A 
ATOM     19  C   UNL     1       7.562   4.873  12.429  0.00  0.00    +0.000 A 
ATOM     20  C   UNL     1       6.654   3.858  12.239  0.00  0.00    +0.000 A 
ATOM     21  O   UNL     1       6.061   3.516  13.414  0.00  0.00    +0.000 OA
ENDBRANCH  14  17
ENDBRANCH   4  13
TORSDOF 3
ENDMDL
MODEL 8
REMARK VINA RESULT:      -6.6      2.538      7.259
REMARK  Name = 
REMARK  3 active torsions:
REMARK  status: ('A' for Active; 'I' for Inactive)
REMARK    1  A    between atoms: C_2  and  C_4
REMARK    2  A    between atoms: C_7  and  N_8
REMARK    3  A    between atoms: C_9  and  C_11
REMARK                            x       y       z     vdW  Elec       q    Type
REMARK                         _______ _______ _______ _____ _____    ______ ____
ROOT
ATOM      1  C   UNL     1       6.624   4.824  14.399  0.00  0.00    +0.000 A 
ATOM      2  C   UNL     1       6.125   5.933  15.081  0.00  0.00    +0.000 A 
ATOM      3  C   UNL     1       5.247   5.757  16.154  0.00  0.00    +0.000 A 
ATOM      4  C   UNL     1       4.870   4.477  16.568  0.00  0.00    +0.000 A 
ATOM      5  C   UNL     1       5.420   3.366  15.915  0.00  0.00    +0.000 A 
ATOM      6  C   UNL     1       6.281   3.537  14.823  0.00  0.00    +0.000 A 
ENDROOT
BRANCH   1   8
ATOM      7  N   UNL     1       8.521   5.825  13.314  0.00  0.00    +0.000 NA
ATOM      8  C   UNL     1       7.508   5.031  13.218  0.00  0.00    +0.000 C 
ATOM      9  N   UNL     1       7.226   4.409  12.036  0.00  0.00    +0.000 N 
ATOM     10  H   UNL     1       9.040   5.836  12.434  0.00  0.00    +0.000 HD
ATOM     11  H   UNL     1       7.626   4.846  11.215  0.00  0.00    +0.000 HD
ATOM     12  H   UNL     1       6.246   4.184  11.892  0.00  0.00    +0.000 HD
ENDBRANCH   1   8
BRANCH   4  13
ATOM     13  N   UNL     1       3.953   4.247  17.614  0.00  0.00    +0.000 N 
ATOM     14  C   UNL     1       4.266   3.891  18.916  0.00  0.00    +0.000 C 
ATOM     15  O   UNL     1       5.404   3.741  19.353  0.00  0.00    +0.000 OA
ATOM     16  H   UNL     1       2.974   4.451  17.444  0.00  0.00    +0.000 HD
BRANCH  14  17
ATOM     17  C   UNL     1       3.110   3.746  19.778  0.00  0.00    +0.000 A 
ATOM     18  C   UNL     1       1.891   4.399  19.754  0.00  0.00    +0.000 A 
ATOM     19  C   UNL     1       1.123   3.867  20.813  0.00  0.00    +0.000 A 
ATOM     20  C   UNL     1       1.917   2.924  21.423  0.00  0.00    +0.000 A 
ATOM     21  O   UNL     1       3.124   2.838  20.804  0.00  0.00    +0.000 OA
ENDBRANCH  14  17
ENDBRANCH   4  13
TORSDOF 3
ENDMDL
MODEL 9
REMARK VINA RESULT:      -6.5      2.621      7.247
REMARK  Name = 
REMARK  3 active torsions:
REMARK  status: ('A' for Active; 'I' for Inactive)
REMARK    1  A    between atoms: C_2  and  C_4
REMARK    2  A    between atoms: C_7  and  N_8
REMARK    3  A    between atoms: C_9  and  C_11
REMARK                            x       y       z     vdW  Elec       q    Type
REMARK                         _______ _______ _______ _____ _____    ______ ____
ROOT
ATOM      1  C   UNL     1       6.859   4.672  14.442  0.00  0.00    +0.000 A 
ATOM      2  C   UNL     1       7.375   4.881  15.719  0.00  0.00    +0.000 A 
ATOM      3  C   UNL     1       6.599   4.586  16.844  0.00  0.00    +0.000 A 
ATOM      4  C   UNL     1       5.310   4.066  16.708  0.00  0.00    +0.000 A 
ATOM      5  C   UNL     1       4.819   3.804  15.422  0.00  0.00    +0.000 A 
ATOM      6  C   UNL     1       5.582   4.122  14.291  0.00  0.00    +0.000 A 
ENDROOT
BRANCH   1   8
ATOM      7  N   UNL     1       8.673   5.855  13.400  0.00  0.00    +0.000 NA
ATOM      8  C   UNL     1       7.674   5.051  13.255  0.00  0.00    +0.000 C 
ATOM      9  N   UNL     1       7.344   4.576  12.018  0.00  0.00    +0.000 N 
ATOM     10  H   UNL     1       9.145   5.992  12.505  0.00  0.00    +0.000 HD
ATOM     11  H   UNL     1       7.689   5.124  11.241  0.00  0.00    +0.000 HD
ATOM     12  H   UNL     1       6.363   4.344  11.895  0.00  0.00    +0.000 HD
ENDBRANCH   1   8
BRANCH   4  13
ATOM     13  N   UNL     1       4.471   3.794  17.808  0.00  0.00    +0.000 N 
ATOM     14  C   UNL     1       3.505   4.637  18.332  0.00  0.00    +0.000 C 
ATOM     15  O   UNL     1       3.225   5.750  17.893  0.00  0.00    +0.000 OA
ATOM     16  H   UNL     1       4.494   2.861  18.205  0.00  0.00    +0.000 HD
BRANCH  14  17
ATOM     17  C   UNL     1       2.780   4.073  19.453  0.00  0.00    +0.000 A 
ATOM     18  C   UNL     1       1.452   4.206  19.817  0.00  0.00    +0.000 A 
ATOM     19  C   UNL     1       1.272   3.437  20.987  0.00  0.00    +0.000 A 
ATOM     20  C   UNL     1       2.498   2.882  21.272  0.00  0.00    +0.000 A 
ATOM     21  O   UNL     1       3.422   3.257  20.348  0.00  0.00    +0.000 OA
ENDBRANCH  14  17
ENDBRANCH   4  13
TORSDOF 3
ENDMDL
