MODEL 1
REMARK VINA RESULT:      -8.3      0.000      0.000
REMARK  Name = 
REMARK  5 active torsions:
REMARK  status: ('A' for Active; 'I' for Inactive)
REMARK    1  A    between atoms: C_1  and  C_2
REMARK    2  A    between atoms: C_6  and  C_7
REMARK    3  A    between atoms: N_17  and  N_18
REMARK    4  A    between atoms: C_19  and  C_21
REMARK    5  A    between atoms: C_24  and  N_25
REMARK                            x       y       z     vdW  Elec       q    Type
REMARK                         _______ _______ _______ _____ _____    ______ ____
ROOT
ATOM      1  C   UNL     1       4.101   4.296  17.967  0.00  0.00    +0.000 C 
ATOM      2  N   UNL     1       4.339   3.578  16.714  0.00  0.00    +0.000 N 
ATOM      3  C   UNL     1       5.323   4.094  15.873  0.00  0.00    +0.000 A 
ATOM      4  C   UNL     1       5.798   3.300  14.821  0.00  0.00    +0.000 A 
ATOM      5  C   UNL     1       6.709   3.811  13.897  0.00  0.00    +0.000 A 
ATOM      6  C   UNL     1       7.141   5.130  14.005  0.00  0.00    +0.000 A 
ATOM      7  C   UNL     1       6.655   5.945  15.031  0.00  0.00    +0.000 A 
ATOM      8  C   UNL     1       5.732   5.430  15.951  0.00  0.00    +0.000 A 
ATOM      9  C   UNL     1       5.128   6.297  17.002  0.00  0.00    +0.000 C 
ATOM     10  O   UNL     1       5.554   7.432  17.207  0.00  0.00    +0.000 OA
ATOM     11  N   UNL     1       4.066   5.733  17.705  0.00  0.00    +0.000 N 
ATOM     12  H   UNL     1       4.403   2.575  16.852  0.00  0.00    +0.000 HD
ENDROOT
BRANCH   1  18
ATOM     13  C   UNL     1       1.936   2.882  22.127  0.00  0.00    +0.000 C 
ATOM     14  C   UNL     1       1.847   3.013  20.638  0.00  0.00    +0.000 A 
ATOM     15  C   UNL     1       0.708   2.604  19.953  0.00  0.00    +0.000 A 
ATOM     16  C   UNL     1       0.660   2.767  18.575  0.00  0.00    +0.000 A 
ATOM     17  C   UNL     1       1.744   3.335  17.921  0.00  0.00    +0.000 A 
ATOM     18  C   UNL     1       2.870   3.705  18.663  0.00  0.00    +0.000 A 
ATOM     19  N   UNL     1       2.928   3.543  20.015  0.00  0.00    +0.000 NA
ENDBRANCH   1  18
BRANCH  11  20
ATOM     20  N   UNL     1       3.497   6.528  18.751  0.00  0.00    +0.000 N 
ATOM     21  C   UNL     1       2.363   7.268  18.449  0.00  0.00    +0.000 C 
ATOM     22  O   UNL     1       1.815   7.246  17.347  0.00  0.00    +0.000 OA
ATOM     23  H   UNL     1       4.133   6.792  19.497  0.00  0.00    +0.000 HD
BRANCH  21  24
ATOM     24  C   UNL     1       1.776   8.131  19.519  0.00  0.00    +0.000 A 
ATOM     25  C   UNL     1       1.285   9.390  19.124  0.00  0.00    +0.000 A 
ATOM     26  C   UNL     1       0.717  10.268  20.048  0.00  0.00    +0.000 A 
ATOM     27  C   UNL     1       0.623   9.886  21.388  0.00  0.00    +0.000 A 
ATOM     28  C   UNL     1       1.083   8.623  21.798  0.00  0.00    +0.000 A 
ATOM     29  C   UNL     1       1.652   7.745  20.860  0.00  0.00    +0.000 A 
BRANCH  27  30
ATOM     30  N   UNL     1       0.038  10.814  22.364  0.00  0.00    +0.000 N 
ATOM     31  O   UNL     1      -0.043  12.010  22.051  0.00  0.00    +0.000 OA
ATOM     32  O   UNL     1      -0.345  10.344  23.450  0.00  0.00    +0.000 OA
ENDBRANCH  27  30
ENDBRANCH  21  24
ENDBRANCH  11  20
TORSDOF 4
ENDMDL
MODEL 2
REMARK VINA RESULT:      -8.0      2.188      7.580
REMARK  Name = 
REMARK  5 active torsions:
REMARK  status: ('A' for Active; 'I' for Inactive)
REMARK    1  A    between atoms: C_1  and  C_2
REMARK    2  A    between atoms: C_6  and  C_7
REMARK    3  A    between atoms: N_17  and  N_18
REMARK    4  A    between atoms: C_19  and  C_21
REMARK    5  A    between atoms: C_24  and  N_25
REMARK                            x       y       z     vdW  Elec       q    Type
REMARK                         _______ _______ _______ _____ _____    ______ ____
ROOT
ATOM      1  C   UNL     1       1.314   6.374  19.919  0.00  0.00    +0.000 C 
ATOM      2  N   UNL     1       1.064   6.959  21.237  0.00  0.00    +0.000 N 
ATOM      3  C   UNL     1       0.768   8.321  21.272  0.00  0.00    +0.000 A 
ATOM      4  C   UNL     1       0.234   8.867  22.446  0.00  0.00    +0.000 A 
ATOM      5  C   UNL     1       0.015  10.240  22.560  0.00  0.00    +0.000 A 
ATOM      6  C   UNL     1       0.347  11.085  21.504  0.00  0.00    +0.000 A 
ATOM      7  C   UNL     1       0.908  10.560  20.337  0.00  0.00    +0.000 A 
ATOM      8  C   UNL     1       1.135   9.181  20.230  0.00  0.00    +0.000 A 
ATOM      9  C   UNL     1       1.811   8.602  19.036  0.00  0.00    +0.000 C 
ATOM     10  O   UNL     1       2.024   9.285  18.036  0.00  0.00    +0.000 OA
ATOM     11  N   UNL     1       2.180   7.264  19.148  0.00  0.00    +0.000 N 
ATOM     12  H   UNL     1       0.439   6.391  21.798  0.00  0.00    +0.000 HD
ENDROOT
BRANCH   1  18
ATOM     13  C   UNL     1       2.297   2.029  17.882  0.00  0.00    +0.000 C 
ATOM     14  C   UNL     1       2.254   2.860  19.128  0.00  0.00    +0.000 A 
ATOM     15  C   UNL     1       2.633   2.326  20.354  0.00  0.00    +0.000 A 
ATOM     16  C   UNL     1       2.601   3.139  21.479  0.00  0.00    +0.000 A 
ATOM     17  C   UNL     1       2.197   4.461  21.348  0.00  0.00    +0.000 A 
ATOM     18  C   UNL     1       1.806   4.933  20.091  0.00  0.00    +0.000 A 
ATOM     19  N   UNL     1       1.829   4.139  18.984  0.00  0.00    +0.000 NA
ENDBRANCH   1  18
BRANCH  11  20
ATOM     20  N   UNL     1       2.791   6.669  17.998  0.00  0.00    +0.000 N 
ATOM     21  C   UNL     1       4.083   6.181  18.139  0.00  0.00    +0.000 C 
ATOM     22  O   UNL     1       4.703   6.208  19.201  0.00  0.00    +0.000 OA
ATOM     23  H   UNL     1       2.419   6.966  17.101  0.00  0.00    +0.000 HD
BRANCH  21  24
ATOM     24  C   UNL     1       4.750   5.590  16.939  0.00  0.00    +0.000 A 
ATOM     25  C   UNL     1       5.055   6.468  15.882  0.00  0.00    +0.000 A 
ATOM     26  C   UNL     1       5.679   6.013  14.720  0.00  0.00    +0.000 A 
ATOM     27  C   UNL     1       6.017   4.663  14.607  0.00  0.00    +0.000 A 
ATOM     28  C   UNL     1       5.745   3.774  15.662  0.00  0.00    +0.000 A 
ATOM     29  C   UNL     1       5.117   4.242  16.829  0.00  0.00    +0.000 A 
BRANCH  27  30
ATOM     30  N   UNL     1       6.661   4.180  13.379  0.00  0.00    +0.000 N 
ATOM     31  O   UNL     1       7.599   4.842  12.916  0.00  0.00    +0.000 OA
ATOM     32  O   UNL     1       6.228   3.129  12.876  0.00  0.00    +0.000 OA
ENDBRANCH  27  30
ENDBRANCH  21  24
ENDBRANCH  11  20
TORSDOF 4
ENDMDL
MODEL 3
REMARK VINA RESULT:      -7.4      2.203      7.663
REMARK  Name = 
REMARK  5 active torsions:
REMARK  status: ('A' for Active; 'I' for Inactive)
REMARK    1  A    between atoms: C_1  and  C_2
REMARK    2  A    between atoms: C_6  and  C_7
REMARK    3  A    between atoms: N_17  and  N_18
REMARK    4  A    between atoms: C_19  and  C_21
REMARK    5  A    between atoms: C_24  and  N_25
REMARK                            x       y       z     vdW  Elec       q    Type
REMARK                         _______ _______ _______ _____ _____    ______ ____
ROOT
ATOM      1  C   UNL     1       1.315   6.422  19.896  0.00  0.00    +0.000 C 
ATOM      2  N   UNL     1       1.079   6.960  21.237  0.00  0.00    +0.000 N 
ATOM      3  C   UNL     1       0.748   8.311  21.319  0.00  0.00    +0.000 A 
ATOM      4  C   UNL     1       0.226   8.807  22.521  0.00  0.00    +0.000 A 
ATOM      5  C   UNL     1      -0.026  10.170  22.681  0.00  0.00    +0.000 A 
ATOM      6  C   UNL     1       0.260  11.055  21.645  0.00  0.00    +0.000 A 
ATOM      7  C   UNL     1       0.808  10.580  20.450  0.00  0.00    +0.000 A 
ATOM      8  C   UNL     1       1.069   9.212  20.297  0.00  0.00    +0.000 A 
ATOM      9  C   UNL     1       1.733   8.687  19.071  0.00  0.00    +0.000 C 
ATOM     10  O   UNL     1       1.905   9.406  18.088  0.00  0.00    +0.000 OA
ATOM     11  N   UNL     1       2.139   7.357  19.134  0.00  0.00    +0.000 N 
ATOM     12  H   UNL     1       0.482   6.358  21.793  0.00  0.00    +0.000 HD
ENDROOT
BRANCH   1  18
ATOM     13  C   UNL     1       2.312   2.148  17.719  0.00  0.00    +0.000 C 
ATOM     14  C   UNL     1       2.304   2.950  18.984  0.00  0.00    +0.000 A 
ATOM     15  C   UNL     1       2.749   2.399  20.180  0.00  0.00    +0.000 A 
ATOM     16  C   UNL     1       2.746   3.186  21.324  0.00  0.00    +0.000 A 
ATOM     17  C   UNL     1       2.305   4.500  21.241  0.00  0.00    +0.000 A 
ATOM     18  C   UNL     1       1.849   4.989  20.014  0.00  0.00    +0.000 A 
ATOM     19  N   UNL     1       1.842   4.221  18.888  0.00  0.00    +0.000 NA
ENDBRANCH   1  18
BRANCH  11  20
ATOM     20  N   UNL     1       2.740   6.814  17.954  0.00  0.00    +0.000 N 
ATOM     21  C   UNL     1       4.057   6.384  18.044  0.00  0.00    +0.000 C 
ATOM     22  O   UNL     1       4.709   6.419  19.087  0.00  0.00    +0.000 OA
ATOM     23  H   UNL     1       2.327   7.110  17.075  0.00  0.00    +0.000 HD
BRANCH  21  24
ATOM     24  C   UNL     1       4.712   5.847  16.813  0.00  0.00    +0.000 A 
ATOM     25  C   UNL     1       4.930   4.457  16.761  0.00  0.00    +0.000 A 
ATOM     26  C   UNL     1       5.533   3.860  15.653  0.00  0.00    +0.000 A 
ATOM     27  C   UNL     1       5.918   4.654  14.571  0.00  0.00    +0.000 A 
ATOM     28  C   UNL     1       5.686   6.040  14.592  0.00  0.00    +0.000 A 
ATOM     29  C   UNL     1       5.076   6.633  15.711  0.00  0.00    +0.000 A 
BRANCH  27  30
ATOM     30  N   UNL     1       6.566   4.029  13.411  0.00  0.00    +0.000 N 
ATOM     31  O   UNL     1       6.123   2.942  13.015  0.00  0.00    +0.000 OA
ATOM     32  O   UNL     1       7.521   4.631  12.890  0.00  0.00    +0.000 OA
ENDBRANCH  27  30
ENDBRANCH  21  24
ENDBRANCH  11  20
TORSDOF 4
ENDMDL
MODEL 4
REMARK VINA RESULT:      -7.2      6.625      9.088
REMARK  Name = 
REMARK  5 active torsions:
REMARK  status: ('A' for Active; 'I' for Inactive)
REMARK    1  A    between atoms: C_1  and  C_2
REMARK    2  A    between atoms: C_6  and  C_7
REMARK    3  A    between atoms: N_17  and  N_18
REMARK    4  A    between atoms: C_19  and  C_21
REMARK    5  A    between atoms: C_24  and  N_25
REMARK                            x       y       z     vdW  Elec       q    Type
REMARK                         _______ _______ _______ _____ _____    ______ ____
ROOT
ATOM      1  C   UNL     1       1.128  13.059  20.424  0.00  0.00    +0.000 C 
ATOM      2  N   UNL     1       1.997  13.133  19.249  0.00  0.00    +0.000 N 
ATOM      3  C   UNL     1       2.297  14.408  18.772  0.00  0.00    +0.000 A 
ATOM      4  C   UNL     1       3.344  14.557  17.853  0.00  0.00    +0.000 A 
ATOM      5  C   UNL     1       3.615  15.796  17.274  0.00  0.00    +0.000 A 
ATOM      6  C   UNL     1       2.827  16.899  17.596  0.00  0.00    +0.000 A 
ATOM      7  C   UNL     1       1.761  16.762  18.489  0.00  0.00    +0.000 A 
ATOM      8  C   UNL     1       1.486  15.512  19.060  0.00  0.00    +0.000 A 
ATOM      9  C   UNL     1       0.305  15.313  19.946  0.00  0.00    +0.000 C 
ATOM     10  O   UNL     1      -0.354  16.272  20.346  0.00  0.00    +0.000 OA
ATOM     11  N   UNL     1       0.013  13.990  20.265  0.00  0.00    +0.000 N 
ATOM     12  H   UNL     1       2.805  12.526  19.329  0.00  0.00    +0.000 HD
ENDROOT
BRANCH   1  18
ATOM     13  C   UNL     1      -0.185   9.594  23.629  0.00  0.00    +0.000 C 
ATOM     14  C   UNL     1       0.151   9.942  22.211  0.00  0.00    +0.000 A 
ATOM     15  C   UNL     1       0.129   8.973  21.215  0.00  0.00    +0.000 A 
ATOM     16  C   UNL     1       0.423   9.345  19.910  0.00  0.00    +0.000 A 
ATOM     17  C   UNL     1       0.726  10.672  19.636  0.00  0.00    +0.000 A 
ATOM     18  C   UNL     1       0.755  11.595  20.685  0.00  0.00    +0.000 A 
ATOM     19  N   UNL     1       0.473  11.236  21.970  0.00  0.00    +0.000 NA
ENDBRANCH   1  18
BRANCH  11  20
ATOM     20  N   UNL     1      -1.091  13.773  21.151  0.00  0.00    +0.000 N 
ATOM     21  C   UNL     1      -2.260  13.261  20.606  0.00  0.00    +0.000 C 
ATOM     22  O   UNL     1      -2.377  12.960  19.418  0.00  0.00    +0.000 OA
ATOM     23  H   UNL     1      -1.088  14.331  22.000  0.00  0.00    +0.000 HD
BRANCH  21  24
ATOM     24  C   UNL     1      -3.434  13.062  21.509  0.00  0.00    +0.000 A 
ATOM     25  C   UNL     1      -4.675  12.809  20.895  0.00  0.00    +0.000 A 
ATOM     26  C   UNL     1      -5.830  12.608  21.652  0.00  0.00    +0.000 A 
ATOM     27  C   UNL     1      -5.751  12.648  23.046  0.00  0.00    +0.000 A 
ATOM     28  C   UNL     1      -4.517  12.874  23.680  0.00  0.00    +0.000 A 
ATOM     29  C   UNL     1      -3.359  13.073  22.909  0.00  0.00    +0.000 A 
BRANCH  27  30
ATOM     30  N   UNL     1      -6.968  12.451  23.844  0.00  0.00    +0.000 N 
ATOM     31  O   UNL     1      -7.409  13.420  24.478  0.00  0.00    +0.000 OA
ATOM     32  O   UNL     1      -7.488  11.322  23.834  0.00  0.00    +0.000 OA
ENDBRANCH  27  30
ENDBRANCH  21  24
ENDBRANCH  11  20
TORSDOF 4
ENDMDL
MODEL 5
REMARK VINA RESULT:      -7.2      4.248      9.266
REMARK  Name = 
REMARK  5 active torsions:
REMARK  status: ('A' for Active; 'I' for Inactive)
REMARK    1  A    between atoms: C_1  and  C_2
REMARK    2  A    between atoms: C_6  and  C_7
REMARK    3  A    between atoms: N_17  and  N_18
REMARK    4  A    between atoms: C_19  and  C_21
REMARK    5  A    between atoms: C_24  and  N_25
REMARK                            x       y       z     vdW  Elec       q    Type
REMARK                         _______ _______ _______ _____ _____    ______ ____
ROOT
ATOM      1  C   UNL     1      -0.474  13.215  18.124  0.00  0.00    +0.000 C 
ATOM      2  N   UNL     1      -0.979  14.425  18.774  0.00  0.00    +0.000 N 
ATOM      3  C   UNL     1      -0.038  15.401  19.098  0.00  0.00    +0.000 A 
ATOM      4  C   UNL     1      -0.485  16.683  19.442  0.00  0.00    +0.000 A 
ATOM      5  C   UNL     1       0.413  17.662  19.869  0.00  0.00    +0.000 A 
ATOM      6  C   UNL     1       1.769  17.360  19.974  0.00  0.00    +0.000 A 
ATOM      7  C   UNL     1       2.227  16.077  19.664  0.00  0.00    +0.000 A 
ATOM      8  C   UNL     1       1.320  15.095  19.245  0.00  0.00    +0.000 A 
ATOM      9  C   UNL     1       1.763  13.695  18.991  0.00  0.00    +0.000 C 
ATOM     10  O   UNL     1       2.958  13.405  18.964  0.00  0.00    +0.000 OA
ATOM     11  N   UNL     1       0.741  12.769  18.802  0.00  0.00    +0.000 N 
ATOM     12  H   UNL     1      -1.807  14.792  18.316  0.00  0.00    +0.000 HD
ENDROOT
BRANCH   1  18
ATOM     13  C   UNL     1      -2.786   9.807  15.470  0.00  0.00    +0.000 C 
ATOM     14  C   UNL     1      -2.719  10.582  16.751  0.00  0.00    +0.000 A 
ATOM     15  C   UNL     1      -3.650  10.369  17.762  0.00  0.00    +0.000 A 
ATOM     16  C   UNL     1      -3.537  11.092  18.941  0.00  0.00    +0.000 A 
ATOM     17  C   UNL     1      -2.498  12.002  19.081  0.00  0.00    +0.000 A 
ATOM     18  C   UNL     1      -1.607  12.188  18.019  0.00  0.00    +0.000 A 
ATOM     19  N   UNL     1      -1.716  11.486  16.856  0.00  0.00    +0.000 NA
ENDBRANCH   1  18
BRANCH  11  20
ATOM     20  N   UNL     1       1.139  11.425  18.511  0.00  0.00    +0.000 N 
ATOM     21  C   UNL     1       1.129  10.513  19.557  0.00  0.00    +0.000 C 
ATOM     22  O   UNL     1       0.766  10.797  20.698  0.00  0.00    +0.000 OA
ATOM     23  H   UNL     1       1.739  11.311  17.699  0.00  0.00    +0.000 HD
BRANCH  21  24
ATOM     24  C   UNL     1       1.576   9.114  19.280  0.00  0.00    +0.000 A 
ATOM     25  C   UNL     1       1.555   8.212  20.361  0.00  0.00    +0.000 A 
ATOM     26  C   UNL     1       1.952   6.884  20.204  0.00  0.00    +0.000 A 
ATOM     27  C   UNL     1       2.368   6.437  18.948  0.00  0.00    +0.000 A 
ATOM     28  C   UNL     1       2.373   7.315  17.850  0.00  0.00    +0.000 A 
ATOM     29  C   UNL     1       1.969   8.650  18.018  0.00  0.00    +0.000 A 
BRANCH  27  30
ATOM     30  N   UNL     1       2.800   5.043  18.784  0.00  0.00    +0.000 N 
ATOM     31  O   UNL     1       2.454   4.445  17.756  0.00  0.00    +0.000 OA
ATOM     32  O   UNL     1       3.493   4.544  19.688  0.00  0.00    +0.000 OA
ENDBRANCH  27  30
ENDBRANCH  21  24
ENDBRANCH  11  20
TORSDOF 4
ENDMDL
MODEL 6
REMARK VINA RESULT:      -7.2      0.681      1.542
REMARK  Name = 
REMARK  5 active torsions:
REMARK  status: ('A' for Active; 'I' for Inactive)
REMARK    1  A    between atoms: C_1  and  C_2
REMARK    2  A    between atoms: C_6  and  C_7
REMARK    3  A    between atoms: N_17  and  N_18
REMARK    4  A    between atoms: C_19  and  C_21
REMARK    5  A    between atoms: C_24  and  N_25
REMARK                            x       y       z     vdW  Elec       q    Type
REMARK                         _______ _______ _______ _____ _____    ______ ____
ROOT
ATOM      1  C   UNL     1       4.245   4.663  18.511  0.00  0.00    +0.000 C 
ATOM      2  N   UNL     1       4.511   3.772  17.381  0.00  0.00    +0.000 N 
ATOM      3  C   UNL     1       5.356   4.261  16.385  0.00  0.00    +0.000 A 
ATOM      4  C   UNL     1       5.879   3.365  15.444  0.00  0.00    +0.000 A 
ATOM      5  C   UNL     1       6.647   3.822  14.373  0.00  0.00    +0.000 A 
ATOM      6  C   UNL     1       6.884   5.187  14.222  0.00  0.00    +0.000 A 
ATOM      7  C   UNL     1       6.344   6.096  15.135  0.00  0.00    +0.000 A 
ATOM      8  C   UNL     1       5.565   5.633  16.204  0.00  0.00    +0.000 A 
ATOM      9  C   UNL     1       4.903   6.582  17.142  0.00  0.00    +0.000 C 
ATOM     10  O   UNL     1       5.167   7.783  17.118  0.00  0.00    +0.000 OA
ATOM     11  N   UNL     1       3.981   6.012  18.017  0.00  0.00    +0.000 N 
ATOM     12  H   UNL     1       4.732   2.828  17.678  0.00  0.00    +0.000 HD
ENDROOT
BRANCH   1  18
ATOM     13  C   UNL     1       0.226   1.883  18.861  0.00  0.00    +0.000 C 
ATOM     14  C   UNL     1       1.236   2.738  19.563  0.00  0.00    +0.000 A 
ATOM     15  C   UNL     1       1.162   2.948  20.935  0.00  0.00    +0.000 A 
ATOM     16  C   UNL     1       2.133   3.728  21.548  0.00  0.00    +0.000 A 
ATOM     17  C   UNL     1       3.152   4.272  20.777  0.00  0.00    +0.000 A 
ATOM     18  C   UNL     1       3.159   4.043  19.398  0.00  0.00    +0.000 A 
ATOM     19  N   UNL     1       2.206   3.283  18.788  0.00  0.00    +0.000 NA
ENDBRANCH   1  18
BRANCH  11  20
ATOM     20  N   UNL     1       3.363   6.895  18.960  0.00  0.00    +0.000 N 
ATOM     21  C   UNL     1       2.210   7.556  18.560  0.00  0.00    +0.000 C 
ATOM     22  O   UNL     1       1.686   7.394  17.458  0.00  0.00    +0.000 OA
ATOM     23  H   UNL     1       3.975   7.262  19.683  0.00  0.00    +0.000 HD
BRANCH  21  24
ATOM     24  C   UNL     1       1.573   8.508  19.519  0.00  0.00    +0.000 A 
ATOM     25  C   UNL     1       1.472   8.091  20.860  0.00  0.00    +0.000 A 
ATOM     26  C   UNL     1       0.894   8.909  21.832  0.00  0.00    +0.000 A 
ATOM     27  C   UNL     1       0.416  10.170  21.470  0.00  0.00    +0.000 A 
ATOM     28  C   UNL     1       0.530  10.616  20.142  0.00  0.00    +0.000 A 
ATOM     29  C   UNL     1       1.115   9.786  19.171  0.00  0.00    +0.000 A 
BRANCH  27  30
ATOM     30  N   UNL     1      -0.206  11.026  22.488  0.00  0.00    +0.000 N 
ATOM     31  O   UNL     1      -0.189  12.251  22.306  0.00  0.00    +0.000 OA
ATOM     32  O   UNL     1      -0.717  10.470  23.476  0.00  0.00    +0.000 OA
ENDBRANCH  27  30
ENDBRANCH  21  24
ENDBRANCH  11  20
TORSDOF 4
ENDMDL
MODEL 7
REMARK VINA RESULT:      -7.1      3.653     10.277
REMARK  Name = 
REMARK  5 active torsions:
REMARK  status: ('A' for Active; 'I' for Inactive)
REMARK    1  A    between atoms: C_1  and  C_2
REMARK    2  A    between atoms: C_6  and  C_7
REMARK    3  A    between atoms: N_17  and  N_18
REMARK    4  A    between atoms: C_19  and  C_21
REMARK    5  A    between atoms: C_24  and  N_25
REMARK                            x       y       z     vdW  Elec       q    Type
REMARK                         _______ _______ _______ _____ _____    ______ ____
ROOT
ATOM      1  C   UNL     1       0.417  13.133  21.605  0.00  0.00    +0.000 C 
ATOM      2  N   UNL     1      -0.666  14.113  21.695  0.00  0.00    +0.000 N 
ATOM      3  C   UNL     1      -1.706  13.817  22.575  0.00  0.00    +0.000 A 
ATOM      4  C   UNL     1      -2.605  14.833  22.925  0.00  0.00    +0.000 A 
ATOM      5  C   UNL     1      -3.716  14.559  23.722  0.00  0.00    +0.000 A 
ATOM      6  C   UNL     1      -3.950  13.259  24.163  0.00  0.00    +0.000 A 
ATOM      7  C   UNL     1      -3.080  12.229  23.799  0.00  0.00    +0.000 A 
ATOM      8  C   UNL     1      -1.970  12.506  22.989  0.00  0.00    +0.000 A 
ATOM      9  C   UNL     1      -1.073  11.417  22.511  0.00  0.00    +0.000 C 
ATOM     10  O   UNL     1      -1.172  10.275  22.958  0.00  0.00    +0.000 OA
ATOM     11  N   UNL     1      -0.148  11.787  21.539  0.00  0.00    +0.000 N 
ATOM     12  H   UNL     1      -0.320  15.063  21.776  0.00  0.00    +0.000 HD
ENDROOT
BRANCH   1  18
ATOM     13  C   UNL     1       4.769  14.894  20.207  0.00  0.00    +0.000 C 
ATOM     14  C   UNL     1       3.422  14.384  19.797  0.00  0.00    +0.000 A 
ATOM     15  C   UNL     1       3.072  14.295  18.455  0.00  0.00    +0.000 A 
ATOM     16  C   UNL     1       1.821  13.793  18.120  0.00  0.00    +0.000 A 
ATOM     17  C   UNL     1       0.959  13.391  19.131  0.00  0.00    +0.000 A 
ATOM     18  C   UNL     1       1.361  13.527  20.463  0.00  0.00    +0.000 A 
ATOM     19  N   UNL     1       2.584  14.024  20.800  0.00  0.00    +0.000 NA
ENDBRANCH   1  18
BRANCH  11  20
ATOM     20  N   UNL     1       0.756  10.770  21.094  0.00  0.00    +0.000 N 
ATOM     21  C   UNL     1       0.386  10.024  19.984  0.00  0.00    +0.000 C 
ATOM     22  O   UNL     1      -0.654  10.218  19.355  0.00  0.00    +0.000 OA
ATOM     23  H   UNL     1       1.394  10.412  21.799  0.00  0.00    +0.000 HD
BRANCH  21  24
ATOM     24  C   UNL     1       1.301   8.934  19.527  0.00  0.00    +0.000 A 
ATOM     25  C   UNL     1       1.510   7.863  20.418  0.00  0.00    +0.000 A 
ATOM     26  C   UNL     1       2.346   6.796  20.083  0.00  0.00    +0.000 A 
ATOM     27  C   UNL     1       2.978   6.785  18.838  0.00  0.00    +0.000 A 
ATOM     28  C   UNL     1       2.762   7.832  17.925  0.00  0.00    +0.000 A 
ATOM     29  C   UNL     1       1.918   8.901  18.269  0.00  0.00    +0.000 A 
BRANCH  27  30
ATOM     30  N   UNL     1       3.869   5.670  18.491  0.00  0.00    +0.000 N 
ATOM     31  O   UNL     1       3.737   5.148  17.376  0.00  0.00    +0.000 OA
ATOM     32  O   UNL     1       4.708   5.317  19.337  0.00  0.00    +0.000 OA
ENDBRANCH  27  30
ENDBRANCH  21  24
ENDBRANCH  11  20
TORSDOF 4
ENDMDL
MODEL 8
REMARK VINA RESULT:      -7.0      4.200     10.418
REMARK  Name = 
REMARK  5 active torsions:
REMARK  status: ('A' for Active; 'I' for Inactive)
REMARK    1  A    between atoms: C_1  and  C_2
REMARK    2  A    between atoms: C_6  and  C_7
REMARK    3  A    between atoms: N_17  and  N_18
REMARK    4  A    between atoms: C_19  and  C_21
REMARK    5  A    between atoms: C_24  and  N_25
REMARK                            x       y       z     vdW  Elec       q    Type
REMARK                         _______ _______ _______ _____ _____    ______ ____
ROOT
ATOM      1  C   UNL     1      -2.562  13.107  20.420  0.00  0.00    +0.000 C 
ATOM      2  N   UNL     1      -3.538  13.608  21.389  0.00  0.00    +0.000 N 
ATOM      3  C   UNL     1      -3.029  14.281  22.499  0.00  0.00    +0.000 A 
ATOM      4  C   UNL     1      -3.905  15.032  23.293  0.00  0.00    +0.000 A 
ATOM      5  C   UNL     1      -3.460  15.641  24.467  0.00  0.00    +0.000 A 
ATOM      6  C   UNL     1      -2.135  15.488  24.868  0.00  0.00    +0.000 A 
ATOM      7  C   UNL     1      -1.256  14.718  24.103  0.00  0.00    +0.000 A 
ATOM      8  C   UNL     1      -1.710  14.100  22.929  0.00  0.00    +0.000 A 
ATOM      9  C   UNL     1      -0.822  13.202  22.139  0.00  0.00    +0.000 C 
ATOM     10  O   UNL     1       0.380  13.121  22.389  0.00  0.00    +0.000 OA
ATOM     11  N   UNL     1      -1.451  12.476  21.130  0.00  0.00    +0.000 N 
ATOM     12  H   UNL     1      -4.314  14.084  20.942  0.00  0.00    +0.000 HD
ENDROOT
BRANCH   1  18
ATOM     13  C   UNL     1      -2.263  10.151  16.525  0.00  0.00    +0.000 C 
ATOM     14  C   UNL     1      -3.141  10.849  17.518  0.00  0.00    +0.000 A 
ATOM     15  C   UNL     1      -4.524  10.708  17.468  0.00  0.00    +0.000 A 
ATOM     16  C   UNL     1      -5.298  11.354  18.422  0.00  0.00    +0.000 A 
ATOM     17  C   UNL     1      -4.673  12.117  19.399  0.00  0.00    +0.000 A 
ATOM     18  C   UNL     1      -3.281  12.238  19.382  0.00  0.00    +0.000 A 
ATOM     19  N   UNL     1      -2.514  11.612  18.445  0.00  0.00    +0.000 NA
ENDBRANCH   1  18
BRANCH  11  20
ATOM     20  N   UNL     1      -0.613  11.639  20.326  0.00  0.00    +0.000 N 
ATOM     21  C   UNL     1      -0.284  10.388  20.829  0.00  0.00    +0.000 C 
ATOM     22  O   UNL     1      -0.702   9.962  21.905  0.00  0.00    +0.000 OA
ATOM     23  H   UNL     1      -0.027  12.123  19.652  0.00  0.00    +0.000 HD
BRANCH  21  24
ATOM     24  C   UNL     1       0.619   9.515  20.019  0.00  0.00    +0.000 A 
ATOM     25  C   UNL     1       1.188   8.406  20.674  0.00  0.00    +0.000 A 
ATOM     26  C   UNL     1       2.043   7.530  20.003  0.00  0.00    +0.000 A 
ATOM     27  C   UNL     1       2.331   7.752  18.655  0.00  0.00    +0.000 A 
ATOM     28  C   UNL     1       1.753   8.838  17.976  0.00  0.00    +0.000 A 
ATOM     29  C   UNL     1       0.892   9.714  18.659  0.00  0.00    +0.000 A 
BRANCH  27  30
ATOM     30  N   UNL     1       3.242   6.839  17.952  0.00  0.00    +0.000 N 
ATOM     31  O   UNL     1       2.982   5.628  17.974  0.00  0.00    +0.000 OA
ATOM     32  O   UNL     1       4.223   7.336  17.372  0.00  0.00    +0.000 OA
ENDBRANCH  27  30
ENDBRANCH  21  24
ENDBRANCH  11  20
TORSDOF 4
ENDMDL
MODEL 9
REMARK VINA RESULT:      -7.0      3.650     10.319
REMARK  Name = 
REMARK  5 active torsions:
REMARK  status: ('A' for Active; 'I' for Inactive)
REMARK    1  A    between atoms: C_1  and  C_2
REMARK    2  A    between atoms: C_6  and  C_7
REMARK    3  A    between atoms: N_17  and  N_18
REMARK    4  A    between atoms: C_19  and  C_21
REMARK    5  A    between atoms: C_24  and  N_25
REMARK                            x       y       z     vdW  Elec       q    Type
REMARK                         _______ _______ _______ _____ _____    ______ ____
ROOT
ATOM      1  C   UNL     1       0.339  13.184  21.689  0.00  0.00    +0.000 C 
ATOM      2  N   UNL     1      -0.740  14.166  21.805  0.00  0.00    +0.000 N 
ATOM      3  C   UNL     1      -1.774  13.858  22.688  0.00  0.00    +0.000 A 
ATOM      4  C   UNL     1      -2.666  14.870  23.063  0.00  0.00    +0.000 A 
ATOM      5  C   UNL     1      -3.772  14.587  23.864  0.00  0.00    +0.000 A 
ATOM      6  C   UNL     1      -4.007  13.279  24.284  0.00  0.00    +0.000 A 
ATOM      7  C   UNL     1      -3.143  12.253  23.895  0.00  0.00    +0.000 A 
ATOM      8  C   UNL     1      -2.038  12.541  23.082  0.00  0.00    +0.000 A 
ATOM      9  C   UNL     1      -1.149  11.457  22.578  0.00  0.00    +0.000 C 
ATOM     10  O   UNL     1      -1.248  10.308  23.005  0.00  0.00    +0.000 OA
ATOM     11  N   UNL     1      -0.231  11.841  21.604  0.00  0.00    +0.000 N 
ATOM     12  H   UNL     1      -0.390  15.113  21.899  0.00  0.00    +0.000 HD
ENDROOT
BRANCH   1  18
ATOM     13  C   UNL     1       4.709  14.895  20.284  0.00  0.00    +0.000 C 
ATOM     14  C   UNL     1       3.345  14.427  19.878  0.00  0.00    +0.000 A 
ATOM     15  C   UNL     1       2.974  14.391  18.538  0.00  0.00    +0.000 A 
ATOM     16  C   UNL     1       1.708  13.928  18.206  0.00  0.00    +0.000 A 
ATOM     17  C   UNL     1       0.852  13.512  19.217  0.00  0.00    +0.000 A 
ATOM     18  C   UNL     1       1.275  13.595  20.546  0.00  0.00    +0.000 A 
ATOM     19  N   UNL     1       2.514  14.054  20.881  0.00  0.00    +0.000 NA
ENDBRANCH   1  18
BRANCH  11  20
ATOM     20  N   UNL     1       0.666  10.829  21.135  0.00  0.00    +0.000 N 
ATOM     21  C   UNL     1       0.285  10.104  20.014  0.00  0.00    +0.000 C 
ATOM     22  O   UNL     1      -0.759  10.313  19.397  0.00  0.00    +0.000 OA
ATOM     23  H   UNL     1       1.309  10.457  21.828  0.00  0.00    +0.000 HD
BRANCH  21  24
ATOM     24  C   UNL     1       1.193   9.019  19.532  0.00  0.00    +0.000 A 
ATOM     25  C   UNL     1       1.727   9.164  18.237  0.00  0.00    +0.000 A 
ATOM     26  C   UNL     1       2.586   8.206  17.697  0.00  0.00    +0.000 A 
ATOM     27  C   UNL     1       2.931   7.087  18.458  0.00  0.00    +0.000 A 
ATOM     28  C   UNL     1       2.429   6.937  19.763  0.00  0.00    +0.000 A 
ATOM     29  C   UNL     1       1.567   7.908  20.299  0.00  0.00    +0.000 A 
BRANCH  27  30
ATOM     30  N   UNL     1       3.823   6.071  17.886  0.00  0.00    +0.000 N 
ATOM     31  O   UNL     1       4.958   6.424  17.540  0.00  0.00    +0.000 OA
ATOM     32  O   UNL     1       3.386   4.911  17.785  0.00  0.00    +0.000 OA
ENDBRANCH  27  30
ENDBRANCH  21  24
ENDBRANCH  11  20
TORSDOF 4
ENDMDL
