MODEL 1
REMARK VINA RESULT:      -7.1      0.000      0.000
REMARK  Name = 
REMARK  6 active torsions:
REMARK  status: ('A' for Active; 'I' for Inactive)
REMARK    1  A    between atoms: C_1  and  C_2
REMARK    2  A    between atoms: C_5  and  C_6
REMARK    3  A    between atoms: C_9  and  C_10
REMARK    4  A    between atoms: C_10  and  C_11
REMARK    5  A    between atoms: C_11  and  C_12
REMARK    6  A    between atoms: C_11  and  N_13
REMARK                            x       y       z     vdW  Elec       q    Type
REMARK                         _______ _______ _______ _____ _____    ______ ____
ROOT
ATOM      1  C   UNL     1       4.422   4.625  16.991  0.00  0.00    +0.000 A 
ATOM      2  C   UNL     1       3.941   3.403  17.463  0.00  0.00    +0.000 A 
ATOM      3  C   UNL     1       2.842   3.323  18.324  0.00  0.00    +0.000 A 
ATOM      4  C   UNL     1       2.156   4.437  18.787  0.00  0.00    +0.000 A 
ATOM      5  C   UNL     1       2.642   5.662  18.331  0.00  0.00    +0.000 A 
ATOM      6  C   UNL     1       3.742   5.748  17.466  0.00  0.00    +0.000 A 
ATOM      7  O   UNL     1       4.071   7.043  17.149  0.00  0.00    +0.000 OA
ATOM      8  C   UNL     1       3.115   7.879  17.831  0.00  0.00    +0.000 C 
ATOM      9  C   UNL     1       2.158   7.025  18.657  0.00  0.00    +0.000 C 
ATOM     10  O   UNL     1       2.503   2.030  18.650  0.00  0.00    +0.000 OA
ATOM     11  C   UNL     1       3.651   1.260  18.238  0.00  0.00    +0.000 C 
ATOM     12  C   UNL     1       4.391   2.022  17.144  0.00  0.00    +0.000 C 
ENDROOT
BRANCH   1  17
ATOM     13  C   UNL     1       7.332   4.857  13.039  0.00  0.00    +0.000 C 
ATOM     14  C   UNL     1       6.860   4.776  14.434  0.00  0.00    +0.000 A 
ATOM     15  N   UNL     1       7.689   4.747  15.484  0.00  0.00    +0.000 NA
ATOM     16  O   UNL     1       6.813   4.683  16.574  0.00  0.00    +0.000 OA
ATOM     17  C   UNL     1       5.544   4.677  16.061  0.00  0.00    +0.000 A 
ATOM     18  N   UNL     1       5.530   4.732  14.743  0.00  0.00    +0.000 NA
ENDBRANCH   1  17
BRANCH   4  19
ATOM     19  C   UNL     1       0.998   4.311  19.741  0.00  0.00    +0.000 C 
BRANCH  19  20
ATOM     20  C   UNL     1       1.387   4.120  21.221  0.00  0.00    +0.000 C 
ATOM     21  C   UNL     1       1.526   2.653  21.633  0.00  0.00    +0.000 C 
BRANCH  20  22
ATOM     22  N   UNL     1       2.666   4.803  21.476  0.00  0.00    +0.000 NA
ATOM     23  H   UNL     1       3.031   4.506  22.383  0.00  0.00    +0.000 HD
ATOM     24  H   UNL     1       2.504   5.806  21.565  0.00  0.00    +0.000 HD
ENDBRANCH  20  22
ENDBRANCH  19  20
ENDBRANCH   4  19
TORSDOF 4
ENDMDL
MODEL 2
REMARK VINA RESULT:      -7.0      0.900      3.111
REMARK  Name = 
REMARK  6 active torsions:
REMARK  status: ('A' for Active; 'I' for Inactive)
REMARK    1  A    between atoms: C_1  and  C_2
REMARK    2  A    between atoms: C_5  and  C_6
REMARK    3  A    between atoms: C_9  and  C_10
REMARK    4  A    between atoms: C_10  and  C_11
REMARK    5  A    between atoms: C_11  and  C_12
REMARK    6  A    between atoms: C_11  and  N_13
REMARK                            x       y       z     vdW  Elec       q    Type
REMARK                         _______ _______ _______ _____ _____    ______ ____
ROOT
ATOM      1  C   UNL     1       4.404   4.754  17.007  0.00  0.00    +0.000 A 
ATOM      2  C   UNL     1       3.725   5.864  17.513  0.00  0.00    +0.000 A 
ATOM      3  C   UNL     1       2.677   5.734  18.430  0.00  0.00    +0.000 A 
ATOM      4  C   UNL     1       2.220   4.510  18.896  0.00  0.00    +0.000 A 
ATOM      5  C   UNL     1       2.884   3.397  18.382  0.00  0.00    +0.000 A 
ATOM      6  C   UNL     1       3.937   3.520  17.463  0.00  0.00    +0.000 A 
ATOM      7  O   UNL     1       4.445   2.307  17.069  0.00  0.00    +0.000 OA
ATOM      8  C   UNL     1       3.696   1.305  17.786  0.00  0.00    +0.000 C 
ATOM      9  C   UNL     1       2.625   1.962  18.651  0.00  0.00    +0.000 C 
ATOM     10  O   UNL     1       2.159   6.944  18.833  0.00  0.00    +0.000 OA
ATOM     11  C   UNL     1       2.685   7.881  17.871  0.00  0.00    +0.000 C 
ATOM     12  C   UNL     1       3.969   7.311  17.278  0.00  0.00    +0.000 C 
ENDROOT
BRANCH   1  17
ATOM     13  C   UNL     1       7.376   4.896  13.098  0.00  0.00    +0.000 C 
ATOM     14  C   UNL     1       6.855   5.017  14.472  0.00  0.00    +0.000 A 
ATOM     15  N   UNL     1       7.580   5.501  15.488  0.00  0.00    +0.000 NA
ATOM     16  O   UNL     1       6.690   5.439  16.566  0.00  0.00    +0.000 OA
ATOM     17  C   UNL     1       5.520   4.919  16.084  0.00  0.00    +0.000 A 
ATOM     18  N   UNL     1       5.580   4.645  14.795  0.00  0.00    +0.000 NA
ENDBRANCH   1  17
BRANCH   4  19
ATOM     19  C   UNL     1       1.066   4.412  19.858  0.00  0.00    +0.000 C 
BRANCH  19  20
ATOM     20  C   UNL     1       1.456   4.147  21.326  0.00  0.00    +0.000 C 
ATOM     21  C   UNL     1       1.477   2.663  21.696  0.00  0.00    +0.000 C 
BRANCH  20  22
ATOM     22  N   UNL     1       2.791   4.715  21.579  0.00  0.00    +0.000 NA
ATOM     23  H   UNL     1       3.433   4.401  20.849  0.00  0.00    +0.000 HD
ATOM     24  H   UNL     1       3.163   4.335  22.449  0.00  0.00    +0.000 HD
ENDBRANCH  20  22
ENDBRANCH  19  20
ENDBRANCH   4  19
TORSDOF 4
ENDMDL
MODEL 3
REMARK VINA RESULT:      -6.9      2.060      3.968
REMARK  Name = 
REMARK  6 active torsions:
REMARK  status: ('A' for Active; 'I' for Inactive)
REMARK    1  A    between atoms: C_1  and  C_2
REMARK    2  A    between atoms: C_5  and  C_6
REMARK    3  A    between atoms: C_9  and  C_10
REMARK    4  A    between atoms: C_10  and  C_11
REMARK    5  A    between atoms: C_11  and  C_12
REMARK    6  A    between atoms: C_11  and  N_13
REMARK                            x       y       z     vdW  Elec       q    Type
REMARK                         _______ _______ _______ _____ _____    ______ ____
ROOT
ATOM      1  C   UNL     1       3.880   5.304  18.324  0.00  0.00    +0.000 A 
ATOM      2  C   UNL     1       3.349   6.594  18.274  0.00  0.00    +0.000 A 
ATOM      3  C   UNL     1       2.428   7.051  19.222  0.00  0.00    +0.000 A 
ATOM      4  C   UNL     1       1.959   6.268  20.267  0.00  0.00    +0.000 A 
ATOM      5  C   UNL     1       2.474   4.973  20.313  0.00  0.00    +0.000 A 
ATOM      6  C   UNL     1       3.399   4.510  19.367  0.00  0.00    +0.000 A 
ATOM      7  O   UNL     1       3.770   3.204  19.579  0.00  0.00    +0.000 OA
ATOM      8  C   UNL     1       3.060   2.772  20.757  0.00  0.00    +0.000 C 
ATOM      9  C   UNL     1       2.159   3.889  21.275  0.00  0.00    +0.000 C 
ATOM     10  O   UNL     1       2.049   8.358  19.020  0.00  0.00    +0.000 OA
ATOM     11  C   UNL     1       2.500   8.644  17.680  0.00  0.00    +0.000 C 
ATOM     12  C   UNL     1       3.653   7.708  17.338  0.00  0.00    +0.000 C 
ENDROOT
BRANCH   1  17
ATOM     13  C   UNL     1       6.267   3.775  14.312  0.00  0.00    +0.000 C 
ATOM     14  C   UNL     1       5.970   4.220  15.686  0.00  0.00    +0.000 A 
ATOM     15  N   UNL     1       6.914   4.382  16.621  0.00  0.00    +0.000 NA
ATOM     16  O   UNL     1       6.183   4.815  17.733  0.00  0.00    +0.000 OA
ATOM     17  C   UNL     1       4.870   4.866  17.348  0.00  0.00    +0.000 A 
ATOM     18  N   UNL     1       4.696   4.505  16.091  0.00  0.00    +0.000 NA
ENDBRANCH   1  17
BRANCH   4  19
ATOM     19  C   UNL     1       0.940   6.787  21.246  0.00  0.00    +0.000 C 
BRANCH  19  20
ATOM     20  C   UNL     1       0.851   8.323  21.348  0.00  0.00    +0.000 C 
ATOM     21  C   UNL     1      -0.499   8.826  21.863  0.00  0.00    +0.000 C 
BRANCH  20  22
ATOM     22  N   UNL     1       1.909   8.809  22.248  0.00  0.00    +0.000 NA
ATOM     23  H   UNL     1       1.539   9.570  22.822  0.00  0.00    +0.000 HD
ATOM     24  H   UNL     1       2.660   9.225  21.699  0.00  0.00    +0.000 HD
ENDBRANCH  20  22
ENDBRANCH  19  20
ENDBRANCH   4  19
TORSDOF 4
ENDMDL
MODEL 4
REMARK VINA RESULT:      -6.7      7.547     11.242
REMARK  Name = 
REMARK  6 active torsions:
REMARK  status: ('A' for Active; 'I' for Inactive)
REMARK    1  A    between atoms: C_1  and  C_2
REMARK    2  A    between atoms: C_5  and  C_6
REMARK    3  A    between atoms: C_9  and  C_10
REMARK    4  A    between atoms: C_10  and  C_11
REMARK    5  A    between atoms: C_11  and  C_12
REMARK    6  A    between atoms: C_11  and  N_13
REMARK                            x       y       z     vdW  Elec       q    Type
REMARK                         _______ _______ _______ _____ _____    ______ ____
ROOT
ATOM      1  C   UNL     1      -0.755  12.678  21.904  0.00  0.00    +0.000 A 
ATOM      2  C   UNL     1      -0.664  13.070  20.568  0.00  0.00    +0.000 A 
ATOM      3  C   UNL     1      -0.359  12.160  19.550  0.00  0.00    +0.000 A 
ATOM      4  C   UNL     1      -0.110  10.815  19.781  0.00  0.00    +0.000 A 
ATOM      5  C   UNL     1      -0.184  10.421  21.117  0.00  0.00    +0.000 A 
ATOM      6  C   UNL     1      -0.491  11.328  22.142  0.00  0.00    +0.000 A 
ATOM      7  O   UNL     1      -0.500  10.745  23.385  0.00  0.00    +0.000 OA
ATOM      8  C   UNL     1      -0.197   9.351  23.177  0.00  0.00    +0.000 C 
ATOM      9  C   UNL     1       0.053   9.077  21.697  0.00  0.00    +0.000 C 
ATOM     10  O   UNL     1      -0.348  12.732  18.299  0.00  0.00    +0.000 OA
ATOM     11  C   UNL     1      -0.319  14.149  18.569  0.00  0.00    +0.000 C 
ATOM     12  C   UNL     1      -0.911  14.400  19.951  0.00  0.00    +0.000 C 
ENDROOT
BRANCH   1  17
ATOM     13  C   UNL     1      -3.014  15.332  25.367  0.00  0.00    +0.000 C 
ATOM     14  C   UNL     1      -1.998  14.820  24.429  0.00  0.00    +0.000 A 
ATOM     15  N   UNL     1      -0.759  15.320  24.350  0.00  0.00    +0.000 NA
ATOM     16  O   UNL     1      -0.166  14.532  23.357  0.00  0.00    +0.000 OA
ATOM     17  C   UNL     1      -1.116  13.639  22.940  0.00  0.00    +0.000 A 
ATOM     18  N   UNL     1      -2.261  13.784  23.577  0.00  0.00    +0.000 NA
ENDBRANCH   1  17
BRANCH   4  19
ATOM     19  C   UNL     1       0.249   9.874  18.662  0.00  0.00    +0.000 C 
BRANCH  19  20
ATOM     20  C   UNL     1       1.759   9.732  18.385  0.00  0.00    +0.000 C 
ATOM     21  C   UNL     1       2.140   8.401  17.734  0.00  0.00    +0.000 C 
BRANCH  20  22
ATOM     22  N   UNL     1       2.193  10.828  17.503  0.00  0.00    +0.000 NA
ATOM     23  H   UNL     1       2.464  10.441  16.596  0.00  0.00    +0.000 HD
ATOM     24  H   UNL     1       3.039  11.254  17.880  0.00  0.00    +0.000 HD
ENDBRANCH  20  22
ENDBRANCH  19  20
ENDBRANCH   4  19
TORSDOF 4
ENDMDL
MODEL 5
REMARK VINA RESULT:      -6.4      3.023      5.030
REMARK  Name = 
REMARK  6 active torsions:
REMARK  status: ('A' for Active; 'I' for Inactive)
REMARK    1  A    between atoms: C_1  and  C_2
REMARK    2  A    between atoms: C_5  and  C_6
REMARK    3  A    between atoms: C_9  and  C_10
REMARK    4  A    between atoms: C_10  and  C_11
REMARK    5  A    between atoms: C_11  and  C_12
REMARK    6  A    between atoms: C_11  and  N_13
REMARK                            x       y       z     vdW  Elec       q    Type
REMARK                         _______ _______ _______ _____ _____    ______ ____
ROOT
ATOM      1  C   UNL     1       4.353   2.892  19.801  0.00  0.00    +0.000 A 
ATOM      2  C   UNL     1       2.979   3.096  19.936  0.00  0.00    +0.000 A 
ATOM      3  C   UNL     1       2.329   4.175  19.329  0.00  0.00    +0.000 A 
ATOM      4  C   UNL     1       2.987   5.129  18.566  0.00  0.00    +0.000 A 
ATOM      5  C   UNL     1       4.363   4.939  18.441  0.00  0.00    +0.000 A 
ATOM      6  C   UNL     1       5.020   3.858  19.045  0.00  0.00    +0.000 A 
ATOM      7  O   UNL     1       6.373   3.860  18.814  0.00  0.00    +0.000 OA
ATOM      8  C   UNL     1       6.637   5.009  17.984  0.00  0.00    +0.000 C 
ATOM      9  C   UNL     1       5.349   5.784  17.725  0.00  0.00    +0.000 C 
ATOM     10  O   UNL     1       0.971   4.184  19.554  0.00  0.00    +0.000 OA
ATOM     11  C   UNL     1       0.795   3.245  20.635  0.00  0.00    +0.000 C 
ATOM     12  C   UNL     1       1.961   2.263  20.630  0.00  0.00    +0.000 C 
ENDROOT
BRANCH   1  17
ATOM     13  C   UNL     1       6.315  -1.503  20.786  0.00  0.00    +0.000 C 
ATOM     14  C   UNL     1       5.861  -0.106  20.916  0.00  0.00    +0.000 A 
ATOM     15  N   UNL     1       6.054   0.625  22.020  0.00  0.00    +0.000 NA
ATOM     16  O   UNL     1       5.480   1.857  21.685  0.00  0.00    +0.000 OA
ATOM     17  C   UNL     1       4.999   1.736  20.410  0.00  0.00    +0.000 A 
ATOM     18  N   UNL     1       5.213   0.538  19.900  0.00  0.00    +0.000 NA
ENDBRANCH   1  17
BRANCH   4  19
ATOM     19  C   UNL     1       2.255   6.296  17.958  0.00  0.00    +0.000 C 
BRANCH  19  20
ATOM     20  C   UNL     1       2.501   7.654  18.646  0.00  0.00    +0.000 C 
ATOM     21  C   UNL     1       1.749   8.816  17.994  0.00  0.00    +0.000 C 
BRANCH  20  22
ATOM     22  N   UNL     1       2.091   7.561  20.057  0.00  0.00    +0.000 NA
ATOM     23  H   UNL     1       2.874   7.204  20.611  0.00  0.00    +0.000 HD
ATOM     24  H   UNL     1       1.353   6.864  20.152  0.00  0.00    +0.000 HD
ENDBRANCH  20  22
ENDBRANCH  19  20
ENDBRANCH   4  19
TORSDOF 4
ENDMDL
MODEL 6
REMARK VINA RESULT:      -6.4      1.149      1.245
REMARK  Name = 
REMARK  6 active torsions:
REMARK  status: ('A' for Active; 'I' for Inactive)
REMARK    1  A    between atoms: C_1  and  C_2
REMARK    2  A    between atoms: C_5  and  C_6
REMARK    3  A    between atoms: C_9  and  C_10
REMARK    4  A    between atoms: C_10  and  C_11
REMARK    5  A    between atoms: C_11  and  C_12
REMARK    6  A    between atoms: C_11  and  N_13
REMARK                            x       y       z     vdW  Elec       q    Type
REMARK                         _______ _______ _______ _____ _____    ______ ____
ROOT
ATOM      1  C   UNL     1       4.637   5.072  17.433  0.00  0.00    +0.000 A 
ATOM      2  C   UNL     1       4.459   3.956  18.253  0.00  0.00    +0.000 A 
ATOM      3  C   UNL     1       3.538   3.951  19.305  0.00  0.00    +0.000 A 
ATOM      4  C   UNL     1       2.745   5.042  19.628  0.00  0.00    +0.000 A 
ATOM      5  C   UNL     1       2.929   6.166  18.822  0.00  0.00    +0.000 A 
ATOM      6  C   UNL     1       3.850   6.177  17.765  0.00  0.00    +0.000 A 
ATOM      7  O   UNL     1       3.891   7.380  17.105  0.00  0.00    +0.000 OA
ATOM      8  C   UNL     1       2.918   8.225  17.753  0.00  0.00    +0.000 C 
ATOM      9  C   UNL     1       2.267   7.489  18.919  0.00  0.00    +0.000 C 
ATOM     10  O   UNL     1       3.488   2.749  19.974  0.00  0.00    +0.000 OA
ATOM     11  C   UNL     1       4.677   2.061  19.534  0.00  0.00    +0.000 C 
ATOM     12  C   UNL     1       5.092   2.613  18.174  0.00  0.00    +0.000 C 
ENDROOT
BRANCH   1  17
ATOM     13  C   UNL     1       6.897   4.384  13.126  0.00  0.00    +0.000 C 
ATOM     14  C   UNL     1       6.613   4.791  14.514  0.00  0.00    +0.000 A 
ATOM     15  N   UNL     1       7.484   5.475  15.268  0.00  0.00    +0.000 NA
ATOM     16  O   UNL     1       6.792   5.642  16.473  0.00  0.00    +0.000 OA
ATOM     17  C   UNL     1       5.574   5.036  16.318  0.00  0.00    +0.000 A 
ATOM     18  N   UNL     1       5.425   4.498  15.123  0.00  0.00    +0.000 NA
ENDBRANCH   1  17
BRANCH   4  19
ATOM     19  C   UNL     1       1.789   5.008  20.791  0.00  0.00    +0.000 C 
BRANCH  19  20
ATOM     20  C   UNL     1       0.694   3.926  20.708  0.00  0.00    +0.000 C 
ATOM     21  C   UNL     1       0.466   3.393  19.292  0.00  0.00    +0.000 C 
BRANCH  20  22
ATOM     22  N   UNL     1       1.063   2.799  21.581  0.00  0.00    +0.000 NA
ATOM     23  H   UNL     1       0.918   3.069  22.556  0.00  0.00    +0.000 HD
ATOM     24  H   UNL     1       2.062   2.615  21.496  0.00  0.00    +0.000 HD
ENDBRANCH  20  22
ENDBRANCH  19  20
ENDBRANCH   4  19
TORSDOF 4
ENDMDL
MODEL 7
REMARK VINA RESULT:      -6.3      2.742      5.271
REMARK  Name = 
REMARK  6 active torsions:
REMARK  status: ('A' for Active; 'I' for Inactive)
REMARK    1  A    between atoms: C_1  and  C_2
REMARK    2  A    between atoms: C_5  and  C_6
REMARK    3  A    between atoms: C_9  and  C_10
REMARK    4  A    between atoms: C_10  and  C_11
REMARK    5  A    between atoms: C_11  and  C_12
REMARK    6  A    between atoms: C_11  and  N_13
REMARK                            x       y       z     vdW  Elec       q    Type
REMARK                         _______ _______ _______ _____ _____    ______ ____
ROOT
ATOM      1  C   UNL     1       2.859   6.934  18.516  0.00  0.00    +0.000 A 
ATOM      2  C   UNL     1       2.474   6.032  19.509  0.00  0.00    +0.000 A 
ATOM      3  C   UNL     1       3.050   4.763  19.618  0.00  0.00    +0.000 A 
ATOM      4  C   UNL     1       4.028   4.294  18.753  0.00  0.00    +0.000 A 
ATOM      5  C   UNL     1       4.406   5.185  17.749  0.00  0.00    +0.000 A 
ATOM      6  C   UNL     1       3.833   6.460  17.635  0.00  0.00    +0.000 A 
ATOM      7  O   UNL     1       4.329   7.175  16.574  0.00  0.00    +0.000 OA
ATOM      8  C   UNL     1       5.315   6.329  15.946  0.00  0.00    +0.000 C 
ATOM      9  C   UNL     1       5.392   4.983  16.659  0.00  0.00    +0.000 C 
ATOM     10  O   UNL     1       2.560   4.036  20.679  0.00  0.00    +0.000 OA
ATOM     11  C   UNL     1       1.372   4.755  21.068  0.00  0.00    +0.000 C 
ATOM     12  C   UNL     1       1.505   6.206  20.623  0.00  0.00    +0.000 C 
ENDROOT
BRANCH   1  17
ATOM     13  C   UNL     1       0.593  11.196  19.433  0.00  0.00    +0.000 C 
ATOM     14  C   UNL     1       1.327  10.113  18.753  0.00  0.00    +0.000 A 
ATOM     15  N   UNL     1       1.767  10.208  17.492  0.00  0.00    +0.000 NA
ATOM     16  O   UNL     1       2.400   8.976  17.287  0.00  0.00    +0.000 OA
ATOM     17  C   UNL     1       2.272   8.267  18.450  0.00  0.00    +0.000 A 
ATOM     18  N   UNL     1       1.615   8.933  19.380  0.00  0.00    +0.000 NA
ENDBRANCH   1  17
BRANCH   4  19
ATOM     19  C   UNL     1       4.599   2.906  18.883  0.00  0.00    +0.000 C 
BRANCH  19  20
ATOM     20  C   UNL     1       3.576   1.761  18.744  0.00  0.00    +0.000 C 
ATOM     21  C   UNL     1       2.511   2.018  17.676  0.00  0.00    +0.000 C 
BRANCH  20  22
ATOM     22  N   UNL     1       4.288   0.517  18.410  0.00  0.00    +0.000 NA
ATOM     23  H   UNL     1       4.015  -0.214  19.072  0.00  0.00    +0.000 HD
ATOM     24  H   UNL     1       5.289   0.649  18.551  0.00  0.00    +0.000 HD
ENDBRANCH  20  22
ENDBRANCH  19  20
ENDBRANCH   4  19
TORSDOF 4
ENDMDL
MODEL 8
REMARK VINA RESULT:      -6.3      1.004      1.010
REMARK  Name = 
REMARK  6 active torsions:
REMARK  status: ('A' for Active; 'I' for Inactive)
REMARK    1  A    between atoms: C_1  and  C_2
REMARK    2  A    between atoms: C_5  and  C_6
REMARK    3  A    between atoms: C_9  and  C_10
REMARK    4  A    between atoms: C_10  and  C_11
REMARK    5  A    between atoms: C_11  and  C_12
REMARK    6  A    between atoms: C_11  and  N_13
REMARK                            x       y       z     vdW  Elec       q    Type
REMARK                         _______ _______ _______ _____ _____    ______ ____
ROOT
ATOM      1  C   UNL     1       4.612   4.704  16.740  0.00  0.00    +0.000 A 
ATOM      2  C   UNL     1       4.206   3.483  17.282  0.00  0.00    +0.000 A 
ATOM      3  C   UNL     1       3.228   3.405  18.279  0.00  0.00    +0.000 A 
ATOM      4  C   UNL     1       2.598   4.519  18.816  0.00  0.00    +0.000 A 
ATOM      5  C   UNL     1       3.012   5.743  18.291  0.00  0.00    +0.000 A 
ATOM      6  C   UNL     1       3.990   5.827  17.290  0.00  0.00    +0.000 A 
ATOM      7  O   UNL     1       4.265   7.121  16.920  0.00  0.00    +0.000 OA
ATOM      8  C   UNL     1       3.398   7.957  17.713  0.00  0.00    +0.000 C 
ATOM      9  C   UNL     1       2.563   7.106  18.664  0.00  0.00    +0.000 C 
ATOM     10  O   UNL     1       2.944   2.113  18.657  0.00  0.00    +0.000 OA
ATOM     11  C   UNL     1       4.035   1.346  18.108  0.00  0.00    +0.000 C 
ATOM     12  C   UNL     1       4.620   2.102  16.921  0.00  0.00    +0.000 C 
ENDROOT
BRANCH   1  17
ATOM     13  C   UNL     1       7.074   4.373  12.503  0.00  0.00    +0.000 C 
ATOM     14  C   UNL     1       6.727   4.656  13.907  0.00  0.00    +0.000 A 
ATOM     15  N   UNL     1       7.568   5.250  14.762  0.00  0.00    +0.000 NA
ATOM     16  O   UNL     1       6.820   5.319  15.943  0.00  0.00    +0.000 OA
ATOM     17  C   UNL     1       5.603   4.753  15.673  0.00  0.00    +0.000 A 
ATOM     18  N   UNL     1       5.506   4.331  14.427  0.00  0.00    +0.000 NA
ENDBRANCH   1  17
BRANCH   4  19
ATOM     19  C   UNL     1       1.575   4.395  19.914  0.00  0.00    +0.000 C 
BRANCH  19  20
ATOM     20  C   UNL     1       1.283   2.953  20.378  0.00  0.00    +0.000 C 
ATOM     21  C   UNL     1       1.180   2.808  21.897  0.00  0.00    +0.000 C 
BRANCH  20  22
ATOM     22  N   UNL     1       0.019   2.500  19.774  0.00  0.00    +0.000 NA
ATOM     23  H   UNL     1      -0.074   1.491  19.911  0.00  0.00    +0.000 HD
ATOM     24  H   UNL     1       0.057   2.634  18.765  0.00  0.00    +0.000 HD
ENDBRANCH  20  22
ENDBRANCH  19  20
ENDBRANCH   4  19
TORSDOF 4
ENDMDL
MODEL 9
REMARK VINA RESULT:      -6.3      2.628      3.581
REMARK  Name = 
REMARK  6 active torsions:
REMARK  status: ('A' for Active; 'I' for Inactive)
REMARK    1  A    between atoms: C_1  and  C_2
REMARK    2  A    between atoms: C_5  and  C_6
REMARK    3  A    between atoms: C_9  and  C_10
REMARK    4  A    between atoms: C_10  and  C_11
REMARK    5  A    between atoms: C_11  and  C_12
REMARK    6  A    between atoms: C_11  and  N_13
REMARK                            x       y       z     vdW  Elec       q    Type
REMARK                         _______ _______ _______ _____ _____    ______ ____
ROOT
ATOM      1  C   UNL     1       3.285   6.682  18.320  0.00  0.00    +0.000 A 
ATOM      2  C   UNL     1       2.914   5.855  19.381  0.00  0.00    +0.000 A 
ATOM      3  C   UNL     1       1.975   6.256  20.337  0.00  0.00    +0.000 A 
ATOM      4  C   UNL     1       1.354   7.497  20.321  0.00  0.00    +0.000 A 
ATOM      5  C   UNL     1       1.733   8.334  19.272  0.00  0.00    +0.000 A 
ATOM      6  C   UNL     1       2.672   7.937  18.309  0.00  0.00    +0.000 A 
ATOM      7  O   UNL     1       2.918   8.909  17.371  0.00  0.00    +0.000 OA
ATOM      8  C   UNL     1       2.072  10.024  17.718  0.00  0.00    +0.000 C 
ATOM      9  C   UNL     1       1.283   9.718  18.987  0.00  0.00    +0.000 C 
ATOM     10  O   UNL     1       1.721   5.290  21.283  0.00  0.00    +0.000 OA
ATOM     11  C   UNL     1       2.799   4.347  21.111  0.00  0.00    +0.000 C 
ATOM     12  C   UNL     1       3.331   4.461  19.687  0.00  0.00    +0.000 C 
ENDROOT
BRANCH   1  17
ATOM     13  C   UNL     1       5.729   4.217  14.844  0.00  0.00    +0.000 C 
ATOM     14  C   UNL     1       5.341   5.244  15.828  0.00  0.00    +0.000 A 
ATOM     15  N   UNL     1       6.045   6.364  16.031  0.00  0.00    +0.000 NA
ATOM     16  O   UNL     1       5.308   7.023  17.022  0.00  0.00    +0.000 OA
ATOM     17  C   UNL     1       4.236   6.224  17.314  0.00  0.00    +0.000 A 
ATOM     18  N   UNL     1       4.220   5.116  16.599  0.00  0.00    +0.000 NA
ENDBRANCH   1  17
BRANCH   4  19
ATOM     19  C   UNL     1       0.374   7.903  21.389  0.00  0.00    +0.000 C 
BRANCH  19  20
ATOM     20  C   UNL     1       0.693   9.234  22.099  0.00  0.00    +0.000 C 
ATOM     21  C   UNL     1      -0.342   9.629  23.154  0.00  0.00    +0.000 C 
BRANCH  20  22
ATOM     22  N   UNL     1       2.011   9.131  22.747  0.00  0.00    +0.000 NA
ATOM     23  H   UNL     1       2.010   9.693  23.601  0.00  0.00    +0.000 HD
ATOM     24  H   UNL     1       2.719   9.552  22.147  0.00  0.00    +0.000 HD
ENDBRANCH  20  22
ENDBRANCH  19  20
ENDBRANCH   4  19
TORSDOF 4
ENDMDL
