MODEL 1
REMARK VINA RESULT:      -7.9      0.000      0.000
REMARK  Name = 
REMARK  7 active torsions:
REMARK  status: ('A' for Active; 'I' for Inactive)
REMARK    1  A    between atoms: C_1  and  C_2
REMARK    2  A    between atoms: C_5  and  C_6
REMARK    3  A    between atoms: C_9  and  C_10
REMARK    4  A    between atoms: C_10  and  C_11
REMARK    5  A    between atoms: C_11  and  C_12
REMARK    6  A    between atoms: C_19  and  C_20
REMARK    7  A    between atoms: N_22  and  C_23
REMARK                            x       y       z     vdW  Elec       q    Type
REMARK                         _______ _______ _______ _____ _____    ______ ____
ROOT
ATOM      1  C   UNL     1       2.964   8.294  17.813  0.00  0.00    +0.000 C 
ENDROOT
BRANCH   1   2
ATOM      2  C   UNL     1       3.241   6.857  18.179  0.00  0.00    +0.000 A 
ATOM      3  N   UNL     1       2.434   5.995  18.775  0.00  0.00    +0.000 NA
ATOM      4  C   UNL     1       3.204   4.868  18.958  0.00  0.00    +0.000 A 
ATOM      5  N   UNL     1       2.708   3.782  19.588  0.00  0.00    +0.000 N 
ATOM      6  C   UNL     1       3.589   2.837  20.255  0.00  0.00    +0.000 C 
ATOM      7  C   UNL     1       2.858   2.497  21.549  0.00  0.00    +0.000 C 
ATOM      8  C   UNL     1       1.388   2.643  21.200  0.00  0.00    +0.000 C 
ATOM      9  C   UNL     1       1.342   3.705  20.086  0.00  0.00    +0.000 C 
ATOM     10  C   UNL     1       0.388   3.260  18.981  0.00  0.00    +0.000 C 
ATOM     11  N   UNL     1       4.444   4.988  18.480  0.00  0.00    +0.000 NA
ATOM     12  N   UNL     1       4.438   6.223  17.961  0.00  0.00    +0.000 N 
ATOM     13  C   UNL     1       5.610   6.709  17.282  0.00  0.00    +0.000 C 
ENDBRANCH   1   2
BRANCH   1  14
ATOM     14  C   UNL     1       1.470   8.638  17.835  0.00  0.00    +0.000 C 
BRANCH  14  23
ATOM     15  C   UNL     1       0.032   9.389  23.116  0.00  0.00    +0.000 C 
ATOM     16  C   UNL     1       0.039  10.538  22.146  0.00  0.00    +0.000 A 
ATOM     17  N   UNL     1      -0.296  11.728  22.567  0.00  0.00    +0.000 NA
ATOM     18  C   UNL     1      -0.281  12.763  21.661  0.00  0.00    +0.000 A 
ATOM     19  C   UNL     1       0.053  12.642  20.361  0.00  0.00    +0.000 A 
ATOM     20  C   UNL     1       0.055  13.795  19.410  0.00  0.00    +0.000 C 
ATOM     21  N   UNL     1       0.415  11.374  19.898  0.00  0.00    +0.000 N 
ATOM     22  N   UNL     1       0.801  10.932  18.665  0.00  0.00    +0.000 NA
ATOM     23  C   UNL     1       1.012   9.620  18.875  0.00  0.00    +0.000 A 
ATOM     24  N   UNL     1       0.779   9.204  20.171  0.00  0.00    +0.000 NA
ATOM     25  C   UNL     1       0.413  10.311  20.774  0.00  0.00    +0.000 A 
ENDBRANCH  14  23
ENDBRANCH   1  14
TORSDOF 3
ENDMDL
MODEL 2
REMARK VINA RESULT:      -7.8      1.444      7.783
REMARK  Name = 
REMARK  7 active torsions:
REMARK  status: ('A' for Active; 'I' for Inactive)
REMARK    1  A    between atoms: C_1  and  C_2
REMARK    2  A    between atoms: C_5  and  C_6
REMARK    3  A    between atoms: C_9  and  C_10
REMARK    4  A    between atoms: C_10  and  C_11
REMARK    5  A    between atoms: C_11  and  C_12
REMARK    6  A    between atoms: C_19  and  C_20
REMARK    7  A    between atoms: N_22  and  C_23
REMARK                            x       y       z     vdW  Elec       q    Type
REMARK                         _______ _______ _______ _____ _____    ______ ____
ROOT
ATOM      1  C   UNL     1       1.415   9.222  17.804  0.00  0.00    +0.000 C 
ENDROOT
BRANCH   1   2
ATOM      2  C   UNL     1       1.194  10.222  18.911  0.00  0.00    +0.000 A 
ATOM      3  N   UNL     1       0.487  10.073  20.019  0.00  0.00    +0.000 NA
ATOM      4  C   UNL     1       0.532  11.307  20.628  0.00  0.00    +0.000 A 
ATOM      5  N   UNL     1      -0.129  11.538  21.782  0.00  0.00    +0.000 N 
ATOM      6  C   UNL     1      -0.544  12.882  22.152  0.00  0.00    +0.000 C 
ATOM      7  C   UNL     1      -1.943  12.695  22.727  0.00  0.00    +0.000 C 
ATOM      8  C   UNL     1      -1.922  11.298  23.321  0.00  0.00    +0.000 C 
ATOM      9  C   UNL     1      -0.902  10.516  22.475  0.00  0.00    +0.000 C 
ATOM     10  C   UNL     1      -0.001   9.682  23.383  0.00  0.00    +0.000 C 
ATOM     11  N   UNL     1       1.254  12.206  19.956  0.00  0.00    +0.000 NA
ATOM     12  N   UNL     1       1.694  11.500  18.906  0.00  0.00    +0.000 N 
ATOM     13  C   UNL     1       2.578  12.123  17.958  0.00  0.00    +0.000 C 
ENDBRANCH   1   2
BRANCH   1  14
ATOM     14  C   UNL     1       2.808   8.582  17.850  0.00  0.00    +0.000 C 
BRANCH  14  23
ATOM     15  C   UNL     1       5.211   3.823  16.398  0.00  0.00    +0.000 C 
ATOM     16  C   UNL     1       4.138   3.858  17.451  0.00  0.00    +0.000 A 
ATOM     17  N   UNL     1       3.780   2.743  18.030  0.00  0.00    +0.000 NA
ATOM     18  C   UNL     1       2.797   2.801  18.992  0.00  0.00    +0.000 A 
ATOM     19  C   UNL     1       2.169   3.927  19.383  0.00  0.00    +0.000 A 
ATOM     20  C   UNL     1       1.106   3.944  20.433  0.00  0.00    +0.000 C 
ATOM     21  N   UNL     1       2.546   5.127  18.773  0.00  0.00    +0.000 N 
ATOM     22  N   UNL     1       2.114   6.411  18.948  0.00  0.00    +0.000 NA
ATOM     23  C   UNL     1       2.868   7.097  18.069  0.00  0.00    +0.000 A 
ATOM     24  N   UNL     1       3.751   6.321  17.345  0.00  0.00    +0.000 NA
ATOM     25  C   UNL     1       3.526   5.113  17.806  0.00  0.00    +0.000 A 
ENDBRANCH  14  23
ENDBRANCH   1  14
TORSDOF 3
ENDMDL
MODEL 3
REMARK VINA RESULT:      -7.7      0.605      2.010
REMARK  Name = 
REMARK  7 active torsions:
REMARK  status: ('A' for Active; 'I' for Inactive)
REMARK    1  A    between atoms: C_1  and  C_2
REMARK    2  A    between atoms: C_5  and  C_6
REMARK    3  A    between atoms: C_9  and  C_10
REMARK    4  A    between atoms: C_10  and  C_11
REMARK    5  A    between atoms: C_11  and  C_12
REMARK    6  A    between atoms: C_19  and  C_20
REMARK    7  A    between atoms: N_22  and  C_23
REMARK                            x       y       z     vdW  Elec       q    Type
REMARK                         _______ _______ _______ _____ _____    ______ ____
ROOT
ATOM      1  C   UNL     1       3.218   8.129  17.731  0.00  0.00    +0.000 C 
ENDROOT
BRANCH   1   2
ATOM      2  C   UNL     1       3.425   6.702  18.173  0.00  0.00    +0.000 A 
ATOM      3  N   UNL     1       2.552   5.885  18.738  0.00  0.00    +0.000 NA
ATOM      4  C   UNL     1       3.273   4.748  19.024  0.00  0.00    +0.000 A 
ATOM      5  N   UNL     1       2.701   3.701  19.655  0.00  0.00    +0.000 N 
ATOM      6  C   UNL     1       3.501   2.762  20.426  0.00  0.00    +0.000 C 
ATOM      7  C   UNL     1       2.663   2.494  21.671  0.00  0.00    +0.000 C 
ATOM      8  C   UNL     1       1.229   2.662  21.202  0.00  0.00    +0.000 C 
ATOM      9  C   UNL     1       1.298   3.678  20.048  0.00  0.00    +0.000 C 
ATOM     10  C   UNL     1       0.421   3.212  18.889  0.00  0.00    +0.000 C 
ATOM     11  N   UNL     1       4.550   4.818  18.641  0.00  0.00    +0.000 NA
ATOM     12  N   UNL     1       4.617   6.030  18.075  0.00  0.00    +0.000 N 
ATOM     13  C   UNL     1       5.852   6.459  17.471  0.00  0.00    +0.000 C 
ENDBRANCH   1   2
BRANCH   1  14
ATOM     14  C   UNL     1       1.737   8.525  17.674  0.00  0.00    +0.000 C 
BRANCH  14  23
ATOM     15  C   UNL     1       0.528  13.708  19.156  0.00  0.00    +0.000 C 
ATOM     16  C   UNL     1       0.328  12.565  20.112  0.00  0.00    +0.000 A 
ATOM     17  N   UNL     1      -0.143  12.808  21.305  0.00  0.00    +0.000 NA
ATOM     18  C   UNL     1      -0.319  11.745  22.161  0.00  0.00    +0.000 A 
ATOM     19  C   UNL     1      -0.036  10.462  21.861  0.00  0.00    +0.000 A 
ATOM     20  C   UNL     1      -0.241   9.337  22.823  0.00  0.00    +0.000 C 
ATOM     21  N   UNL     1       0.468  10.188  20.586  0.00  0.00    +0.000 N 
ATOM     22  N   UNL     1       0.839   9.018  19.988  0.00  0.00    +0.000 NA
ATOM     23  C   UNL     1       1.231   9.425  18.766  0.00  0.00    +0.000 A 
ATOM     24  N   UNL     1       1.133  10.785  18.557  0.00  0.00    +0.000 NA
ATOM     25  C   UNL     1       0.657  11.224  19.699  0.00  0.00    +0.000 A 
ENDBRANCH  14  23
ENDBRANCH   1  14
TORSDOF 3
ENDMDL
MODEL 4
REMARK VINA RESULT:      -7.7      1.437      7.676
REMARK  Name = 
REMARK  7 active torsions:
REMARK  status: ('A' for Active; 'I' for Inactive)
REMARK    1  A    between atoms: C_1  and  C_2
REMARK    2  A    between atoms: C_5  and  C_6
REMARK    3  A    between atoms: C_9  and  C_10
REMARK    4  A    between atoms: C_10  and  C_11
REMARK    5  A    between atoms: C_11  and  C_12
REMARK    6  A    between atoms: C_19  and  C_20
REMARK    7  A    between atoms: N_22  and  C_23
REMARK                            x       y       z     vdW  Elec       q    Type
REMARK                         _______ _______ _______ _____ _____    ______ ____
ROOT
ATOM      1  C   UNL     1       1.386   9.189  17.833  0.00  0.00    +0.000 C 
ENDROOT
BRANCH   1   2
ATOM      2  C   UNL     1       1.164  10.203  18.928  0.00  0.00    +0.000 A 
ATOM      3  N   UNL     1       0.457  10.066  20.037  0.00  0.00    +0.000 NA
ATOM      4  C   UNL     1       0.502  11.307  20.632  0.00  0.00    +0.000 A 
ATOM      5  N   UNL     1      -0.160  11.551  21.783  0.00  0.00    +0.000 N 
ATOM      6  C   UNL     1      -0.575  12.899  22.138  0.00  0.00    +0.000 C 
ATOM      7  C   UNL     1      -1.974  12.719  22.714  0.00  0.00    +0.000 C 
ATOM      8  C   UNL     1      -1.953  11.329  23.325  0.00  0.00    +0.000 C 
ATOM      9  C   UNL     1      -0.932  10.537  22.489  0.00  0.00    +0.000 C 
ATOM     10  C   UNL     1      -0.032   9.714  23.406  0.00  0.00    +0.000 C 
ATOM     11  N   UNL     1       1.224  12.198  19.950  0.00  0.00    +0.000 NA
ATOM     12  N   UNL     1       1.664  11.480  18.909  0.00  0.00    +0.000 N 
ATOM     13  C   UNL     1       2.549  12.093  17.953  0.00  0.00    +0.000 C 
ENDBRANCH   1   2
BRANCH   1  14
ATOM     14  C   UNL     1       2.816   8.636  17.815  0.00  0.00    +0.000 C 
BRANCH  14  23
ATOM     15  C   UNL     1       1.033   4.025  20.282  0.00  0.00    +0.000 C 
ATOM     16  C   UNL     1       2.134   3.978  19.258  0.00  0.00    +0.000 A 
ATOM     17  N   UNL     1       2.666   2.826  18.949  0.00  0.00    +0.000 NA
ATOM     18  C   UNL     1       3.670   2.809  18.008  0.00  0.00    +0.000 A 
ATOM     19  C   UNL     1       4.152   3.898  17.378  0.00  0.00    +0.000 A 
ATOM     20  C   UNL     1       5.246   3.833  16.362  0.00  0.00    +0.000 C 
ATOM     21  N   UNL     1       3.589   5.137  17.698  0.00  0.00    +0.000 N 
ATOM     22  N   UNL     1       3.848   6.398  17.242  0.00  0.00    +0.000 NA
ATOM     23  C   UNL     1       2.971   7.146  17.936  0.00  0.00    +0.000 A 
ATOM     24  N   UNL     1       2.174   6.433  18.809  0.00  0.00    +0.000 NA
ATOM     25  C   UNL     1       2.581   5.197  18.634  0.00  0.00    +0.000 A 
ENDBRANCH  14  23
ENDBRANCH   1  14
TORSDOF 3
ENDMDL
MODEL 5
REMARK VINA RESULT:      -7.6      1.973      4.308
REMARK  Name = 
REMARK  7 active torsions:
REMARK  status: ('A' for Active; 'I' for Inactive)
REMARK    1  A    between atoms: C_1  and  C_2
REMARK    2  A    between atoms: C_5  and  C_6
REMARK    3  A    between atoms: C_9  and  C_10
REMARK    4  A    between atoms: C_10  and  C_11
REMARK    5  A    between atoms: C_11  and  C_12
REMARK    6  A    between atoms: C_19  and  C_20
REMARK    7  A    between atoms: N_22  and  C_23
REMARK                            x       y       z     vdW  Elec       q    Type
REMARK                         _______ _______ _______ _____ _____    ______ ____
ROOT
ATOM      1  C   UNL     1       2.537   6.636  19.349  0.00  0.00    +0.000 C 
ENDROOT
BRANCH   1   2
ATOM      2  C   UNL     1       3.189   5.631  18.432  0.00  0.00    +0.000 A 
ATOM      3  N   UNL     1       4.402   5.669  17.906  0.00  0.00    +0.000 NA
ATOM      4  C   UNL     1       4.456   4.570  17.078  0.00  0.00    +0.000 A 
ATOM      5  N   UNL     1       5.552   4.314  16.333  0.00  0.00    +0.000 N 
ATOM      6  C   UNL     1       5.461   3.534  15.109  0.00  0.00    +0.000 C 
ATOM      7  C   UNL     1       6.379   4.263  14.134  0.00  0.00    +0.000 C 
ATOM      8  C   UNL     1       7.444   4.889  15.017  0.00  0.00    +0.000 C 
ATOM      9  C   UNL     1       6.750   5.143  16.367  0.00  0.00    +0.000 C 
ATOM     10  C   UNL     1       7.666   4.721  17.513  0.00  0.00    +0.000 C 
ATOM     11  N   UNL     1       3.338   3.842  17.087  0.00  0.00    +0.000 NA
ATOM     12  N   UNL     1       2.571   4.497  17.968  0.00  0.00    +0.000 N 
ATOM     13  C   UNL     1       1.274   3.970  18.303  0.00  0.00    +0.000 C 
ENDBRANCH   1   2
BRANCH   1  14
ATOM     14  C   UNL     1       2.211   7.959  18.645  0.00  0.00    +0.000 C 
BRANCH  14  23
ATOM     15  C   UNL     1      -0.744  12.620  18.390  0.00  0.00    +0.000 C 
ATOM     16  C   UNL     1      -0.623  11.851  19.676  0.00  0.00    +0.000 A 
ATOM     17  N   UNL     1      -1.233  12.296  20.742  0.00  0.00    +0.000 NA
ATOM     18  C   UNL     1      -1.109  11.573  21.907  0.00  0.00    +0.000 A 
ATOM     19  C   UNL     1      -0.398  10.436  22.034  0.00  0.00    +0.000 A 
ATOM     20  C   UNL     1      -0.290   9.683  23.321  0.00  0.00    +0.000 C 
ATOM     21  N   UNL     1       0.258   9.949  20.899  0.00  0.00    +0.000 N 
ATOM     22  N   UNL     1       1.037   8.844  20.704  0.00  0.00    +0.000 NA
ATOM     23  C   UNL     1       1.359   8.939  19.401  0.00  0.00    +0.000 A 
ATOM     24  N   UNL     1       0.833  10.043  18.760  0.00  0.00    +0.000 NA
ATOM     25  C   UNL     1       0.158  10.642  19.714  0.00  0.00    +0.000 A 
ENDBRANCH  14  23
ENDBRANCH   1  14
TORSDOF 3
ENDMDL
MODEL 6
REMARK VINA RESULT:      -7.6      1.933      2.434
REMARK  Name = 
REMARK  7 active torsions:
REMARK  status: ('A' for Active; 'I' for Inactive)
REMARK    1  A    between atoms: C_1  and  C_2
REMARK    2  A    between atoms: C_5  and  C_6
REMARK    3  A    between atoms: C_9  and  C_10
REMARK    4  A    between atoms: C_10  and  C_11
REMARK    5  A    between atoms: C_11  and  C_12
REMARK    6  A    between atoms: C_19  and  C_20
REMARK    7  A    between atoms: N_22  and  C_23
REMARK                            x       y       z     vdW  Elec       q    Type
REMARK                         _______ _______ _______ _____ _____    ______ ____
ROOT
ATOM      1  C   UNL     1       2.519   8.211  17.650  0.00  0.00    +0.000 C 
ENDROOT
BRANCH   1   2
ATOM      2  C   UNL     1       2.920   6.817  18.064  0.00  0.00    +0.000 A 
ATOM      3  N   UNL     1       2.184   5.901  18.670  0.00  0.00    +0.000 NA
ATOM      4  C   UNL     1       3.050   4.856  18.901  0.00  0.00    +0.000 A 
ATOM      5  N   UNL     1       2.645   3.746  19.554  0.00  0.00    +0.000 N 
ATOM      6  C   UNL     1       3.595   2.906  20.265  0.00  0.00    +0.000 C 
ATOM      7  C   UNL     1       2.872   2.537  21.556  0.00  0.00    +0.000 C 
ATOM      8  C   UNL     1       1.402   2.535  21.175  0.00  0.00    +0.000 C 
ATOM      9  C   UNL     1       1.281   3.556  20.030  0.00  0.00    +0.000 C 
ATOM     10  C   UNL     1       0.396   2.994  18.921  0.00  0.00    +0.000 C 
ATOM     11  N   UNL     1       4.284   5.078  18.443  0.00  0.00    +0.000 NA
ATOM     12  N   UNL     1       4.174   6.291  17.887  0.00  0.00    +0.000 N 
ATOM     13  C   UNL     1       5.311   6.865  17.215  0.00  0.00    +0.000 C 
ENDBRANCH   1   2
BRANCH   1  14
ATOM     14  C   UNL     1       2.025   9.062  18.826  0.00  0.00    +0.000 C 
BRANCH  14  23
ATOM     15  C   UNL     1      -1.674  12.514  21.044  0.00  0.00    +0.000 C 
ATOM     16  C   UNL     1      -1.942  11.835  19.730  0.00  0.00    +0.000 A 
ATOM     17  N   UNL     1      -3.065  12.075  19.108  0.00  0.00    +0.000 NA
ATOM     18  C   UNL     1      -3.286  11.443  17.906  0.00  0.00    +0.000 A 
ATOM     19  C   UNL     1      -2.428  10.586  17.318  0.00  0.00    +0.000 A 
ATOM     20  C   UNL     1      -2.710   9.921  16.010  0.00  0.00    +0.000 C 
ATOM     21  N   UNL     1      -1.221  10.324  17.973  0.00  0.00    +0.000 N 
ATOM     22  N   UNL     1      -0.164   9.525  17.643  0.00  0.00    +0.000 NA
ATOM     23  C   UNL     1       0.677   9.709  18.678  0.00  0.00    +0.000 A 
ATOM     24  N   UNL     1       0.211  10.576  19.646  0.00  0.00    +0.000 NA
ATOM     25  C   UNL     1      -0.961  10.937  19.178  0.00  0.00    +0.000 A 
ENDBRANCH  14  23
ENDBRANCH   1  14
TORSDOF 3
ENDMDL
MODEL 7
REMARK VINA RESULT:      -7.6      1.744      3.749
REMARK  Name = 
REMARK  7 active torsions:
REMARK  status: ('A' for Active; 'I' for Inactive)
REMARK    1  A    between atoms: C_1  and  C_2
REMARK    2  A    between atoms: C_5  and  C_6
REMARK    3  A    between atoms: C_9  and  C_10
REMARK    4  A    between atoms: C_10  and  C_11
REMARK    5  A    between atoms: C_11  and  C_12
REMARK    6  A    between atoms: C_19  and  C_20
REMARK    7  A    between atoms: N_22  and  C_23
REMARK                            x       y       z     vdW  Elec       q    Type
REMARK                         _______ _______ _______ _____ _____    ______ ____
ROOT
ATOM      1  C   UNL     1       2.107   6.726  19.182  0.00  0.00    +0.000 C 
ENDROOT
BRANCH   1   2
ATOM      2  C   UNL     1       2.939   5.707  18.445  0.00  0.00    +0.000 A 
ATOM      3  N   UNL     1       4.155   5.850  17.946  0.00  0.00    +0.000 NA
ATOM      4  C   UNL     1       4.408   4.662  17.299  0.00  0.00    +0.000 A 
ATOM      5  N   UNL     1       5.561   4.467  16.626  0.00  0.00    +0.000 N 
ATOM      6  C   UNL     1       5.640   3.509  15.535  0.00  0.00    +0.000 C 
ATOM      7  C   UNL     1       6.482   4.215  14.478  0.00  0.00    +0.000 C 
ATOM      8  C   UNL     1       7.404   5.120  15.277  0.00  0.00    +0.000 C 
ATOM      9  C   UNL     1       6.621   5.464  16.556  0.00  0.00    +0.000 C 
ATOM     10  C   UNL     1       7.538   5.363  17.773  0.00  0.00    +0.000 C 
ATOM     11  N   UNL     1       3.409   3.781  17.395  0.00  0.00    +0.000 NA
ATOM     12  N   UNL     1       2.516   4.435  18.149  0.00  0.00    +0.000 N 
ATOM     13  C   UNL     1       1.298   3.773  18.533  0.00  0.00    +0.000 C 
ENDBRANCH   1   2
BRANCH   1  14
ATOM     14  C   UNL     1       2.173   8.120  18.547  0.00  0.00    +0.000 C 
BRANCH  14  23
ATOM     15  C   UNL     1      -0.372   9.850  23.135  0.00  0.00    +0.000 C 
ATOM     16  C   UNL     1      -0.410  10.669  21.874  0.00  0.00    +0.000 A 
ATOM     17  N   UNL     1      -1.052  11.807  21.875  0.00  0.00    +0.000 NA
ATOM     18  C   UNL     1      -1.071  12.539  20.709  0.00  0.00    +0.000 A 
ATOM     19  C   UNL     1      -0.477  12.167  19.558  0.00  0.00    +0.000 A 
ATOM     20  C   UNL     1      -0.524  12.995  18.314  0.00  0.00    +0.000 C 
ATOM     21  N   UNL     1       0.215  10.953  19.546  0.00  0.00    +0.000 N 
ATOM     22  N   UNL     1       0.911  10.313  18.560  0.00  0.00    +0.000 NA
ATOM     23  C   UNL     1       1.337   9.197  19.179  0.00  0.00    +0.000 A 
ATOM     24  N   UNL     1       0.947   9.090  20.499  0.00  0.00    +0.000 NA
ATOM     25  C   UNL     1       0.259  10.191  20.692  0.00  0.00    +0.000 A 
ENDBRANCH  14  23
ENDBRANCH   1  14
TORSDOF 3
ENDMDL
MODEL 8
REMARK VINA RESULT:      -7.5      1.827      2.546
REMARK  Name = 
REMARK  7 active torsions:
REMARK  status: ('A' for Active; 'I' for Inactive)
REMARK    1  A    between atoms: C_1  and  C_2
REMARK    2  A    between atoms: C_5  and  C_6
REMARK    3  A    between atoms: C_9  and  C_10
REMARK    4  A    between atoms: C_10  and  C_11
REMARK    5  A    between atoms: C_11  and  C_12
REMARK    6  A    between atoms: C_19  and  C_20
REMARK    7  A    between atoms: N_22  and  C_23
REMARK                            x       y       z     vdW  Elec       q    Type
REMARK                         _______ _______ _______ _____ _____    ______ ____
ROOT
ATOM      1  C   UNL     1       2.407   8.110  17.541  0.00  0.00    +0.000 C 
ENDROOT
BRANCH   1   2
ATOM      2  C   UNL     1       2.846   6.739  17.993  0.00  0.00    +0.000 A 
ATOM      3  N   UNL     1       2.128   5.810  18.602  0.00  0.00    +0.000 NA
ATOM      4  C   UNL     1       3.025   4.802  18.875  0.00  0.00    +0.000 A 
ATOM      5  N   UNL     1       2.643   3.692  19.541  0.00  0.00    +0.000 N 
ATOM      6  C   UNL     1       3.604   2.901  20.293  0.00  0.00    +0.000 C 
ATOM      7  C   UNL     1       2.863   2.532  21.573  0.00  0.00    +0.000 C 
ATOM      8  C   UNL     1       1.404   2.471  21.158  0.00  0.00    +0.000 C 
ATOM      9  C   UNL     1       1.276   3.463  19.989  0.00  0.00    +0.000 C 
ATOM     10  C   UNL     1       0.438   2.847  18.871  0.00  0.00    +0.000 C 
ATOM     11  N   UNL     1       4.261   5.058  18.441  0.00  0.00    +0.000 NA
ATOM     12  N   UNL     1       4.122   6.255  17.857  0.00  0.00    +0.000 N 
ATOM     13  C   UNL     1       5.254   6.855  17.200  0.00  0.00    +0.000 C 
ENDBRANCH   1   2
BRANCH   1  14
ATOM     14  C   UNL     1       2.163   9.073  18.709  0.00  0.00    +0.000 C 
BRANCH  14  23
ATOM     15  C   UNL     1      -2.636   9.944  16.115  0.00  0.00    +0.000 C 
ATOM     16  C   UNL     1      -2.332  10.618  17.424  0.00  0.00    +0.000 A 
ATOM     17  N   UNL     1      -3.223  11.414  17.951  0.00  0.00    +0.000 NA
ATOM     18  C   UNL     1      -2.922  12.017  19.151  0.00  0.00    +0.000 A 
ATOM     19  C   UNL     1      -1.768  11.851  19.827  0.00  0.00    +0.000 A 
ATOM     20  C   UNL     1      -1.482  12.528  21.129  0.00  0.00    +0.000 C 
ATOM     21  N   UNL     1      -0.807  10.999  19.274  0.00  0.00    +0.000 N 
ATOM     22  N   UNL     1       0.433  10.626  19.707  0.00  0.00    +0.000 NA
ATOM     23  C   UNL     1       0.844   9.791  18.734  0.00  0.00    +0.000 A 
ATOM     24  N   UNL     1      -0.063   9.617  17.709  0.00  0.00    +0.000 NA
ATOM     25  C   UNL     1      -1.070  10.375  18.076  0.00  0.00    +0.000 A 
ENDBRANCH  14  23
ENDBRANCH   1  14
TORSDOF 3
ENDMDL
MODEL 9
REMARK VINA RESULT:      -7.5      1.772      4.066
REMARK  Name = 
REMARK  7 active torsions:
REMARK  status: ('A' for Active; 'I' for Inactive)
REMARK    1  A    between atoms: C_1  and  C_2
REMARK    2  A    between atoms: C_5  and  C_6
REMARK    3  A    between atoms: C_9  and  C_10
REMARK    4  A    between atoms: C_10  and  C_11
REMARK    5  A    between atoms: C_11  and  C_12
REMARK    6  A    between atoms: C_19  and  C_20
REMARK    7  A    between atoms: N_22  and  C_23
REMARK                            x       y       z     vdW  Elec       q    Type
REMARK                         _______ _______ _______ _____ _____    ______ ____
ROOT
ATOM      1  C   UNL     1       1.354   4.884  19.981  0.00  0.00    +0.000 C 
ENDROOT
BRANCH   1   2
ATOM      2  C   UNL     1       2.468   4.367  19.106  0.00  0.00    +0.000 A 
ATOM      3  N   UNL     1       3.601   4.968  18.784  0.00  0.00    +0.000 NA
ATOM      4  C   UNL     1       4.209   4.110  17.895  0.00  0.00    +0.000 A 
ATOM      5  N   UNL     1       5.387   4.428  17.316  0.00  0.00    +0.000 N 
ATOM      6  C   UNL     1       5.773   3.851  16.038  0.00  0.00    +0.000 C 
ATOM      7  C   UNL     1       6.398   5.015  15.278  0.00  0.00    +0.000 C 
ATOM      8  C   UNL     1       6.991   5.897  16.363  0.00  0.00    +0.000 C 
ATOM      9  C   UNL     1       6.108   5.661  17.601  0.00  0.00    +0.000 C 
ATOM     10  C   UNL     1       6.981   5.501  18.843  0.00  0.00    +0.000 C 
ATOM     11  N   UNL     1       3.512   2.994  17.672  0.00  0.00    +0.000 NA
ATOM     12  N   UNL     1       2.446   3.153  18.468  0.00  0.00    +0.000 N 
ATOM     13  C   UNL     1       1.467   2.102  18.552  0.00  0.00    +0.000 C 
ENDBRANCH   1   2
BRANCH   1  14
ATOM     14  C   UNL     1       1.833   5.917  21.009  0.00  0.00    +0.000 C 
BRANCH  14  23
ATOM     15  C   UNL     1      -0.788  10.369  22.964  0.00  0.00    +0.000 C 
ATOM     16  C   UNL     1      -0.086  10.407  21.636  0.00  0.00    +0.000 A 
ATOM     17  N   UNL     1      -0.097  11.514  20.943  0.00  0.00    +0.000 NA
ATOM     18  C   UNL     1       0.555  11.525  19.731  0.00  0.00    +0.000 A 
ATOM     19  C   UNL     1       1.204  10.472  19.198  0.00  0.00    +0.000 A 
ATOM     20  C   UNL     1       1.898  10.528  17.875  0.00  0.00    +0.000 C 
ATOM     21  N   UNL     1       1.224   9.281  19.931  0.00  0.00    +0.000 N 
ATOM     22  N   UNL     1       1.789   8.065  19.672  0.00  0.00    +0.000 NA
ATOM     23  C   UNL     1       1.454   7.349  20.762  0.00  0.00    +0.000 A 
ATOM     24  N   UNL     1       0.706   8.041  21.694  0.00  0.00    +0.000 NA
ATOM     25  C   UNL     1       0.585   9.230  21.149  0.00  0.00    +0.000 A 
ENDBRANCH  14  23
ENDBRANCH   1  14
TORSDOF 3
ENDMDL
