MODEL 1
REMARK VINA RESULT:      -7.3      0.000      0.000
REMARK  Name = 
REMARK  18 active torsions:
REMARK  status: ('A' for Active; 'I' for Inactive)
REMARK    1  A    between atoms: C_1  and  C_2
REMARK    2  A    between atoms: C_2  and  C_3
REMARK    3  A    between atoms: C_3  and  C_4
REMARK    4  A    between atoms: C_5  and  O_6
REMARK    5  A    between atoms: O_6  and  C_7
REMARK    6  A    between atoms: C_7  and  C_8
REMARK    7  A    between atoms: C_8  and  O_9
REMARK    8  A    between atoms: C_8  and  C_10
REMARK    9  A    between atoms: C_10  and  S_11
REMARK   10  A    between atoms: S_11  and  C_12
REMARK   11  A    between atoms: C_15  and  C_16
REMARK   12  A    between atoms: C_16  and  C_18
REMARK   13  A    between atoms: C_18  and  C_19
REMARK   14  A    between atoms: C_19  and  C_20
REMARK   15  A    between atoms: C_20  and  O_22
REMARK   16  A    between atoms: C_28  and  C_29
REMARK   17  A    between atoms: C_29  and  C_30
REMARK   18  A    between atoms: C_32  and  O_33
REMARK                            x       y       z     vdW  Elec       q    Type
REMARK                         _______ _______ _______ _____ _____    ______ ____
ROOT
ATOM      1  C   UNL     1       0.365   8.596  20.889  0.00  0.00    +0.000 C 
ENDROOT
BRANCH   1   2
ATOM      2  O   UNL     1      -0.489   8.464  22.034  0.00  0.00    +0.000 OA
ATOM      3  H   UNL     1      -1.404   8.647  21.765  0.00  0.00    +0.000 HD
ENDBRANCH   1   2
BRANCH   1   4
ATOM      4  C   UNL     1       0.811  10.070  20.705  0.00  0.00    +0.000 C 
BRANCH   4   5
ATOM      5  S   UNL     1       0.818  10.575  18.940  0.00  0.00    +0.000 S 
BRANCH   5   6
ATOM      6  C   UNL     1      -0.913  10.725  18.512  0.00  0.00    +0.000 A 
ATOM      7  C   UNL     1      -1.662  11.646  19.257  0.00  0.00    +0.000 A 
ATOM      8  C   UNL     1      -3.019  11.878  18.985  0.00  0.00    +0.000 A 
ATOM      9  C   UNL     1      -3.650  11.210  17.934  0.00  0.00    +0.000 A 
ATOM     10  C   UNL     1      -2.901  10.299  17.184  0.00  0.00    +0.000 A 
ATOM     11  F   UNL     1      -3.451   9.648  16.147  0.00  0.00    +0.000 F 
ATOM     12  C   UNL     1      -1.546  10.057  17.462  0.00  0.00    +0.000 A 
BRANCH   9  13
ATOM     13  C   UNL     1      -5.097  11.425  17.644  0.00  0.00    +0.000 C 
ATOM     14  O   UNL     1      -5.449  12.206  16.762  0.00  0.00    +0.000 OA
BRANCH  13  15
ATOM     15  C   UNL     1      -6.141  10.648  18.438  0.00  0.00    +0.000 C 
BRANCH  15  16
ATOM     16  C   UNL     1      -6.886  11.560  19.408  0.00  0.00    +0.000 C 
BRANCH  16  17
ATOM     17  C   UNL     1      -7.156  10.851  20.712  0.00  0.00    +0.000 C 
ATOM     18  O   UNL     1      -7.463   9.669  20.784  0.00  0.00    +0.000 OA
BRANCH  17  19
ATOM     19  O   UNL     1      -7.099  11.658  21.790  0.00  0.00    +0.000 OA
ATOM     20  H   UNL     1      -7.426  11.228  22.617  0.00  0.00    +0.000 HD
ENDBRANCH  17  19
ENDBRANCH  16  17
ENDBRANCH  15  16
ENDBRANCH  13  15
ENDBRANCH   9  13
ENDBRANCH   5   6
ENDBRANCH   4   5
ENDBRANCH   1   4
BRANCH   1  21
ATOM     21  C   UNL     1       1.597   7.676  21.064  0.00  0.00    +0.000 C 
BRANCH  21  22
ATOM     22  O   UNL     1       1.386   6.357  20.509  0.00  0.00    +0.000 OA
BRANCH  22  24
ATOM     23  C   UNL     1       2.092   4.692  18.922  0.00  0.00    +0.000 A 
ATOM     24  C   UNL     1       2.206   5.990  19.472  0.00  0.00    +0.000 A 
ATOM     25  C   UNL     1       3.122   6.891  18.922  0.00  0.00    +0.000 A 
ATOM     26  C   UNL     1       3.997   6.510  17.904  0.00  0.00    +0.000 A 
ATOM     27  C   UNL     1       3.960   5.216  17.383  0.00  0.00    +0.000 A 
ATOM     28  C   UNL     1       2.991   4.322  17.891  0.00  0.00    +0.000 A 
BRANCH  27  29
ATOM     29  C   UNL     1       4.906   4.767  16.310  0.00  0.00    +0.000 C 
ATOM     30  C   UNL     1       5.378   5.700  15.223  0.00  0.00    +0.000 C 
ATOM     31  O   UNL     1       5.302   3.598  16.323  0.00  0.00    +0.000 OA
ENDBRANCH  27  29
BRANCH  28  32
ATOM     32  O   UNL     1       2.889   3.038  17.402  0.00  0.00    +0.000 OA
ATOM     33  H   UNL     1       3.769   2.601  17.469  0.00  0.00    +0.000 HD
ENDBRANCH  28  32
BRANCH  23  34
ATOM     34  C   UNL     1       1.072   3.680  19.423  0.00  0.00    +0.000 C 
BRANCH  34  36
ATOM     35  C   UNL     1       1.791   3.076  21.763  0.00  0.00    +0.000 C 
ATOM     36  C   UNL     1       1.659   2.591  20.323  0.00  0.00    +0.000 C 
ENDBRANCH  34  36
ENDBRANCH  23  34
ENDBRANCH  22  24
ENDBRANCH  21  22
ENDBRANCH   1  21
TORSDOF 16
ENDMDL
MODEL 2
REMARK VINA RESULT:      -7.1      2.645      3.473
REMARK  Name = 
REMARK  18 active torsions:
REMARK  status: ('A' for Active; 'I' for Inactive)
REMARK    1  A    between atoms: C_1  and  C_2
REMARK    2  A    between atoms: C_2  and  C_3
REMARK    3  A    between atoms: C_3  and  C_4
REMARK    4  A    between atoms: C_5  and  O_6
REMARK    5  A    between atoms: O_6  and  C_7
REMARK    6  A    between atoms: C_7  and  C_8
REMARK    7  A    between atoms: C_8  and  O_9
REMARK    8  A    between atoms: C_8  and  C_10
REMARK    9  A    between atoms: C_10  and  S_11
REMARK   10  A    between atoms: S_11  and  C_12
REMARK   11  A    between atoms: C_15  and  C_16
REMARK   12  A    between atoms: C_16  and  C_18
REMARK   13  A    between atoms: C_18  and  C_19
REMARK   14  A    between atoms: C_19  and  C_20
REMARK   15  A    between atoms: C_20  and  O_22
REMARK   16  A    between atoms: C_28  and  C_29
REMARK   17  A    between atoms: C_29  and  C_30
REMARK   18  A    between atoms: C_32  and  O_33
REMARK                            x       y       z     vdW  Elec       q    Type
REMARK                         _______ _______ _______ _____ _____    ______ ____
ROOT
ATOM      1  C   UNL     1       1.724   9.501  18.487  0.00  0.00    +0.000 C 
ENDROOT
BRANCH   1   2
ATOM      2  O   UNL     1       1.985  10.385  17.388  0.00  0.00    +0.000 OA
ATOM      3  H   UNL     1       2.219  11.260  17.739  0.00  0.00    +0.000 HD
ENDBRANCH   1   2
BRANCH   1   4
ATOM      4  C   UNL     1       0.400   9.884  19.197  0.00  0.00    +0.000 C 
BRANCH   4   5
ATOM      5  S   UNL     1       0.649  10.240  20.981  0.00  0.00    +0.000 S 
BRANCH   5   6
ATOM      6  C   UNL     1      -0.780  11.211  21.446  0.00  0.00    +0.000 A 
ATOM      7  C   UNL     1      -1.055  11.297  22.818  0.00  0.00    +0.000 A 
ATOM      8  C   UNL     1      -2.126  12.063  23.304  0.00  0.00    +0.000 A 
ATOM      9  C   UNL     1      -2.930  12.787  22.422  0.00  0.00    +0.000 A 
ATOM     10  C   UNL     1      -2.651  12.710  21.055  0.00  0.00    +0.000 A 
ATOM     11  F   UNL     1      -3.376  13.405  20.166  0.00  0.00    +0.000 F 
ATOM     12  C   UNL     1      -1.586  11.935  20.567  0.00  0.00    +0.000 A 
BRANCH   9  13
ATOM     13  C   UNL     1      -4.087  13.588  22.917  0.00  0.00    +0.000 C 
ATOM     14  O   UNL     1      -4.075  14.815  22.847  0.00  0.00    +0.000 OA
BRANCH  13  15
ATOM     15  C   UNL     1      -5.301  12.868  23.493  0.00  0.00    +0.000 C 
BRANCH  15  16
ATOM     16  C   UNL     1      -6.572  13.241  22.737  0.00  0.00    +0.000 C 
BRANCH  16  17
ATOM     17  C   UNL     1      -6.535  12.707  21.327  0.00  0.00    +0.000 C 
ATOM     18  O   UNL     1      -6.494  13.425  20.338  0.00  0.00    +0.000 OA
BRANCH  17  19
ATOM     19  O   UNL     1      -6.624  11.364  21.252  0.00  0.00    +0.000 OA
ATOM     20  H   UNL     1      -6.037  10.897  21.895  0.00  0.00    +0.000 HD
ENDBRANCH  17  19
ENDBRANCH  16  17
ENDBRANCH  15  16
ENDBRANCH  13  15
ENDBRANCH   9  13
ENDBRANCH   5   6
ENDBRANCH   4   5
ENDBRANCH   1   4
BRANCH   1  21
ATOM     21  C   UNL     1       1.656   8.046  17.964  0.00  0.00    +0.000 C 
BRANCH  21  22
ATOM     22  O   UNL     1       2.570   7.165  18.658  0.00  0.00    +0.000 OA
BRANCH  22  24
ATOM     23  C   UNL     1       3.627   5.122  17.952  0.00  0.00    +0.000 A 
ATOM     24  C   UNL     1       3.512   6.530  17.889  0.00  0.00    +0.000 A 
ATOM     25  C   UNL     1       4.331   7.246  17.012  0.00  0.00    +0.000 A 
ATOM     26  C   UNL     1       5.328   6.616  16.266  0.00  0.00    +0.000 A 
ATOM     27  C   UNL     1       5.515   5.236  16.355  0.00  0.00    +0.000 A 
ATOM     28  C   UNL     1       4.647   4.499  17.191  0.00  0.00    +0.000 A 
BRANCH  27  29
ATOM     29  C   UNL     1       6.596   4.533  15.589  0.00  0.00    +0.000 C 
ATOM     30  C   UNL     1       6.342   3.916  14.237  0.00  0.00    +0.000 C 
ATOM     31  O   UNL     1       7.722   4.461  16.090  0.00  0.00    +0.000 OA
ENDBRANCH  27  29
BRANCH  28  32
ATOM     32  O   UNL     1       4.766   3.131  17.302  0.00  0.00    +0.000 OA
ATOM     33  H   UNL     1       5.605   2.922  17.773  0.00  0.00    +0.000 HD
ENDBRANCH  28  32
BRANCH  23  34
ATOM     34  C   UNL     1       2.725   4.268  18.831  0.00  0.00    +0.000 C 
BRANCH  34  36
ATOM     35  C   UNL     1       0.888   2.542  18.783  0.00  0.00    +0.000 C 
ATOM     36  C   UNL     1       1.428   3.822  18.154  0.00  0.00    +0.000 C 
ENDBRANCH  34  36
ENDBRANCH  23  34
ENDBRANCH  22  24
ENDBRANCH  21  22
ENDBRANCH   1  21
TORSDOF 16
ENDMDL
MODEL 3
REMARK VINA RESULT:      -6.9      3.559      4.554
REMARK  Name = 
REMARK  18 active torsions:
REMARK  status: ('A' for Active; 'I' for Inactive)
REMARK    1  A    between atoms: C_1  and  C_2
REMARK    2  A    between atoms: C_2  and  C_3
REMARK    3  A    between atoms: C_3  and  C_4
REMARK    4  A    between atoms: C_5  and  O_6
REMARK    5  A    between atoms: O_6  and  C_7
REMARK    6  A    between atoms: C_7  and  C_8
REMARK    7  A    between atoms: C_8  and  O_9
REMARK    8  A    between atoms: C_8  and  C_10
REMARK    9  A    between atoms: C_10  and  S_11
REMARK   10  A    between atoms: S_11  and  C_12
REMARK   11  A    between atoms: C_15  and  C_16
REMARK   12  A    between atoms: C_16  and  C_18
REMARK   13  A    between atoms: C_18  and  C_19
REMARK   14  A    between atoms: C_19  and  C_20
REMARK   15  A    between atoms: C_20  and  O_22
REMARK   16  A    between atoms: C_28  and  C_29
REMARK   17  A    between atoms: C_29  and  C_30
REMARK   18  A    between atoms: C_32  and  O_33
REMARK                            x       y       z     vdW  Elec       q    Type
REMARK                         _______ _______ _______ _____ _____    ______ ____
ROOT
ATOM      1  C   UNL     1       1.554   9.653  18.464  0.00  0.00    +0.000 C 
ENDROOT
BRANCH   1   2
ATOM      2  O   UNL     1       2.116  10.504  17.455  0.00  0.00    +0.000 OA
ATOM      3  H   UNL     1       2.257   9.982  16.648  0.00  0.00    +0.000 HD
ENDBRANCH   1   2
BRANCH   1   4
ATOM      4  C   UNL     1       0.067  10.010  18.716  0.00  0.00    +0.000 C 
BRANCH   4   5
ATOM      5  S   UNL     1      -0.208  11.824  18.789  0.00  0.00    +0.000 S 
BRANCH   5   6
ATOM      6  C   UNL     1      -1.266  12.059  20.212  0.00  0.00    +0.000 A 
ATOM      7  C   UNL     1      -0.678  11.848  21.468  0.00  0.00    +0.000 A 
ATOM      8  C   UNL     1      -1.399  12.042  22.656  0.00  0.00    +0.000 A 
ATOM      9  C   UNL     1      -2.723  12.481  22.612  0.00  0.00    +0.000 A 
ATOM     10  C   UNL     1      -3.307  12.701  21.362  0.00  0.00    +0.000 A 
ATOM     11  F   UNL     1      -4.568  13.148  21.262  0.00  0.00    +0.000 F 
ATOM     12  C   UNL     1      -2.590  12.497  20.171  0.00  0.00    +0.000 A 
BRANCH   9  13
ATOM     13  C   UNL     1      -3.513  12.669  23.863  0.00  0.00    +0.000 C 
ATOM     14  O   UNL     1      -4.339  11.828  24.214  0.00  0.00    +0.000 OA
BRANCH  13  15
ATOM     15  C   UNL     1      -3.273  13.907  24.719  0.00  0.00    +0.000 C 
BRANCH  15  16
ATOM     16  C   UNL     1      -2.994  15.131  23.853  0.00  0.00    +0.000 C 
BRANCH  16  17
ATOM     17  C   UNL     1      -1.592  15.641  24.079  0.00  0.00    +0.000 C 
ATOM     18  O   UNL     1      -0.711  14.976  24.604  0.00  0.00    +0.000 OA
BRANCH  17  19
ATOM     19  O   UNL     1      -1.418  16.927  23.712  0.00  0.00    +0.000 OA
ATOM     20  H   UNL     1      -1.075  17.027  22.792  0.00  0.00    +0.000 HD
ENDBRANCH  17  19
ENDBRANCH  16  17
ENDBRANCH  15  16
ENDBRANCH  13  15
ENDBRANCH   9  13
ENDBRANCH   5   6
ENDBRANCH   4   5
ENDBRANCH   1   4
BRANCH   1  21
ATOM     21  C   UNL     1       1.689   8.177  18.018  0.00  0.00    +0.000 C 
BRANCH  21  22
ATOM     22  O   UNL     1       2.687   7.458  18.778  0.00  0.00    +0.000 OA
BRANCH  22  24
ATOM     23  C   UNL     1       3.924   5.421  18.446  0.00  0.00    +0.000 A 
ATOM     24  C   UNL     1       3.610   6.744  18.056  0.00  0.00    +0.000 A 
ATOM     25  C   UNL     1       4.212   7.285  16.918  0.00  0.00    +0.000 A 
ATOM     26  C   UNL     1       5.192   6.587  16.209  0.00  0.00    +0.000 A 
ATOM     27  C   UNL     1       5.576   5.306  16.606  0.00  0.00    +0.000 A 
ATOM     28  C   UNL     1       4.923   4.728  17.718  0.00  0.00    +0.000 A 
BRANCH  27  29
ATOM     29  C   UNL     1       6.645   4.541  15.884  0.00  0.00    +0.000 C 
ATOM     30  C   UNL     1       6.424   3.970  14.505  0.00  0.00    +0.000 C 
ATOM     31  O   UNL     1       7.734   4.379  16.442  0.00  0.00    +0.000 OA
ENDBRANCH  27  29
BRANCH  28  32
ATOM     32  O   UNL     1       5.242   3.458  18.143  0.00  0.00    +0.000 OA
ATOM     33  H   UNL     1       5.198   2.844  17.375  0.00  0.00    +0.000 HD
ENDBRANCH  28  32
BRANCH  23  34
ATOM     34  C   UNL     1       3.259   4.740  19.634  0.00  0.00    +0.000 C 
BRANCH  34  36
ATOM     35  C   UNL     1       1.558   3.662  18.117  0.00  0.00    +0.000 C 
ATOM     36  C   UNL     1       1.778   4.419  19.424  0.00  0.00    +0.000 C 
ENDBRANCH  34  36
ENDBRANCH  23  34
ENDBRANCH  22  24
ENDBRANCH  21  22
ENDBRANCH   1  21
TORSDOF 16
ENDMDL
MODEL 4
REMARK VINA RESULT:      -6.9      3.112      3.765
REMARK  Name = 
REMARK  18 active torsions:
REMARK  status: ('A' for Active; 'I' for Inactive)
REMARK    1  A    between atoms: C_1  and  C_2
REMARK    2  A    between atoms: C_2  and  C_3
REMARK    3  A    between atoms: C_3  and  C_4
REMARK    4  A    between atoms: C_5  and  O_6
REMARK    5  A    between atoms: O_6  and  C_7
REMARK    6  A    between atoms: C_7  and  C_8
REMARK    7  A    between atoms: C_8  and  O_9
REMARK    8  A    between atoms: C_8  and  C_10
REMARK    9  A    between atoms: C_10  and  S_11
REMARK   10  A    between atoms: S_11  and  C_12
REMARK   11  A    between atoms: C_15  and  C_16
REMARK   12  A    between atoms: C_16  and  C_18
REMARK   13  A    between atoms: C_18  and  C_19
REMARK   14  A    between atoms: C_19  and  C_20
REMARK   15  A    between atoms: C_20  and  O_22
REMARK   16  A    between atoms: C_28  and  C_29
REMARK   17  A    between atoms: C_29  and  C_30
REMARK   18  A    between atoms: C_32  and  O_33
REMARK                            x       y       z     vdW  Elec       q    Type
REMARK                         _______ _______ _______ _____ _____    ______ ____
ROOT
ATOM      1  C   UNL     1       0.545   8.965  21.481  0.00  0.00    +0.000 C 
ENDROOT
BRANCH   1   2
ATOM      2  O   UNL     1       1.325   9.492  22.563  0.00  0.00    +0.000 OA
ATOM      3  H   UNL     1       0.733   9.692  23.307  0.00  0.00    +0.000 HD
ENDBRANCH   1   2
BRANCH   1   4
ATOM      4  C   UNL     1      -0.443  10.033  20.946  0.00  0.00    +0.000 C 
BRANCH   4   5
ATOM      5  S   UNL     1       0.110  11.742  21.331  0.00  0.00    +0.000 S 
BRANCH   5   6
ATOM      6  C   UNL     1      -1.321  12.518  22.072  0.00  0.00    +0.000 A 
ATOM      7  C   UNL     1      -1.687  13.771  21.561  0.00  0.00    +0.000 A 
ATOM      8  C   UNL     1      -2.814  14.456  22.037  0.00  0.00    +0.000 A 
ATOM      9  C   UNL     1      -3.622  13.884  23.021  0.00  0.00    +0.000 A 
ATOM     10  C   UNL     1      -3.265  12.631  23.525  0.00  0.00    +0.000 A 
ATOM     11  F   UNL     1      -4.020  12.024  24.453  0.00  0.00    +0.000 F 
ATOM     12  C   UNL     1      -2.130  11.949  23.057  0.00  0.00    +0.000 A 
BRANCH   9  13
ATOM     13  C   UNL     1      -4.811  14.608  23.556  0.00  0.00    +0.000 C 
ATOM     14  O   UNL     1      -4.683  15.463  24.430  0.00  0.00    +0.000 OA
BRANCH  13  15
ATOM     15  C   UNL     1      -6.192  14.293  22.993  0.00  0.00    +0.000 C 
BRANCH  15  16
ATOM     16  C   UNL     1      -7.021  13.483  23.985  0.00  0.00    +0.000 C 
BRANCH  16  17
ATOM     17  C   UNL     1      -7.550  12.225  23.341  0.00  0.00    +0.000 C 
ATOM     18  O   UNL     1      -7.588  11.144  23.910  0.00  0.00    +0.000 OA
BRANCH  17  19
ATOM     19  O   UNL     1      -7.913  12.386  22.053  0.00  0.00    +0.000 OA
ATOM     20  H   UNL     1      -7.210  12.804  21.499  0.00  0.00    +0.000 HD
ENDBRANCH  17  19
ENDBRANCH  16  17
ENDBRANCH  15  16
ENDBRANCH  13  15
ENDBRANCH   9  13
ENDBRANCH   5   6
ENDBRANCH   4   5
ENDBRANCH   1   4
BRANCH   1  21
ATOM     21  C   UNL     1       1.493   8.492  20.353  0.00  0.00    +0.000 C 
BRANCH  21  22
ATOM     22  O   UNL     1       1.724   7.064  20.386  0.00  0.00    +0.000 OA
BRANCH  22  24
ATOM     23  C   UNL     1       3.014   5.214  19.548  0.00  0.00    +0.000 A 
ATOM     24  C   UNL     1       2.602   6.564  19.459  0.00  0.00    +0.000 A 
ATOM     25  C   UNL     1       3.065   7.353  18.402  0.00  0.00    +0.000 A 
ATOM     26  C   UNL     1       4.001   6.870  17.486  0.00  0.00    +0.000 A 
ATOM     27  C   UNL     1       4.481   5.564  17.585  0.00  0.00    +0.000 A 
ATOM     28  C   UNL     1       3.967   4.741  18.612  0.00  0.00    +0.000 A 
BRANCH  27  29
ATOM     29  C   UNL     1       5.507   5.024  16.634  0.00  0.00    +0.000 C 
ATOM     30  C   UNL     1       5.389   5.212  15.142  0.00  0.00    +0.000 C 
ATOM     31  O   UNL     1       6.473   4.409  17.096  0.00  0.00    +0.000 OA
ENDBRANCH  27  29
BRANCH  28  32
ATOM     32  O   UNL     1       4.383   3.436  18.747  0.00  0.00    +0.000 OA
ATOM     33  H   UNL     1       5.218   3.420  19.269  0.00  0.00    +0.000 HD
ENDBRANCH  28  32
BRANCH  23  34
ATOM     34  C   UNL     1       2.500   4.275  20.630  0.00  0.00    +0.000 C 
BRANCH  34  36
ATOM     35  C   UNL     1       0.914   2.748  19.402  0.00  0.00    +0.000 C 
ATOM     36  C   UNL     1       1.042   3.849  20.450  0.00  0.00    +0.000 C 
ENDBRANCH  34  36
ENDBRANCH  23  34
ENDBRANCH  22  24
ENDBRANCH  21  22
ENDBRANCH   1  21
TORSDOF 16
ENDMDL
MODEL 5
REMARK VINA RESULT:      -6.8      3.114      3.677
REMARK  Name = 
REMARK  18 active torsions:
REMARK  status: ('A' for Active; 'I' for Inactive)
REMARK    1  A    between atoms: C_1  and  C_2
REMARK    2  A    between atoms: C_2  and  C_3
REMARK    3  A    between atoms: C_3  and  C_4
REMARK    4  A    between atoms: C_5  and  O_6
REMARK    5  A    between atoms: O_6  and  C_7
REMARK    6  A    between atoms: C_7  and  C_8
REMARK    7  A    between atoms: C_8  and  O_9
REMARK    8  A    between atoms: C_8  and  C_10
REMARK    9  A    between atoms: C_10  and  S_11
REMARK   10  A    between atoms: S_11  and  C_12
REMARK   11  A    between atoms: C_15  and  C_16
REMARK   12  A    between atoms: C_16  and  C_18
REMARK   13  A    between atoms: C_18  and  C_19
REMARK   14  A    between atoms: C_19  and  C_20
REMARK   15  A    between atoms: C_20  and  O_22
REMARK   16  A    between atoms: C_28  and  C_29
REMARK   17  A    between atoms: C_29  and  C_30
REMARK   18  A    between atoms: C_32  and  O_33
REMARK                            x       y       z     vdW  Elec       q    Type
REMARK                         _______ _______ _______ _____ _____    ______ ____
ROOT
ATOM      1  C   UNL     1       1.269  10.143  18.626  0.00  0.00    +0.000 C 
ENDROOT
BRANCH   1   2
ATOM      2  O   UNL     1       0.202   9.771  17.744  0.00  0.00    +0.000 OA
ATOM      3  H   UNL     1      -0.609  10.228  18.022  0.00  0.00    +0.000 HD
ENDBRANCH   1   2
BRANCH   1   4
ATOM      4  C   UNL     1       0.815  11.265  19.594  0.00  0.00    +0.000 C 
BRANCH   4   5
ATOM      5  S   UNL     1       0.356  10.610  21.247  0.00  0.00    +0.000 S 
BRANCH   5   6
ATOM      6  C   UNL     1      -1.057  11.591  21.740  0.00  0.00    +0.000 A 
ATOM      7  C   UNL     1      -1.534  12.515  20.800  0.00  0.00    +0.000 A 
ATOM      8  C   UNL     1      -2.660  13.310  21.060  0.00  0.00    +0.000 A 
ATOM      9  C   UNL     1      -3.354  13.176  22.263  0.00  0.00    +0.000 A 
ATOM     10  C   UNL     1      -2.885  12.248  23.198  0.00  0.00    +0.000 A 
ATOM     11  F   UNL     1      -3.529  12.059  24.359  0.00  0.00    +0.000 F 
ATOM     12  C   UNL     1      -1.752  11.459  22.943  0.00  0.00    +0.000 A 
BRANCH   9  13
ATOM     13  C   UNL     1      -4.538  14.029  22.568  0.00  0.00    +0.000 C 
ATOM     14  O   UNL     1      -4.463  14.930  23.402  0.00  0.00    +0.000 OA
BRANCH  13  15
ATOM     15  C   UNL     1      -5.844  13.789  21.819  0.00  0.00    +0.000 C 
BRANCH  15  16
ATOM     16  C   UNL     1      -6.422  12.416  22.143  0.00  0.00    +0.000 C 
BRANCH  16  17
ATOM     17  C   UNL     1      -7.325  12.485  23.350  0.00  0.00    +0.000 C 
ATOM     18  O   UNL     1      -7.675  13.536  23.868  0.00  0.00    +0.000 OA
BRANCH  17  19
ATOM     19  O   UNL     1      -7.654  11.278  23.851  0.00  0.00    +0.000 OA
ATOM     20  H   UNL     1      -7.664  10.562  23.171  0.00  0.00    +0.000 HD
ENDBRANCH  17  19
ENDBRANCH  16  17
ENDBRANCH  15  16
ENDBRANCH  13  15
ENDBRANCH   9  13
ENDBRANCH   5   6
ENDBRANCH   4   5
ENDBRANCH   1   4
BRANCH   1  21
ATOM     21  C   UNL     1       1.730   8.897  19.421  0.00  0.00    +0.000 C 
BRANCH  21  22
ATOM     22  O   UNL     1       1.644   7.681  18.643  0.00  0.00    +0.000 OA
BRANCH  22  24
ATOM     23  C   UNL     1       3.133   5.878  19.209  0.00  0.00    +0.000 A 
ATOM     24  C   UNL     1       2.820   7.011  18.421  0.00  0.00    +0.000 A 
ATOM     25  C   UNL     1       3.693   7.401  17.403  0.00  0.00    +0.000 A 
ATOM     26  C   UNL     1       4.917   6.759  17.206  0.00  0.00    +0.000 A 
ATOM     27  C   UNL     1       5.290   5.681  18.009  0.00  0.00    +0.000 A 
ATOM     28  C   UNL     1       4.381   5.241  18.997  0.00  0.00    +0.000 A 
BRANCH  27  29
ATOM     29  C   UNL     1       6.609   4.989  17.841  0.00  0.00    +0.000 C 
ATOM     30  C   UNL     1       7.095   4.514  16.495  0.00  0.00    +0.000 C 
ATOM     31  O   UNL     1       7.310   4.805  18.841  0.00  0.00    +0.000 OA
ENDBRANCH  27  29
BRANCH  28  32
ATOM     32  O   UNL     1       4.681   4.167  19.806  0.00  0.00    +0.000 OA
ATOM     33  H   UNL     1       5.656   4.135  19.942  0.00  0.00    +0.000 HD
ENDBRANCH  28  32
BRANCH  23  34
ATOM     34  C   UNL     1       2.200   5.353  20.290  0.00  0.00    +0.000 C 
BRANCH  34  36
ATOM     35  C   UNL     1       1.139   3.140  20.868  0.00  0.00    +0.000 C 
ATOM     36  C   UNL     1       1.258   4.242  19.820  0.00  0.00    +0.000 C 
ENDBRANCH  34  36
ENDBRANCH  23  34
ENDBRANCH  22  24
ENDBRANCH  21  22
ENDBRANCH   1  21
TORSDOF 16
ENDMDL
MODEL 6
REMARK VINA RESULT:      -6.8      3.731      4.554
REMARK  Name = 
REMARK  18 active torsions:
REMARK  status: ('A' for Active; 'I' for Inactive)
REMARK    1  A    between atoms: C_1  and  C_2
REMARK    2  A    between atoms: C_2  and  C_3
REMARK    3  A    between atoms: C_3  and  C_4
REMARK    4  A    between atoms: C_5  and  O_6
REMARK    5  A    between atoms: O_6  and  C_7
REMARK    6  A    between atoms: C_7  and  C_8
REMARK    7  A    between atoms: C_8  and  O_9
REMARK    8  A    between atoms: C_8  and  C_10
REMARK    9  A    between atoms: C_10  and  S_11
REMARK   10  A    between atoms: S_11  and  C_12
REMARK   11  A    between atoms: C_15  and  C_16
REMARK   12  A    between atoms: C_16  and  C_18
REMARK   13  A    between atoms: C_18  and  C_19
REMARK   14  A    between atoms: C_19  and  C_20
REMARK   15  A    between atoms: C_20  and  O_22
REMARK   16  A    between atoms: C_28  and  C_29
REMARK   17  A    between atoms: C_29  and  C_30
REMARK   18  A    between atoms: C_32  and  O_33
REMARK                            x       y       z     vdW  Elec       q    Type
REMARK                         _______ _______ _______ _____ _____    ______ ____
ROOT
ATOM      1  C   UNL     1       0.377   9.679  18.877  0.00  0.00    +0.000 C 
ENDROOT
BRANCH   1   2
ATOM      2  O   UNL     1      -0.032   9.304  20.200  0.00  0.00    +0.000 OA
ATOM      3  H   UNL     1      -0.976   9.506  20.305  0.00  0.00    +0.000 HD
ENDBRANCH   1   2
BRANCH   1   4
ATOM      4  C   UNL     1       0.433  11.222  18.737  0.00  0.00    +0.000 C 
BRANCH   4   5
ATOM      5  S   UNL     1      -1.220  11.946  18.395  0.00  0.00    +0.000 S 
BRANCH   5   6
ATOM      6  C   UNL     1      -1.901  12.288  20.014  0.00  0.00    +0.000 A 
ATOM      7  C   UNL     1      -3.262  12.621  20.060  0.00  0.00    +0.000 A 
ATOM      8  C   UNL     1      -3.914  12.870  21.277  0.00  0.00    +0.000 A 
ATOM      9  C   UNL     1      -3.220  12.762  22.483  0.00  0.00    +0.000 A 
ATOM     10  C   UNL     1      -1.866  12.420  22.439  0.00  0.00    +0.000 A 
ATOM     11  F   UNL     1      -1.157  12.277  23.569  0.00  0.00    +0.000 F 
ATOM     12  C   UNL     1      -1.209  12.181  21.221  0.00  0.00    +0.000 A 
BRANCH   9  13
ATOM     13  C   UNL     1      -3.890  13.046  23.784  0.00  0.00    +0.000 C 
ATOM     14  O   UNL     1      -4.429  12.143  24.422  0.00  0.00    +0.000 OA
BRANCH  13  15
ATOM     15  C   UNL     1      -3.882  14.468  24.333  0.00  0.00    +0.000 C 
BRANCH  15  16
ATOM     16  C   UNL     1      -2.980  14.582  25.558  0.00  0.00    +0.000 C 
BRANCH  16  17
ATOM     17  C   UNL     1      -1.799  15.477  25.274  0.00  0.00    +0.000 C 
ATOM     18  O   UNL     1      -0.804  15.105  24.669  0.00  0.00    +0.000 OA
BRANCH  17  19
ATOM     19  O   UNL     1      -1.910  16.708  25.811  0.00  0.00    +0.000 OA
ATOM     20  H   UNL     1      -1.899  17.431  25.138  0.00  0.00    +0.000 HD
ENDBRANCH  17  19
ENDBRANCH  16  17
ENDBRANCH  15  16
ENDBRANCH  13  15
ENDBRANCH   9  13
ENDBRANCH   5   6
ENDBRANCH   4   5
ENDBRANCH   1   4
BRANCH   1  21
ATOM     21  C   UNL     1       1.763   9.058  18.578  0.00  0.00    +0.000 C 
BRANCH  21  22
ATOM     22  O   UNL     1       1.924   7.749  19.173  0.00  0.00    +0.000 OA
BRANCH  22  24
ATOM     23  C   UNL     1       3.260   5.754  19.323  0.00  0.00    +0.000 A 
ATOM     24  C   UNL     1       2.945   6.976  18.683  0.00  0.00    +0.000 A 
ATOM     25  C   UNL     1       3.652   7.352  17.539  0.00  0.00    +0.000 A 
ATOM     26  C   UNL     1       4.728   6.599  17.066  0.00  0.00    +0.000 A 
ATOM     27  C   UNL     1       5.110   5.423  17.712  0.00  0.00    +0.000 A 
ATOM     28  C   UNL     1       4.357   5.004  18.832  0.00  0.00    +0.000 A 
BRANCH  27  29
ATOM     29  C   UNL     1       6.279   4.608  17.246  0.00  0.00    +0.000 C 
ATOM     30  C   UNL     1       6.368   4.074  15.839  0.00  0.00    +0.000 C 
ATOM     31  O   UNL     1       7.189   4.370  18.046  0.00  0.00    +0.000 OA
ENDBRANCH  27  29
BRANCH  28  32
ATOM     32  O   UNL     1       4.670   3.841  19.499  0.00  0.00    +0.000 OA
ATOM     33  H   UNL     1       4.200   3.834  20.364  0.00  0.00    +0.000 HD
ENDBRANCH  28  32
BRANCH  23  34
ATOM     34  C   UNL     1       2.490   5.245  20.533  0.00  0.00    +0.000 C 
BRANCH  34  36
ATOM     35  C   UNL     1       1.275   3.084  20.993  0.00  0.00    +0.000 C 
ATOM     36  C   UNL     1       1.277   4.379  20.187  0.00  0.00    +0.000 C 
ENDBRANCH  34  36
ENDBRANCH  23  34
ENDBRANCH  22  24
ENDBRANCH  21  22
ENDBRANCH   1  21
TORSDOF 16
ENDMDL
MODEL 7
REMARK VINA RESULT:      -6.7      3.620      4.363
REMARK  Name = 
REMARK  18 active torsions:
REMARK  status: ('A' for Active; 'I' for Inactive)
REMARK    1  A    between atoms: C_1  and  C_2
REMARK    2  A    between atoms: C_2  and  C_3
REMARK    3  A    between atoms: C_3  and  C_4
REMARK    4  A    between atoms: C_5  and  O_6
REMARK    5  A    between atoms: O_6  and  C_7
REMARK    6  A    between atoms: C_7  and  C_8
REMARK    7  A    between atoms: C_8  and  O_9
REMARK    8  A    between atoms: C_8  and  C_10
REMARK    9  A    between atoms: C_10  and  S_11
REMARK   10  A    between atoms: S_11  and  C_12
REMARK   11  A    between atoms: C_15  and  C_16
REMARK   12  A    between atoms: C_16  and  C_18
REMARK   13  A    between atoms: C_18  and  C_19
REMARK   14  A    between atoms: C_19  and  C_20
REMARK   15  A    between atoms: C_20  and  O_22
REMARK   16  A    between atoms: C_28  and  C_29
REMARK   17  A    between atoms: C_29  and  C_30
REMARK   18  A    between atoms: C_32  and  O_33
REMARK                            x       y       z     vdW  Elec       q    Type
REMARK                         _______ _______ _______ _____ _____    ______ ____
ROOT
ATOM      1  C   UNL     1       0.364   9.768  19.225  0.00  0.00    +0.000 C 
ENDROOT
BRANCH   1   2
ATOM      2  O   UNL     1       0.053   9.291  20.541  0.00  0.00    +0.000 OA
ATOM      3  H   UNL     1       0.849   9.355  21.094  0.00  0.00    +0.000 HD
ENDBRANCH   1   2
BRANCH   1   4
ATOM      4  C   UNL     1       0.569  11.305  19.232  0.00  0.00    +0.000 C 
BRANCH   4   5
ATOM      5  S   UNL     1      -0.955  12.208  18.748  0.00  0.00    +0.000 S 
BRANCH   5   6
ATOM      6  C   UNL     1      -1.881  12.370  20.270  0.00  0.00    +0.000 A 
ATOM      7  C   UNL     1      -1.139  12.331  21.459  0.00  0.00    +0.000 A 
ATOM      8  C   UNL     1      -1.751  12.489  22.711  0.00  0.00    +0.000 A 
ATOM      9  C   UNL     1      -3.125  12.719  22.798  0.00  0.00    +0.000 A 
ATOM     10  C   UNL     1      -3.865  12.769  21.613  0.00  0.00    +0.000 A 
ATOM     11  F   UNL     1      -5.183  13.013  21.637  0.00  0.00    +0.000 F 
ATOM     12  C   UNL     1      -3.254  12.600  20.360  0.00  0.00    +0.000 A 
BRANCH   9  13
ATOM     13  C   UNL     1      -3.798  12.865  24.121  0.00  0.00    +0.000 C 
ATOM     14  O   UNL     1      -4.478  11.950  24.582  0.00  0.00    +0.000 OA
BRANCH  13  15
ATOM     15  C   UNL     1      -3.620  14.156  24.911  0.00  0.00    +0.000 C 
BRANCH  15  16
ATOM     16  C   UNL     1      -4.246  15.340  24.183  0.00  0.00    +0.000 C 
BRANCH  16  17
ATOM     17  C   UNL     1      -4.126  16.600  25.004  0.00  0.00    +0.000 C 
ATOM     18  O   UNL     1      -5.077  17.317  25.280  0.00  0.00    +0.000 OA
BRANCH  17  19
ATOM     19  O   UNL     1      -2.858  16.905  25.347  0.00  0.00    +0.000 OA
ATOM     20  H   UNL     1      -2.725  16.982  26.322  0.00  0.00    +0.000 HD
ENDBRANCH  17  19
ENDBRANCH  16  17
ENDBRANCH  15  16
ENDBRANCH  13  15
ENDBRANCH   9  13
ENDBRANCH   5   6
ENDBRANCH   4   5
ENDBRANCH   1   4
BRANCH   1  21
ATOM     21  C   UNL     1       1.640   9.055  18.714  0.00  0.00    +0.000 C 
BRANCH  21  22
ATOM     22  O   UNL     1       1.846   7.769  19.343  0.00  0.00    +0.000 OA
BRANCH  22  24
ATOM     23  C   UNL     1       3.132   5.738  19.423  0.00  0.00    +0.000 A 
ATOM     24  C   UNL     1       2.841   6.984  18.821  0.00  0.00    +0.000 A 
ATOM     25  C   UNL     1       3.545   7.374  17.679  0.00  0.00    +0.000 A 
ATOM     26  C   UNL     1       4.596   6.608  17.172  0.00  0.00    +0.000 A 
ATOM     27  C   UNL     1       4.955   5.405  17.782  0.00  0.00    +0.000 A 
ATOM     28  C   UNL     1       4.205   4.975  18.898  0.00  0.00    +0.000 A 
BRANCH  27  29
ATOM     29  C   UNL     1       6.098   4.574  17.280  0.00  0.00    +0.000 C 
ATOM     30  C   UNL     1       6.140   4.047  15.868  0.00  0.00    +0.000 C 
ATOM     31  O   UNL     1       7.025   4.317  18.053  0.00  0.00    +0.000 OA
ENDBRANCH  27  29
BRANCH  28  32
ATOM     32  O   UNL     1       4.495   3.785  19.529  0.00  0.00    +0.000 OA
ATOM     33  H   UNL     1       4.497   3.934  20.503  0.00  0.00    +0.000 HD
ENDBRANCH  28  32
BRANCH  23  34
ATOM     34  C   UNL     1       2.363   5.215  20.628  0.00  0.00    +0.000 C 
BRANCH  34  36
ATOM     35  C   UNL     1       1.273   2.964  20.944  0.00  0.00    +0.000 C 
ATOM     36  C   UNL     1       1.167   4.330  20.273  0.00  0.00    +0.000 C 
ENDBRANCH  34  36
ENDBRANCH  23  34
ENDBRANCH  22  24
ENDBRANCH  21  22
ENDBRANCH   1  21
TORSDOF 16
ENDMDL
MODEL 8
REMARK VINA RESULT:      -6.7      2.485      3.156
REMARK  Name = 
REMARK  18 active torsions:
REMARK  status: ('A' for Active; 'I' for Inactive)
REMARK    1  A    between atoms: C_1  and  C_2
REMARK    2  A    between atoms: C_2  and  C_3
REMARK    3  A    between atoms: C_3  and  C_4
REMARK    4  A    between atoms: C_5  and  O_6
REMARK    5  A    between atoms: O_6  and  C_7
REMARK    6  A    between atoms: C_7  and  C_8
REMARK    7  A    between atoms: C_8  and  O_9
REMARK    8  A    between atoms: C_8  and  C_10
REMARK    9  A    between atoms: C_10  and  S_11
REMARK   10  A    between atoms: S_11  and  C_12
REMARK   11  A    between atoms: C_15  and  C_16
REMARK   12  A    between atoms: C_16  and  C_18
REMARK   13  A    between atoms: C_18  and  C_19
REMARK   14  A    between atoms: C_19  and  C_20
REMARK   15  A    between atoms: C_20  and  O_22
REMARK   16  A    between atoms: C_28  and  C_29
REMARK   17  A    between atoms: C_29  and  C_30
REMARK   18  A    between atoms: C_32  and  O_33
REMARK                            x       y       z     vdW  Elec       q    Type
REMARK                         _______ _______ _______ _____ _____    ______ ____
ROOT
ATOM      1  C   UNL     1       0.978   8.427  19.810  0.00  0.00    +0.000 C 
ENDROOT
BRANCH   1   2
ATOM      2  O   UNL     1       1.216   7.766  21.060  0.00  0.00    +0.000 OA
ATOM      3  H   UNL     1       1.861   8.284  21.570  0.00  0.00    +0.000 HD
ENDBRANCH   1   2
BRANCH   1   4
ATOM      4  C   UNL     1       0.977   9.967  19.994  0.00  0.00    +0.000 C 
BRANCH   4   5
ATOM      5  S   UNL     1       0.877  10.452  21.762  0.00  0.00    +0.000 S 
BRANCH   5   6
ATOM      6  C   UNL     1      -0.679  11.322  21.899  0.00  0.00    +0.000 A 
ATOM      7  C   UNL     1      -1.167  11.917  20.727  0.00  0.00    +0.000 A 
ATOM      8  C   UNL     1      -2.397  12.591  20.705  0.00  0.00    +0.000 A 
ATOM      9  C   UNL     1      -3.184  12.660  21.856  0.00  0.00    +0.000 A 
ATOM     10  C   UNL     1      -2.703  12.059  23.022  0.00  0.00    +0.000 A 
ATOM     11  F   UNL     1      -3.430  12.072  24.150  0.00  0.00    +0.000 F 
ATOM     12  C   UNL     1      -1.467  11.393  23.049  0.00  0.00    +0.000 A 
BRANCH   9  13
ATOM     13  C   UNL     1      -4.482  13.392  21.858  0.00  0.00    +0.000 C 
ATOM     14  O   UNL     1      -4.509  14.619  21.942  0.00  0.00    +0.000 OA
BRANCH  13  15
ATOM     15  C   UNL     1      -5.783  12.607  21.732  0.00  0.00    +0.000 C 
BRANCH  15  16
ATOM     16  C   UNL     1      -6.019  12.158  20.294  0.00  0.00    +0.000 C 
BRANCH  16  17
ATOM     17  C   UNL     1      -7.018  11.029  20.240  0.00  0.00    +0.000 C 
ATOM     18  O   UNL     1      -7.355  10.383  21.222  0.00  0.00    +0.000 OA
BRANCH  17  19
ATOM     19  O   UNL     1      -7.455  10.749  18.996  0.00  0.00    +0.000 OA
ATOM     20  H   UNL     1      -7.770   9.819  18.893  0.00  0.00    +0.000 HD
ENDBRANCH  17  19
ENDBRANCH  16  17
ENDBRANCH  15  16
ENDBRANCH  13  15
ENDBRANCH   9  13
ENDBRANCH   5   6
ENDBRANCH   4   5
ENDBRANCH   1   4
BRANCH   1  21
ATOM     21  C   UNL     1       2.067   8.004  18.795  0.00  0.00    +0.000 C 
BRANCH  21  22
ATOM     22  O   UNL     1       2.516   6.644  18.999  0.00  0.00    +0.000 OA
BRANCH  22  24
ATOM     23  C   UNL     1       3.611   4.764  17.973  0.00  0.00    +0.000 A 
ATOM     24  C   UNL     1       3.434   6.161  18.102  0.00  0.00    +0.000 A 
ATOM     25  C   UNL     1       4.167   7.024  17.282  0.00  0.00    +0.000 A 
ATOM     26  C   UNL     1       5.141   6.544  16.406  0.00  0.00    +0.000 A 
ATOM     27  C   UNL     1       5.391   5.176  16.302  0.00  0.00    +0.000 A 
ATOM     28  C   UNL     1       4.607   4.295  17.081  0.00  0.00    +0.000 A 
BRANCH  27  29
ATOM     29  C   UNL     1       6.450   4.631  15.391  0.00  0.00    +0.000 C 
ATOM     30  C   UNL     1       6.118   4.043  14.043  0.00  0.00    +0.000 C 
ATOM     31  O   UNL     1       7.626   4.669  15.765  0.00  0.00    +0.000 OA
ENDBRANCH  27  29
BRANCH  28  32
ATOM     32  O   UNL     1       4.790   2.932  17.005  0.00  0.00    +0.000 OA
ATOM     33  H   UNL     1       5.153   2.612  17.863  0.00  0.00    +0.000 HD
ENDBRANCH  28  32
BRANCH  23  34
ATOM     34  C   UNL     1       2.802   3.761  18.782  0.00  0.00    +0.000 C 
BRANCH  34  36
ATOM     35  C   UNL     1       2.371   2.959  21.134  0.00  0.00    +0.000 C 
ATOM     36  C   UNL     1       3.433   3.381  20.123  0.00  0.00    +0.000 C 
ENDBRANCH  34  36
ENDBRANCH  23  34
ENDBRANCH  22  24
ENDBRANCH  21  22
ENDBRANCH   1  21
TORSDOF 16
ENDMDL
MODEL 9
REMARK VINA RESULT:      -6.7      7.014     11.137
REMARK  Name = 
REMARK  18 active torsions:
REMARK  status: ('A' for Active; 'I' for Inactive)
REMARK    1  A    between atoms: C_1  and  C_2
REMARK    2  A    between atoms: C_2  and  C_3
REMARK    3  A    between atoms: C_3  and  C_4
REMARK    4  A    between atoms: C_5  and  O_6
REMARK    5  A    between atoms: O_6  and  C_7
REMARK    6  A    between atoms: C_7  and  C_8
REMARK    7  A    between atoms: C_8  and  O_9
REMARK    8  A    between atoms: C_8  and  C_10
REMARK    9  A    between atoms: C_10  and  S_11
REMARK   10  A    between atoms: S_11  and  C_12
REMARK   11  A    between atoms: C_15  and  C_16
REMARK   12  A    between atoms: C_16  and  C_18
REMARK   13  A    between atoms: C_18  and  C_19
REMARK   14  A    between atoms: C_19  and  C_20
REMARK   15  A    between atoms: C_20  and  O_22
REMARK   16  A    between atoms: C_28  and  C_29
REMARK   17  A    between atoms: C_29  and  C_30
REMARK   18  A    between atoms: C_32  and  O_33
REMARK                            x       y       z     vdW  Elec       q    Type
REMARK                         _______ _______ _______ _____ _____    ______ ____
ROOT
ATOM      1  C   UNL     1       8.548   8.417  18.070  0.00  0.00    +0.000 C 
ENDROOT
BRANCH   1   2
ATOM      2  O   UNL     1       8.680   7.500  19.165  0.00  0.00    +0.000 OA
ATOM      3  H   UNL     1       9.110   7.957  19.906  0.00  0.00    +0.000 HD
ENDBRANCH   1   2
BRANCH   1   4
ATOM      4  C   UNL     1       7.221   8.174  17.306  0.00  0.00    +0.000 C 
BRANCH   4   5
ATOM      5  S   UNL     1       7.146   6.495  16.567  0.00  0.00    +0.000 S 
BRANCH   5   6
ATOM      6  C   UNL     1       5.523   5.884  17.007  0.00  0.00    +0.000 A 
ATOM      7  C   UNL     1       5.160   4.640  16.475  0.00  0.00    +0.000 A 
ATOM      8  C   UNL     1       3.928   4.042  16.783  0.00  0.00    +0.000 A 
ATOM      9  C   UNL     1       3.041   4.670  17.659  0.00  0.00    +0.000 A 
ATOM     10  C   UNL     1       3.407   5.906  18.198  0.00  0.00    +0.000 A 
ATOM     11  F   UNL     1       2.604   6.541  19.065  0.00  0.00    +0.000 F 
ATOM     12  C   UNL     1       4.634   6.510  17.882  0.00  0.00    +0.000 A 
BRANCH   9  13
ATOM     13  C   UNL     1       1.718   4.063  17.980  0.00  0.00    +0.000 C 
ATOM     14  O   UNL     1       0.778   4.155  17.191  0.00  0.00    +0.000 OA
BRANCH  13  15
ATOM     15  C   UNL     1       1.542   3.304  19.290  0.00  0.00    +0.000 C 
BRANCH  15  16
ATOM     16  C   UNL     1       1.994   1.854  19.152  0.00  0.00    +0.000 C 
BRANCH  16  17
ATOM     17  C   UNL     1       3.480   1.730  19.385  0.00  0.00    +0.000 C 
ATOM     18  O   UNL     1       4.088   2.392  20.214  0.00  0.00    +0.000 OA
BRANCH  17  19
ATOM     19  O   UNL     1       4.091   0.871  18.545  0.00  0.00    +0.000 OA
ATOM     20  H   UNL     1       4.938   0.510  18.903  0.00  0.00    +0.000 HD
ENDBRANCH  17  19
ENDBRANCH  16  17
ENDBRANCH  15  16
ENDBRANCH  13  15
ENDBRANCH   9  13
ENDBRANCH   5   6
ENDBRANCH   4   5
ENDBRANCH   1   4
BRANCH   1  21
ATOM     21  C   UNL     1       8.602   9.866  18.612  0.00  0.00    +0.000 C 
BRANCH  21  22
ATOM     22  O   UNL     1       9.668  10.060  19.570  0.00  0.00    +0.000 OA
BRANCH  22  24
ATOM     23  C   UNL     1      10.551  12.285  19.817  0.00  0.00    +0.000 A 
ATOM     24  C   UNL     1       9.678  11.256  20.242  0.00  0.00    +0.000 A 
ATOM     25  C   UNL     1       8.811  11.491  21.312  0.00  0.00    +0.000 A 
ATOM     26  C   UNL     1       8.852  12.683  22.035  0.00  0.00    +0.000 A 
ATOM     27  C   UNL     1       9.748  13.694  21.687  0.00  0.00    +0.000 A 
ATOM     28  C   UNL     1      10.582  13.487  20.566  0.00  0.00    +0.000 A 
BRANCH  27  29
ATOM     29  C   UNL     1       9.836  14.975  22.462  0.00  0.00    +0.000 C 
ATOM     30  C   UNL     1       8.757  15.400  23.426  0.00  0.00    +0.000 C 
ATOM     31  O   UNL     1      10.824  15.696  22.299  0.00  0.00    +0.000 OA
ENDBRANCH  27  29
BRANCH  28  32
ATOM     32  O   UNL     1      11.471  14.457  20.158  0.00  0.00    +0.000 OA
ATOM     33  H   UNL     1      12.306  14.022  19.869  0.00  0.00    +0.000 HD
ENDBRANCH  28  32
BRANCH  23  34
ATOM     34  C   UNL     1      11.476  12.127  18.619  0.00  0.00    +0.000 C 
BRANCH  34  36
ATOM     35  C   UNL     1      11.761  13.485  16.514  0.00  0.00    +0.000 C 
ATOM     36  C   UNL     1      10.849  12.536  17.285  0.00  0.00    +0.000 C 
ENDBRANCH  34  36
ENDBRANCH  23  34
ENDBRANCH  22  24
ENDBRANCH  21  22
ENDBRANCH   1  21
TORSDOF 16
ENDMDL
