MODEL 1
REMARK VINA RESULT:      -8.7      0.000      0.000
REMARK  Name = 
REMARK  5 active torsions:
REMARK  status: ('A' for Active; 'I' for Inactive)
REMARK    1  A    between atoms: C_1  and  S_2
REMARK    2  A    between atoms: S_2  and  C_5
REMARK    3  A    between atoms: C_8  and  C_9
REMARK    4  A    between atoms: C_13  and  C_14
REMARK    5  A    between atoms: C_19  and  O_20
REMARK                            x       y       z     vdW  Elec       q    Type
REMARK                         _______ _______ _______ _____ _____    ______ ____
ROOT
ATOM      1  C   UNL     1       0.754   9.985  19.785  0.00  0.00    +0.000 A 
ATOM      2  C   UNL     1       1.202  10.549  18.588  0.00  0.00    +0.000 A 
ATOM      3  N   UNL     1       2.035   9.916  17.730  0.00  0.00    +0.000 NA
ATOM      4  C   UNL     1       2.392   8.668  18.106  0.00  0.00    +0.000 A 
ATOM      5  C   UNL     1       1.954   8.073  19.286  0.00  0.00    +0.000 A 
ATOM      6  N   UNL     1       1.140   8.724  20.148  0.00  0.00    +0.000 NA
ENDROOT
BRANCH   5   7
ATOM      7  C   UNL     1       2.295   6.699  19.641  0.00  0.00    +0.000 A 
ATOM      8  C   UNL     1       1.742   5.870  20.600  0.00  0.00    +0.000 A 
ATOM      9  C   UNL     1       2.430   4.634  20.591  0.00  0.00    +0.000 A 
ATOM     10  C   UNL     1       2.289   3.445  21.327  0.00  0.00    +0.000 A 
ATOM     11  C   UNL     1       3.181   2.394  21.109  0.00  0.00    +0.000 A 
ATOM     12  C   UNL     1       4.202   2.534  20.175  0.00  0.00    +0.000 A 
ATOM     13  C   UNL     1       4.355   3.695  19.409  0.00  0.00    +0.000 A 
ATOM     14  C   UNL     1       3.439   4.736  19.633  0.00  0.00    +0.000 A 
ATOM     15  N   UNL     1       3.311   5.978  19.045  0.00  0.00    +0.000 N 
ATOM     16  H   UNL     1       3.883   6.334  18.293  0.00  0.00    +0.000 HD
BRANCH  12  17
ATOM     17  O   UNL     1       5.103   1.525  19.982  0.00  0.00    +0.000 OA
ATOM     18  H   UNL     1       5.730   1.527  20.722  0.00  0.00    +0.000 HD
ENDBRANCH  12  17
ENDBRANCH   5   7
BRANCH   1  22
ATOM     19  C   UNL     1      -1.999  12.031  22.377  0.00  0.00    +0.000 A 
ATOM     20  C   UNL     1      -1.977  12.313  21.013  0.00  0.00    +0.000 A 
ATOM     21  C   UNL     1      -1.085  11.626  20.187  0.00  0.00    +0.000 A 
ATOM     22  C   UNL     1      -0.194  10.660  20.696  0.00  0.00    +0.000 A 
ATOM     23  C   UNL     1      -0.240  10.402  22.081  0.00  0.00    +0.000 A 
ATOM     24  C   UNL     1      -1.128  11.086  22.920  0.00  0.00    +0.000 A 
BRANCH  19  26
ATOM     25  C   UNL     1      -4.187  13.742  22.286  0.00  0.00    +0.000 C 
ATOM     26  S   UNL     1      -3.110  12.924  23.432  0.00  0.00    +0.000 S 
ATOM     27  O   UNL     1      -2.338  13.932  24.130  0.00  0.00    +0.000 OA
ATOM     28  O   UNL     1      -3.889  11.946  24.169  0.00  0.00    +0.000 OA
ENDBRANCH  19  26
ENDBRANCH   1  22
TORSDOF 4
ENDMDL
MODEL 2
REMARK VINA RESULT:      -8.4      0.731      1.285
REMARK  Name = 
REMARK  5 active torsions:
REMARK  status: ('A' for Active; 'I' for Inactive)
REMARK    1  A    between atoms: C_1  and  S_2
REMARK    2  A    between atoms: S_2  and  C_5
REMARK    3  A    between atoms: C_8  and  C_9
REMARK    4  A    between atoms: C_13  and  C_14
REMARK    5  A    between atoms: C_19  and  O_20
REMARK                            x       y       z     vdW  Elec       q    Type
REMARK                         _______ _______ _______ _____ _____    ______ ____
ROOT
ATOM      1  C   UNL     1       0.760  10.132  19.628  0.00  0.00    +0.000 A 
ATOM      2  C   UNL     1       1.271  10.676  18.447  0.00  0.00    +0.000 A 
ATOM      3  N   UNL     1       2.139  10.024  17.638  0.00  0.00    +0.000 NA
ATOM      4  C   UNL     1       2.464   8.777  18.047  0.00  0.00    +0.000 A 
ATOM      5  C   UNL     1       1.962   8.202  19.212  0.00  0.00    +0.000 A 
ATOM      6  N   UNL     1       1.114   8.873  20.025  0.00  0.00    +0.000 NA
ENDROOT
BRANCH   5   7
ATOM      7  C   UNL     1       2.271   6.830  19.600  0.00  0.00    +0.000 A 
ATOM      8  C   UNL     1       1.691   6.033  20.571  0.00  0.00    +0.000 A 
ATOM      9  C   UNL     1       2.353   4.783  20.596  0.00  0.00    +0.000 A 
ATOM     10  C   UNL     1       2.180   3.614  21.357  0.00  0.00    +0.000 A 
ATOM     11  C   UNL     1       3.052   2.541  21.172  0.00  0.00    +0.000 A 
ATOM     12  C   UNL     1       4.086   2.640  20.247  0.00  0.00    +0.000 A 
ATOM     13  C   UNL     1       4.271   3.780  19.458  0.00  0.00    +0.000 A 
ATOM     14  C   UNL     1       3.374   4.844  19.648  0.00  0.00    +0.000 A 
ATOM     15  N   UNL     1       3.279   6.075  19.032  0.00  0.00    +0.000 N 
ATOM     16  H   UNL     1       3.866   6.403  18.279  0.00  0.00    +0.000 HD
BRANCH  12  17
ATOM     17  O   UNL     1       4.969   1.608  20.086  0.00  0.00    +0.000 OA
ATOM     18  H   UNL     1       5.869   1.970  20.095  0.00  0.00    +0.000 HD
ENDBRANCH  12  17
ENDBRANCH   5   7
BRANCH   1  22
ATOM     19  C   UNL     1      -2.107  12.080  22.171  0.00  0.00    +0.000 A 
ATOM     20  C   UNL     1      -1.189  11.180  22.708  0.00  0.00    +0.000 A 
ATOM     21  C   UNL     1      -0.257  10.569  21.866  0.00  0.00    +0.000 A 
ATOM     22  C   UNL     1      -0.224  10.829  20.482  0.00  0.00    +0.000 A 
ATOM     23  C   UNL     1      -1.169  11.742  19.971  0.00  0.00    +0.000 A 
ATOM     24  C   UNL     1      -2.111  12.358  20.804  0.00  0.00    +0.000 A 
BRANCH  19  26
ATOM     25  C   UNL     1      -2.379  14.082  24.081  0.00  0.00    +0.000 C 
ATOM     26  S   UNL     1      -3.310  12.833  23.234  0.00  0.00    +0.000 S 
ATOM     27  O   UNL     1      -3.723  11.837  24.205  0.00  0.00    +0.000 OA
ATOM     28  O   UNL     1      -4.288  13.490  22.387  0.00  0.00    +0.000 OA
ENDBRANCH  19  26
ENDBRANCH   1  22
TORSDOF 4
ENDMDL
MODEL 3
REMARK VINA RESULT:      -7.7      0.965      1.661
REMARK  Name = 
REMARK  5 active torsions:
REMARK  status: ('A' for Active; 'I' for Inactive)
REMARK    1  A    between atoms: C_1  and  S_2
REMARK    2  A    between atoms: S_2  and  C_5
REMARK    3  A    between atoms: C_8  and  C_9
REMARK    4  A    between atoms: C_13  and  C_14
REMARK    5  A    between atoms: C_19  and  O_20
REMARK                            x       y       z     vdW  Elec       q    Type
REMARK                         _______ _______ _______ _____ _____    ______ ____
ROOT
ATOM      1  C   UNL     1       0.647  10.391  19.671  0.00  0.00    +0.000 A 
ATOM      2  C   UNL     1       1.123  11.015  18.515  0.00  0.00    +0.000 A 
ATOM      3  N   UNL     1       1.974  10.425  17.644  0.00  0.00    +0.000 NA
ATOM      4  C   UNL     1       2.318   9.157  17.962  0.00  0.00    +0.000 A 
ATOM      5  C   UNL     1       1.852   8.503  19.099  0.00  0.00    +0.000 A 
ATOM      6  N   UNL     1       1.021   9.112  19.976  0.00  0.00    +0.000 NA
ENDROOT
BRANCH   5   7
ATOM      7  C   UNL     1       2.181   7.111  19.389  0.00  0.00    +0.000 A 
ATOM      8  C   UNL     1       2.704   6.134  18.561  0.00  0.00    +0.000 A 
ATOM      9  C   UNL     1       2.821   4.928  19.291  0.00  0.00    +0.000 A 
ATOM     10  C   UNL     1       3.292   3.644  18.965  0.00  0.00    +0.000 A 
ATOM     11  C   UNL     1       3.228   2.628  19.919  0.00  0.00    +0.000 A 
ATOM     12  C   UNL     1       2.694   2.891  21.176  0.00  0.00    +0.000 A 
ATOM     13  C   UNL     1       2.239   4.162  21.540  0.00  0.00    +0.000 A 
ATOM     14  C   UNL     1       2.325   5.175  20.571  0.00  0.00    +0.000 A 
ATOM     15  N   UNL     1       1.982   6.512  20.618  0.00  0.00    +0.000 N 
ATOM     16  H   UNL     1       1.618   6.997  21.425  0.00  0.00    +0.000 HD
BRANCH  12  17
ATOM     17  O   UNL     1       2.592   1.892  22.104  0.00  0.00    +0.000 OA
ATOM     18  H   UNL     1       3.461   1.764  22.515  0.00  0.00    +0.000 HD
ENDBRANCH  12  17
ENDBRANCH   5   7
BRANCH   1  22
ATOM     19  C   UNL     1      -2.168  12.142  22.408  0.00  0.00    +0.000 A 
ATOM     20  C   UNL     1      -1.251  11.194  22.855  0.00  0.00    +0.000 A 
ATOM     21  C   UNL     1      -0.336  10.649  21.953  0.00  0.00    +0.000 A 
ATOM     22  C   UNL     1      -0.320  11.021  20.594  0.00  0.00    +0.000 A 
ATOM     23  C   UNL     1      -1.264  11.981  20.174  0.00  0.00    +0.000 A 
ATOM     24  C   UNL     1      -2.189  12.532  21.069  0.00  0.00    +0.000 A 
BRANCH  19  26
ATOM     25  C   UNL     1      -4.625  13.440  22.485  0.00  0.00    +0.000 C 
ATOM     26  S   UNL     1      -3.351  12.813  23.547  0.00  0.00    +0.000 S 
ATOM     27  O   UNL     1      -2.725  13.935  24.219  0.00  0.00    +0.000 OA
ATOM     28  O   UNL     1      -3.897  11.705  24.308  0.00  0.00    +0.000 OA
ENDBRANCH  19  26
ENDBRANCH   1  22
TORSDOF 4
ENDMDL
MODEL 4
REMARK VINA RESULT:      -7.7      3.539      5.085
REMARK  Name = 
REMARK  5 active torsions:
REMARK  status: ('A' for Active; 'I' for Inactive)
REMARK    1  A    between atoms: C_1  and  S_2
REMARK    2  A    between atoms: S_2  and  C_5
REMARK    3  A    between atoms: C_8  and  C_9
REMARK    4  A    between atoms: C_13  and  C_14
REMARK    5  A    between atoms: C_19  and  O_20
REMARK                            x       y       z     vdW  Elec       q    Type
REMARK                         _______ _______ _______ _____ _____    ______ ____
ROOT
ATOM      1  C   UNL     1       2.094   6.506  20.089  0.00  0.00    +0.000 A 
ATOM      2  C   UNL     1       1.922   5.443  20.979  0.00  0.00    +0.000 A 
ATOM      3  N   UNL     1       2.422   4.203  20.768  0.00  0.00    +0.000 NA
ATOM      4  C   UNL     1       3.133   4.068  19.626  0.00  0.00    +0.000 A 
ATOM      5  C   UNL     1       3.332   5.110  18.724  0.00  0.00    +0.000 A 
ATOM      6  N   UNL     1       2.807   6.339  18.935  0.00  0.00    +0.000 NA
ENDROOT
BRANCH   5   7
ATOM      7  C   UNL     1       4.160   4.963  17.532  0.00  0.00    +0.000 A 
ATOM      8  C   UNL     1       4.130   3.991  16.548  0.00  0.00    +0.000 A 
ATOM      9  C   UNL     1       5.151   4.259  15.606  0.00  0.00    +0.000 A 
ATOM     10  C   UNL     1       5.563   3.623  14.422  0.00  0.00    +0.000 A 
ATOM     11  C   UNL     1       6.666   4.119  13.726  0.00  0.00    +0.000 A 
ATOM     12  C   UNL     1       7.351   5.227  14.213  0.00  0.00    +0.000 A 
ATOM     13  C   UNL     1       6.952   5.897  15.374  0.00  0.00    +0.000 A 
ATOM     14  C   UNL     1       5.831   5.392  16.052  0.00  0.00    +0.000 A 
ATOM     15  N   UNL     1       5.188   5.822  17.196  0.00  0.00    +0.000 N 
ATOM     16  H   UNL     1       5.432   6.640  17.735  0.00  0.00    +0.000 HD
BRANCH  12  17
ATOM     17  O   UNL     1       8.456   5.697  13.559  0.00  0.00    +0.000 OA
ATOM     18  H   UNL     1       8.478   6.662  13.647  0.00  0.00    +0.000 HD
ENDBRANCH  12  17
ENDBRANCH   5   7
BRANCH   1  22
ATOM     19  C   UNL     1       0.561  10.437  20.911  0.00  0.00    +0.000 A 
ATOM     20  C   UNL     1       0.662   9.496  21.932  0.00  0.00    +0.000 A 
ATOM     21  C   UNL     1       1.177   8.229  21.646  0.00  0.00    +0.000 A 
ATOM     22  C   UNL     1       1.587   7.870  20.347  0.00  0.00    +0.000 A 
ATOM     23  C   UNL     1       1.468   8.846  19.336  0.00  0.00    +0.000 A 
ATOM     24  C   UNL     1       0.951  10.118  19.610  0.00  0.00    +0.000 A 
BRANCH  19  26
ATOM     25  C   UNL     1      -1.018  11.769  22.771  0.00  0.00    +0.000 C 
ATOM     26  S   UNL     1      -0.120  12.036  21.266  0.00  0.00    +0.000 S 
ATOM     27  O   UNL     1      -1.071  12.351  20.218  0.00  0.00    +0.000 OA
ATOM     28  O   UNL     1       0.990  12.927  21.551  0.00  0.00    +0.000 OA
ENDBRANCH  19  26
ENDBRANCH   1  22
TORSDOF 4
ENDMDL
MODEL 5
REMARK VINA RESULT:      -7.6      1.303      1.833
REMARK  Name = 
REMARK  5 active torsions:
REMARK  status: ('A' for Active; 'I' for Inactive)
REMARK    1  A    between atoms: C_1  and  S_2
REMARK    2  A    between atoms: S_2  and  C_5
REMARK    3  A    between atoms: C_8  and  C_9
REMARK    4  A    between atoms: C_13  and  C_14
REMARK    5  A    between atoms: C_19  and  O_20
REMARK                            x       y       z     vdW  Elec       q    Type
REMARK                         _______ _______ _______ _____ _____    ______ ____
ROOT
ATOM      1  C   UNL     1       0.228  11.129  20.059  0.00  0.00    +0.000 A 
ATOM      2  C   UNL     1       0.744  12.000  19.096  0.00  0.00    +0.000 A 
ATOM      3  N   UNL     1       1.677  11.638  18.184  0.00  0.00    +0.000 NA
ATOM      4  C   UNL     1       2.063  10.345  18.255  0.00  0.00    +0.000 A 
ATOM      5  C   UNL     1       1.560   9.449  19.194  0.00  0.00    +0.000 A 
ATOM      6  N   UNL     1       0.646   9.829  20.117  0.00  0.00    +0.000 NA
ENDROOT
BRANCH   5   7
ATOM      7  C   UNL     1       1.939   8.040  19.211  0.00  0.00    +0.000 A 
ATOM      8  C   UNL     1       2.348   7.221  18.174  0.00  0.00    +0.000 A 
ATOM      9  C   UNL     1       2.579   5.920  18.679  0.00  0.00    +0.000 A 
ATOM     10  C   UNL     1       3.009   4.719  18.091  0.00  0.00    +0.000 A 
ATOM     11  C   UNL     1       3.091   3.564  18.871  0.00  0.00    +0.000 A 
ATOM     12  C   UNL     1       2.738   3.610  20.215  0.00  0.00    +0.000 A 
ATOM     13  C   UNL     1       2.328   4.795  20.836  0.00  0.00    +0.000 A 
ATOM     14  C   UNL     1       2.267   5.949  20.038  0.00  0.00    +0.000 A 
ATOM     15  N   UNL     1       1.922   7.250  20.344  0.00  0.00    +0.000 N 
ATOM     16  H   UNL     1       1.672   7.592  21.260  0.00  0.00    +0.000 HD
BRANCH  12  17
ATOM     17  O   UNL     1       2.777   2.476  20.978  0.00  0.00    +0.000 OA
ATOM     18  H   UNL     1       2.882   1.713  20.389  0.00  0.00    +0.000 HD
ENDBRANCH  12  17
ENDBRANCH   5   7
BRANCH   1  22
ATOM     19  C   UNL     1      -2.846  12.339  22.810  0.00  0.00    +0.000 A 
ATOM     20  C   UNL     1      -2.890  12.754  21.481  0.00  0.00    +0.000 A 
ATOM     21  C   UNL     1      -1.889  12.337  20.601  0.00  0.00    +0.000 A 
ATOM     22  C   UNL     1      -0.824  11.516  21.021  0.00  0.00    +0.000 A 
ATOM     23  C   UNL     1      -0.808  11.117  22.374  0.00  0.00    +0.000 A 
ATOM     24  C   UNL     1      -1.804  11.531  23.267  0.00  0.00    +0.000 A 
BRANCH  19  26
ATOM     25  C   UNL     1      -5.477  13.235  22.873  0.00  0.00    +0.000 C 
ATOM     26  S   UNL     1      -4.100  12.892  23.936  0.00  0.00    +0.000 S 
ATOM     27  O   UNL     1      -3.650  14.143  24.514  0.00  0.00    +0.000 OA
ATOM     28  O   UNL     1      -4.448  11.768  24.784  0.00  0.00    +0.000 OA
ENDBRANCH  19  26
ENDBRANCH   1  22
TORSDOF 4
ENDMDL
MODEL 6
REMARK VINA RESULT:      -7.6      1.296      1.732
REMARK  Name = 
REMARK  5 active torsions:
REMARK  status: ('A' for Active; 'I' for Inactive)
REMARK    1  A    between atoms: C_1  and  S_2
REMARK    2  A    between atoms: S_2  and  C_5
REMARK    3  A    between atoms: C_8  and  C_9
REMARK    4  A    between atoms: C_13  and  C_14
REMARK    5  A    between atoms: C_19  and  O_20
REMARK                            x       y       z     vdW  Elec       q    Type
REMARK                         _______ _______ _______ _____ _____    ______ ____
ROOT
ATOM      1  C   UNL     1       0.401  10.680  19.890  0.00  0.00    +0.000 A 
ATOM      2  C   UNL     1       0.934  11.409  18.824  0.00  0.00    +0.000 A 
ATOM      3  N   UNL     1       1.853  10.911  17.964  0.00  0.00    +0.000 NA
ATOM      4  C   UNL     1       2.208   9.628  18.198  0.00  0.00    +0.000 A 
ATOM      5  C   UNL     1       1.686   8.871  19.243  0.00  0.00    +0.000 A 
ATOM      6  N   UNL     1       0.786   9.387  20.111  0.00  0.00    +0.000 NA
ENDROOT
BRANCH   5   7
ATOM      7  C   UNL     1       2.030   7.466  19.437  0.00  0.00    +0.000 A 
ATOM      8  C   UNL     1       2.536   6.546  18.537  0.00  0.00    +0.000 A 
ATOM      9  C   UNL     1       2.679   5.297  19.187  0.00  0.00    +0.000 A 
ATOM     10  C   UNL     1       3.148   4.040  18.769  0.00  0.00    +0.000 A 
ATOM     11  C   UNL     1       3.114   2.966  19.659  0.00  0.00    +0.000 A 
ATOM     12  C   UNL     1       2.612   3.146  20.944  0.00  0.00    +0.000 A 
ATOM     13  C   UNL     1       2.161   4.390  21.398  0.00  0.00    +0.000 A 
ATOM     14  C   UNL     1       2.216   5.462  20.492  0.00  0.00    +0.000 A 
ATOM     15  N   UNL     1       1.867   6.790  20.631  0.00  0.00    +0.000 N 
ATOM     16  H   UNL     1       1.522   7.222  21.476  0.00  0.00    +0.000 HD
BRANCH  12  17
ATOM     17  O   UNL     1       2.540   2.091  21.811  0.00  0.00    +0.000 OA
ATOM     18  H   UNL     1       3.236   1.456  21.580  0.00  0.00    +0.000 HD
ENDBRANCH  12  17
ENDBRANCH   5   7
BRANCH   1  22
ATOM     19  C   UNL     1      -2.626  12.308  22.473  0.00  0.00    +0.000 A 
ATOM     20  C   UNL     1      -2.631  12.605  21.111  0.00  0.00    +0.000 A 
ATOM     21  C   UNL     1      -1.647  12.053  20.288  0.00  0.00    +0.000 A 
ATOM     22  C   UNL     1      -0.637  11.212  20.797  0.00  0.00    +0.000 A 
ATOM     23  C   UNL     1      -0.660  10.935  22.180  0.00  0.00    +0.000 A 
ATOM     24  C   UNL     1      -1.639  11.485  23.016  0.00  0.00    +0.000 A 
BRANCH  19  26
ATOM     25  C   UNL     1      -2.952  14.269  24.415  0.00  0.00    +0.000 C 
ATOM     26  S   UNL     1      -3.857  13.032  23.525  0.00  0.00    +0.000 S 
ATOM     27  O   UNL     1      -4.283  12.015  24.466  0.00  0.00    +0.000 OA
ATOM     28  O   UNL     1      -4.820  13.700  22.670  0.00  0.00    +0.000 OA
ENDBRANCH  19  26
ENDBRANCH   1  22
TORSDOF 4
ENDMDL
MODEL 7
REMARK VINA RESULT:      -7.6      3.414      4.917
REMARK  Name = 
REMARK  5 active torsions:
REMARK  status: ('A' for Active; 'I' for Inactive)
REMARK    1  A    between atoms: C_1  and  S_2
REMARK    2  A    between atoms: S_2  and  C_5
REMARK    3  A    between atoms: C_8  and  C_9
REMARK    4  A    between atoms: C_13  and  C_14
REMARK    5  A    between atoms: C_19  and  O_20
REMARK                            x       y       z     vdW  Elec       q    Type
REMARK                         _______ _______ _______ _____ _____    ______ ____
ROOT
ATOM      1  C   UNL     1       1.961   6.733  20.151  0.00  0.00    +0.000 A 
ATOM      2  C   UNL     1       1.649   5.669  21.001  0.00  0.00    +0.000 A 
ATOM      3  N   UNL     1       2.102   4.407  20.815  0.00  0.00    +0.000 NA
ATOM      4  C   UNL     1       2.913   4.250  19.745  0.00  0.00    +0.000 A 
ATOM      5  C   UNL     1       3.253   5.292  18.886  0.00  0.00    +0.000 A 
ATOM      6  N   UNL     1       2.774   6.545  19.068  0.00  0.00    +0.000 NA
ENDROOT
BRANCH   5   7
ATOM      7  C   UNL     1       4.183   5.118  17.776  0.00  0.00    +0.000 A 
ATOM      8  C   UNL     1       5.346   5.807  17.480  0.00  0.00    +0.000 A 
ATOM      9  C   UNL     1       5.891   5.292  16.279  0.00  0.00    +0.000 A 
ATOM     10  C   UNL     1       7.041   5.598  15.533  0.00  0.00    +0.000 A 
ATOM     11  C   UNL     1       7.279   4.926  14.334  0.00  0.00    +0.000 A 
ATOM     12  C   UNL     1       6.375   3.969  13.885  0.00  0.00    +0.000 A 
ATOM     13  C   UNL     1       5.234   3.624  14.616  0.00  0.00    +0.000 A 
ATOM     14  C   UNL     1       5.019   4.302  15.827  0.00  0.00    +0.000 A 
ATOM     15  N   UNL     1       4.017   4.187  16.769  0.00  0.00    +0.000 N 
ATOM     16  H   UNL     1       3.250   3.531  16.735  0.00  0.00    +0.000 HD
BRANCH  12  17
ATOM     17  O   UNL     1       6.580   3.332  12.692  0.00  0.00    +0.000 OA
ATOM     18  H   UNL     1       7.363   3.717  12.270  0.00  0.00    +0.000 HD
ENDBRANCH  12  17
ENDBRANCH   5   7
BRANCH   1  22
ATOM     19  C   UNL     1       0.573  10.731  20.906  0.00  0.00    +0.000 A 
ATOM     20  C   UNL     1       0.702   9.823  21.955  0.00  0.00    +0.000 A 
ATOM     21  C   UNL     1       1.169   8.535  21.689  0.00  0.00    +0.000 A 
ATOM     22  C   UNL     1       1.503   8.119  20.385  0.00  0.00    +0.000 A 
ATOM     23  C   UNL     1       1.357   9.062  19.347  0.00  0.00    +0.000 A 
ATOM     24  C   UNL     1       0.887  10.356  19.600  0.00  0.00    +0.000 A 
BRANCH  19  26
ATOM     25  C   UNL     1      -1.023  12.131  22.701  0.00  0.00    +0.000 C 
ATOM     26  S   UNL     1      -0.049  12.359  21.237  0.00  0.00    +0.000 S 
ATOM     27  O   UNL     1      -0.938  12.719  20.150  0.00  0.00    +0.000 OA
ATOM     28  O   UNL     1       1.087  13.198  21.573  0.00  0.00    +0.000 OA
ENDBRANCH  19  26
ENDBRANCH   1  22
TORSDOF 4
ENDMDL
MODEL 8
REMARK VINA RESULT:      -7.5      3.640      5.154
REMARK  Name = 
REMARK  5 active torsions:
REMARK  status: ('A' for Active; 'I' for Inactive)
REMARK    1  A    between atoms: C_1  and  S_2
REMARK    2  A    between atoms: S_2  and  C_5
REMARK    3  A    between atoms: C_8  and  C_9
REMARK    4  A    between atoms: C_13  and  C_14
REMARK    5  A    between atoms: C_19  and  O_20
REMARK                            x       y       z     vdW  Elec       q    Type
REMARK                         _______ _______ _______ _____ _____    ______ ____
ROOT
ATOM      1  C   UNL     1       2.185   6.470  19.989  0.00  0.00    +0.000 A 
ATOM      2  C   UNL     1       2.041   5.411  20.889  0.00  0.00    +0.000 A 
ATOM      3  N   UNL     1       2.559   4.178  20.682  0.00  0.00    +0.000 NA
ATOM      4  C   UNL     1       3.259   4.046  19.533  0.00  0.00    +0.000 A 
ATOM      5  C   UNL     1       3.432   5.084  18.621  0.00  0.00    +0.000 A 
ATOM      6  N   UNL     1       2.889   6.306  18.828  0.00  0.00    +0.000 NA
ENDROOT
BRANCH   5   7
ATOM      7  C   UNL     1       4.249   4.941  17.421  0.00  0.00    +0.000 A 
ATOM      8  C   UNL     1       4.207   3.974  16.432  0.00  0.00    +0.000 A 
ATOM      9  C   UNL     1       5.221   4.244  15.483  0.00  0.00    +0.000 A 
ATOM     10  C   UNL     1       5.621   3.614  14.292  0.00  0.00    +0.000 A 
ATOM     11  C   UNL     1       6.720   4.109  13.590  0.00  0.00    +0.000 A 
ATOM     12  C   UNL     1       7.413   5.213  14.077  0.00  0.00    +0.000 A 
ATOM     13  C   UNL     1       7.026   5.877  15.245  0.00  0.00    +0.000 A 
ATOM     14  C   UNL     1       5.909   5.372  15.930  0.00  0.00    +0.000 A 
ATOM     15  N   UNL     1       5.277   5.798  17.081  0.00  0.00    +0.000 N 
ATOM     16  H   UNL     1       5.529   6.612  17.623  0.00  0.00    +0.000 HD
BRANCH  12  17
ATOM     17  O   UNL     1       8.514   5.682  13.416  0.00  0.00    +0.000 OA
ATOM     18  H   UNL     1       8.653   5.138  12.626  0.00  0.00    +0.000 HD
ENDBRANCH  12  17
ENDBRANCH   5   7
BRANCH   1  22
ATOM     19  C   UNL     1       0.717  10.455  20.656  0.00  0.00    +0.000 A 
ATOM     20  C   UNL     1       1.136  10.065  19.386  0.00  0.00    +0.000 A 
ATOM     21  C   UNL     1       1.596   8.761  19.188  0.00  0.00    +0.000 A 
ATOM     22  C   UNL     1       1.660   7.828  20.242  0.00  0.00    +0.000 A 
ATOM     23  C   UNL     1       1.231   8.257  21.515  0.00  0.00    +0.000 A 
ATOM     24  C   UNL     1       0.771   9.562  21.727  0.00  0.00    +0.000 A 
BRANCH  19  26
ATOM     25  C   UNL     1       1.618  13.084  20.615  0.00  0.00    +0.000 C 
ATOM     26  S   UNL     1       0.161  12.119  20.915  0.00  0.00    +0.000 S 
ATOM     27  O   UNL     1      -0.192  12.251  22.315  0.00  0.00    +0.000 OA
ATOM     28  O   UNL     1      -0.806  12.421  19.876  0.00  0.00    +0.000 OA
ENDBRANCH  19  26
ENDBRANCH   1  22
TORSDOF 4
ENDMDL
MODEL 9
REMARK VINA RESULT:      -7.5      3.837      9.464
REMARK  Name = 
REMARK  5 active torsions:
REMARK  status: ('A' for Active; 'I' for Inactive)
REMARK    1  A    between atoms: C_1  and  S_2
REMARK    2  A    between atoms: S_2  and  C_5
REMARK    3  A    between atoms: C_8  and  C_9
REMARK    4  A    between atoms: C_13  and  C_14
REMARK    5  A    between atoms: C_19  and  O_20
REMARK                            x       y       z     vdW  Elec       q    Type
REMARK                         _______ _______ _______ _____ _____    ______ ____
ROOT
ATOM      1  C   UNL     1       0.950  10.575  18.647  0.00  0.00    +0.000 A 
ATOM      2  C   UNL     1       1.693  11.755  18.557  0.00  0.00    +0.000 A 
ATOM      3  N   UNL     1       1.135  12.984  18.469  0.00  0.00    +0.000 NA
ATOM      4  C   UNL     1      -0.217  12.994  18.499  0.00  0.00    +0.000 A 
ATOM      5  C   UNL     1      -0.986  11.838  18.600  0.00  0.00    +0.000 A 
ATOM      6  N   UNL     1      -0.417  10.612  18.663  0.00  0.00    +0.000 NA
ENDROOT
BRANCH   5   7
ATOM      7  C   UNL     1      -2.441  11.874  18.700  0.00  0.00    +0.000 A 
ATOM      8  C   UNL     1      -3.398  11.296  17.886  0.00  0.00    +0.000 A 
ATOM      9  C   UNL     1      -4.682  11.637  18.373  0.00  0.00    +0.000 A 
ATOM     10  C   UNL     1      -5.987  11.324  17.956  0.00  0.00    +0.000 A 
ATOM     11  C   UNL     1      -7.075  11.872  18.638  0.00  0.00    +0.000 A 
ATOM     12  C   UNL     1      -6.858  12.727  19.714  0.00  0.00    +0.000 A 
ATOM     13  C   UNL     1      -5.573  13.039  20.168  0.00  0.00    +0.000 A 
ATOM     14  C   UNL     1      -4.492  12.466  19.478  0.00  0.00    +0.000 A 
ATOM     15  N   UNL     1      -3.130  12.562  19.680  0.00  0.00    +0.000 N 
ATOM     16  H   UNL     1      -2.680  13.073  20.426  0.00  0.00    +0.000 HD
BRANCH  12  17
ATOM     17  O   UNL     1      -7.917  13.299  20.364  0.00  0.00    +0.000 OA
ATOM     18  H   UNL     1      -7.598  14.083  20.838  0.00  0.00    +0.000 HD
ENDBRANCH  12  17
ENDBRANCH   5   7
BRANCH   1  22
ATOM     19  C   UNL     1       2.749   6.705  19.166  0.00  0.00    +0.000 A 
ATOM     20  C   UNL     1       2.006   7.278  20.196  0.00  0.00    +0.000 A 
ATOM     21  C   UNL     1       1.418   8.529  20.001  0.00  0.00    +0.000 A 
ATOM     22  C   UNL     1       1.564   9.239  18.792  0.00  0.00    +0.000 A 
ATOM     23  C   UNL     1       2.325   8.632  17.772  0.00  0.00    +0.000 A 
ATOM     24  C   UNL     1       2.923   7.379  17.957  0.00  0.00    +0.000 A 
BRANCH  19  26
ATOM     25  C   UNL     1       3.110   4.231  17.951  0.00  0.00    +0.000 C 
ATOM     26  S   UNL     1       3.522   5.130  19.423  0.00  0.00    +0.000 S 
ATOM     27  O   UNL     1       2.860   4.493  20.545  0.00  0.00    +0.000 OA
ATOM     28  O   UNL     1       4.957   5.347  19.436  0.00  0.00    +0.000 OA
ENDBRANCH  19  26
ENDBRANCH   1  22
TORSDOF 4
ENDMDL
