MODEL 1
REMARK VINA RESULT:      -7.6      0.000      0.000
REMARK  Name = 
REMARK  7 active torsions:
REMARK  status: ('A' for Active; 'I' for Inactive)
REMARK    1  A    between atoms: C_1  and  C_2
REMARK    2  A    between atoms: N_4  and  C_5
REMARK    3  A    between atoms: N_4  and  C_11
REMARK    4  A    between atoms: C_5  and  C_6
REMARK    5  A    between atoms: C_11  and  C_12
REMARK    6  A    between atoms: C_16  and  C_17
REMARK    7  A    between atoms: C_18  and  C_19
REMARK                            x       y       z     vdW  Elec       q    Type
REMARK                         _______ _______ _______ _____ _____    ______ ____
ROOT
ATOM      1  C   UNL     1       2.445   6.407  19.110  0.00  0.00    +0.000 A 
ATOM      2  C   UNL     1       1.822   6.722  20.319  0.00  0.00    +0.000 A 
ATOM      3  C   UNL     1       1.387   8.027  20.562  0.00  0.00    +0.000 A 
ATOM      4  C   UNL     1       0.685   8.355  21.731  0.00  0.00    +0.000 A 
ATOM      5  C   UNL     1       0.126   9.627  21.901  0.00  0.00    +0.000 A 
ATOM      6  C   UNL     1      -0.675   9.906  23.142  0.00  0.00    +0.000 C 
ATOM      7  C   UNL     1       0.292  10.582  20.885  0.00  0.00    +0.000 A 
ATOM      8  C   UNL     1      -0.359  11.937  20.907  0.00  0.00    +0.000 C 
ATOM      9  C   UNL     1       1.072  10.255  19.759  0.00  0.00    +0.000 A 
ATOM     10  C   UNL     1       1.619   8.996  19.573  0.00  0.00    +0.000 A 
ATOM     11  N   UNL     1       2.303   8.734  18.449  0.00  0.00    +0.000 NA
ATOM     12  C   UNL     1       2.700   7.462  18.244  0.00  0.00    +0.000 A 
ATOM     13 CL   UNL     1       3.536   7.266  16.752  0.00  0.00    +0.000 Cl
ENDROOT
BRANCH   1  14
ATOM     14  C   UNL     1       2.697   4.976  18.749  0.00  0.00    +0.000 C 
BRANCH  14  18
ATOM     15  C   UNL     1       2.498   2.428  19.986  0.00  0.00    +0.000 C 
ATOM     16  C   UNL     1       3.863   3.066  19.811  0.00  0.00    +0.000 C 
ATOM     17  O   UNL     1       4.862   2.480  20.227  0.00  0.00    +0.000 OA
ATOM     18  N   UNL     1       3.916   4.316  19.202  0.00  0.00    +0.000 N 
BRANCH  18  19
ATOM     19  C   UNL     1       5.236   4.913  18.967  0.00  0.00    +0.000 C 
BRANCH  19  20
ATOM     20  C   UNL     1       5.715   4.686  17.558  0.00  0.00    +0.000 A 
ATOM     21  C   UNL     1       5.190   3.886  16.559  0.00  0.00    +0.000 A 
ATOM     22  C   UNL     1       5.944   3.953  15.350  0.00  0.00    +0.000 A 
ATOM     23  C   UNL     1       6.998   4.833  15.446  0.00  0.00    +0.000 A 
ATOM     24  S   UNL     1       7.077   5.568  16.986  0.00  0.00    +0.000 S 
ENDBRANCH  19  20
ENDBRANCH  18  19
ENDBRANCH  14  18
ENDBRANCH   1  14
TORSDOF 4
ENDMDL
MODEL 2
REMARK VINA RESULT:      -7.6      2.923      7.290
REMARK  Name = 
REMARK  7 active torsions:
REMARK  status: ('A' for Active; 'I' for Inactive)
REMARK    1  A    between atoms: C_1  and  C_2
REMARK    2  A    between atoms: N_4  and  C_5
REMARK    3  A    between atoms: N_4  and  C_11
REMARK    4  A    between atoms: C_5  and  C_6
REMARK    5  A    between atoms: C_11  and  C_12
REMARK    6  A    between atoms: C_16  and  C_17
REMARK    7  A    between atoms: C_18  and  C_19
REMARK                            x       y       z     vdW  Elec       q    Type
REMARK                         _______ _______ _______ _____ _____    ______ ____
ROOT
ATOM      1  C   UNL     1       4.971   4.169  18.089  0.00  0.00    +0.000 A 
ATOM      2  C   UNL     1       4.513   3.808  16.821  0.00  0.00    +0.000 A 
ATOM      3  C   UNL     1       5.248   4.157  15.686  0.00  0.00    +0.000 A 
ATOM      4  C   UNL     1       4.857   3.738  14.406  0.00  0.00    +0.000 A 
ATOM      5  C   UNL     1       5.674   3.968  13.293  0.00  0.00    +0.000 A 
ATOM      6  C   UNL     1       5.240   3.437  11.955  0.00  0.00    +0.000 C 
ATOM      7  C   UNL     1       6.893   4.641  13.474  0.00  0.00    +0.000 A 
ATOM      8  C   UNL     1       7.900   4.840  12.376  0.00  0.00    +0.000 C 
ATOM      9  C   UNL     1       7.224   5.126  14.754  0.00  0.00    +0.000 A 
ATOM     10  C   UNL     1       6.430   4.894  15.865  0.00  0.00    +0.000 A 
ATOM     11  N   UNL     1       6.834   5.335  17.066  0.00  0.00    +0.000 NA
ATOM     12  C   UNL     1       6.105   4.970  18.141  0.00  0.00    +0.000 A 
ATOM     13 CL   UNL     1       6.755   5.577  19.614  0.00  0.00    +0.000 Cl
ENDROOT
BRANCH   1  14
ATOM     14  C   UNL     1       4.321   3.598  19.310  0.00  0.00    +0.000 C 
BRANCH  14  18
ATOM     15  C   UNL     1       2.024   2.040  18.705  0.00  0.00    +0.000 C 
ATOM     16  C   UNL     1       1.860   3.349  19.454  0.00  0.00    +0.000 C 
ATOM     17  O   UNL     1       0.732   3.727  19.770  0.00  0.00    +0.000 OA
ATOM     18  N   UNL     1       3.010   4.082  19.729  0.00  0.00    +0.000 N 
BRANCH  18  19
ATOM     19  C   UNL     1       2.870   5.316  20.512  0.00  0.00    +0.000 C 
BRANCH  19  20
ATOM     20  C   UNL     1       2.542   6.500  19.643  0.00  0.00    +0.000 A 
ATOM     21  C   UNL     1       2.729   6.687  18.285  0.00  0.00    +0.000 A 
ATOM     22  C   UNL     1       2.272   7.962  17.838  0.00  0.00    +0.000 A 
ATOM     23  C   UNL     1       1.712   8.696  18.857  0.00  0.00    +0.000 A 
ATOM     24  S   UNL     1       1.741   7.853  20.343  0.00  0.00    +0.000 S 
ENDBRANCH  19  20
ENDBRANCH  18  19
ENDBRANCH  14  18
ENDBRANCH   1  14
TORSDOF 4
ENDMDL
MODEL 3
REMARK VINA RESULT:      -7.4      2.083      3.469
REMARK  Name = 
REMARK  7 active torsions:
REMARK  status: ('A' for Active; 'I' for Inactive)
REMARK    1  A    between atoms: C_1  and  C_2
REMARK    2  A    between atoms: N_4  and  C_5
REMARK    3  A    between atoms: N_4  and  C_11
REMARK    4  A    between atoms: C_5  and  C_6
REMARK    5  A    between atoms: C_11  and  C_12
REMARK    6  A    between atoms: C_16  and  C_17
REMARK    7  A    between atoms: C_18  and  C_19
REMARK                            x       y       z     vdW  Elec       q    Type
REMARK                         _______ _______ _______ _____ _____    ______ ____
ROOT
ATOM      1  C   UNL     1       4.002   6.268  18.452  0.00  0.00    +0.000 A 
ATOM      2  C   UNL     1       3.251   6.510  19.603  0.00  0.00    +0.000 A 
ATOM      3  C   UNL     1       2.336   7.565  19.632  0.00  0.00    +0.000 A 
ATOM      4  C   UNL     1       1.509   7.782  20.744  0.00  0.00    +0.000 A 
ATOM      5  C   UNL     1       0.495   8.748  20.709  0.00  0.00    +0.000 A 
ATOM      6  C   UNL     1      -0.406   8.893  21.903  0.00  0.00    +0.000 C 
ATOM      7  C   UNL     1       0.327   9.511  19.542  0.00  0.00    +0.000 A 
ATOM      8  C   UNL     1      -0.797  10.491  19.349  0.00  0.00    +0.000 C 
ATOM      9  C   UNL     1       1.223   9.332  18.471  0.00  0.00    +0.000 A 
ATOM     10  C   UNL     1       2.221   8.372  18.489  0.00  0.00    +0.000 A 
ATOM     11  N   UNL     1       3.003   8.215  17.411  0.00  0.00    +0.000 NA
ATOM     12  C   UNL     1       3.869   7.181  17.414  0.00  0.00    +0.000 A 
ATOM     13 CL   UNL     1       4.783   7.082  15.959  0.00  0.00    +0.000 Cl
ENDROOT
BRANCH   1  14
ATOM     14  C   UNL     1       4.802   5.008  18.332  0.00  0.00    +0.000 C 
BRANCH  14  18
ATOM     15  C   UNL     1       7.249   4.599  16.951  0.00  0.00    +0.000 C 
ATOM     16  C   UNL     1       5.965   4.030  16.376  0.00  0.00    +0.000 C 
ATOM     17  O   UNL     1       6.000   3.418  15.309  0.00  0.00    +0.000 OA
ATOM     18  N   UNL     1       4.788   4.255  17.083  0.00  0.00    +0.000 N 
BRANCH  18  19
ATOM     19  C   UNL     1       3.551   3.653  16.572  0.00  0.00    +0.000 C 
BRANCH  19  20
ATOM     20  C   UNL     1       2.643   3.201  17.684  0.00  0.00    +0.000 A 
ATOM     21  C   UNL     1       1.407   3.684  18.074  0.00  0.00    +0.000 A 
ATOM     22  C   UNL     1       0.863   2.969  19.182  0.00  0.00    +0.000 A 
ATOM     23  C   UNL     1       1.679   1.936  19.581  0.00  0.00    +0.000 A 
ATOM     24  S   UNL     1       3.091   1.833  18.625  0.00  0.00    +0.000 S 
ENDBRANCH  19  20
ENDBRANCH  18  19
ENDBRANCH  14  18
ENDBRANCH   1  14
TORSDOF 4
ENDMDL
MODEL 4
REMARK VINA RESULT:      -7.3      2.520      7.637
REMARK  Name = 
REMARK  7 active torsions:
REMARK  status: ('A' for Active; 'I' for Inactive)
REMARK    1  A    between atoms: C_1  and  C_2
REMARK    2  A    between atoms: N_4  and  C_5
REMARK    3  A    between atoms: N_4  and  C_11
REMARK    4  A    between atoms: C_5  and  C_6
REMARK    5  A    between atoms: C_11  and  C_12
REMARK    6  A    between atoms: C_16  and  C_17
REMARK    7  A    between atoms: C_18  and  C_19
REMARK                            x       y       z     vdW  Elec       q    Type
REMARK                         _______ _______ _______ _____ _____    ______ ____
ROOT
ATOM      1  C   UNL     1       5.566   4.716  17.472  0.00  0.00    +0.000 A 
ATOM      2  C   UNL     1       4.875   4.258  16.349  0.00  0.00    +0.000 A 
ATOM      3  C   UNL     1       5.462   4.341  15.084  0.00  0.00    +0.000 A 
ATOM      4  C   UNL     1       4.828   3.815  13.950  0.00  0.00    +0.000 A 
ATOM      5  C   UNL     1       5.483   3.772  12.714  0.00  0.00    +0.000 A 
ATOM      6  C   UNL     1       4.784   3.136  11.545  0.00  0.00    +0.000 C 
ATOM      7  C   UNL     1       6.789   4.280  12.621  0.00  0.00    +0.000 A 
ATOM      8  C   UNL     1       7.630   4.181  11.379  0.00  0.00    +0.000 C 
ATOM      9  C   UNL     1       7.373   4.879  13.754  0.00  0.00    +0.000 A 
ATOM     10  C   UNL     1       6.740   4.916  14.985  0.00  0.00    +0.000 A 
ATOM     11  N   UNL     1       7.377   5.451  16.038  0.00  0.00    +0.000 NA
ATOM     12  C   UNL     1       6.784   5.343  17.244  0.00  0.00    +0.000 A 
ATOM     13 CL   UNL     1       7.726   6.042  18.505  0.00  0.00    +0.000 Cl
ENDROOT
BRANCH   1  14
ATOM     14  C   UNL     1       5.048   4.414  18.843  0.00  0.00    +0.000 C 
BRANCH  14  18
ATOM     15  C   UNL     1       4.700   2.066  20.402  0.00  0.00    +0.000 C 
ATOM     16  C   UNL     1       3.489   2.724  19.767  0.00  0.00    +0.000 C 
ATOM     17  O   UNL     1       2.378   2.219  19.918  0.00  0.00    +0.000 OA
ATOM     18  N   UNL     1       3.704   3.872  19.009  0.00  0.00    +0.000 N 
BRANCH  18  19
ATOM     19  C   UNL     1       2.534   4.554  18.445  0.00  0.00    +0.000 C 
BRANCH  19  20
ATOM     20  C   UNL     1       2.199   5.814  19.198  0.00  0.00    +0.000 A 
ATOM     21  C   UNL     1       1.722   5.981  20.485  0.00  0.00    +0.000 A 
ATOM     22  C   UNL     1       1.538   7.353  20.829  0.00  0.00    +0.000 A 
ATOM     23  C   UNL     1       1.918   8.196  19.811  0.00  0.00    +0.000 A 
ATOM     24  S   UNL     1       2.490   7.336  18.450  0.00  0.00    +0.000 S 
ENDBRANCH  19  20
ENDBRANCH  18  19
ENDBRANCH  14  18
ENDBRANCH   1  14
TORSDOF 4
ENDMDL
MODEL 5
REMARK VINA RESULT:      -7.3      2.407      3.768
REMARK  Name = 
REMARK  7 active torsions:
REMARK  status: ('A' for Active; 'I' for Inactive)
REMARK    1  A    between atoms: C_1  and  C_2
REMARK    2  A    between atoms: N_4  and  C_5
REMARK    3  A    between atoms: N_4  and  C_11
REMARK    4  A    between atoms: C_5  and  C_6
REMARK    5  A    between atoms: C_11  and  C_12
REMARK    6  A    between atoms: C_16  and  C_17
REMARK    7  A    between atoms: C_18  and  C_19
REMARK                            x       y       z     vdW  Elec       q    Type
REMARK                         _______ _______ _______ _____ _____    ______ ____
ROOT
ATOM      1  C   UNL     1       3.467   4.997  17.885  0.00  0.00    +0.000 A 
ATOM      2  C   UNL     1       2.995   6.268  17.553  0.00  0.00    +0.000 A 
ATOM      3  C   UNL     1       2.335   7.041  18.511  0.00  0.00    +0.000 A 
ATOM      4  C   UNL     1       1.923   8.352  18.233  0.00  0.00    +0.000 A 
ATOM      5  C   UNL     1       1.394   9.170  19.239  0.00  0.00    +0.000 A 
ATOM      6  C   UNL     1       1.031  10.589  18.902  0.00  0.00    +0.000 C 
ATOM      7  C   UNL     1       1.268   8.650  20.537  0.00  0.00    +0.000 A 
ATOM      8  C   UNL     1       0.825   9.469  21.718  0.00  0.00    +0.000 C 
ATOM      9  C   UNL     1       1.611   7.305  20.773  0.00  0.00    +0.000 A 
ATOM     10  C   UNL     1       2.146   6.490  19.789  0.00  0.00    +0.000 A 
ATOM     11  N   UNL     1       2.505   5.235  20.096  0.00  0.00    +0.000 NA
ATOM     12  C   UNL     1       3.148   4.522  19.150  0.00  0.00    +0.000 A 
ATOM     13 CL   UNL     1       3.576   2.945  19.691  0.00  0.00    +0.000 Cl
ENDROOT
BRANCH   1  14
ATOM     14  C   UNL     1       4.375   4.268  16.944  0.00  0.00    +0.000 C 
BRANCH  14  18
ATOM     15  C   UNL     1       6.002   3.881  14.649  0.00  0.00    +0.000 C 
ATOM     16  C   UNL     1       6.654   4.231  15.973  0.00  0.00    +0.000 C 
ATOM     17  O   UNL     1       7.879   4.321  16.038  0.00  0.00    +0.000 OA
ATOM     18  N   UNL     1       5.821   4.410  17.073  0.00  0.00    +0.000 N 
BRANCH  18  19
ATOM     19  C   UNL     1       6.434   4.815  18.344  0.00  0.00    +0.000 C 
BRANCH  19  20
ATOM     20  C   UNL     1       7.073   6.175  18.254  0.00  0.00    +0.000 A 
ATOM     21  C   UNL     1       8.202   6.670  18.881  0.00  0.00    +0.000 A 
ATOM     22  C   UNL     1       8.481   8.022  18.521  0.00  0.00    +0.000 A 
ATOM     23  C   UNL     1       7.582   8.508  17.600  0.00  0.00    +0.000 A 
ATOM     24  S   UNL     1       6.409   7.341  17.177  0.00  0.00    +0.000 S 
ENDBRANCH  19  20
ENDBRANCH  18  19
ENDBRANCH  14  18
ENDBRANCH   1  14
TORSDOF 4
ENDMDL
MODEL 6
REMARK VINA RESULT:      -7.2      2.464      3.886
REMARK  Name = 
REMARK  7 active torsions:
REMARK  status: ('A' for Active; 'I' for Inactive)
REMARK    1  A    between atoms: C_1  and  C_2
REMARK    2  A    between atoms: N_4  and  C_5
REMARK    3  A    between atoms: N_4  and  C_11
REMARK    4  A    between atoms: C_5  and  C_6
REMARK    5  A    between atoms: C_11  and  C_12
REMARK    6  A    between atoms: C_16  and  C_17
REMARK    7  A    between atoms: C_18  and  C_19
REMARK                            x       y       z     vdW  Elec       q    Type
REMARK                         _______ _______ _______ _____ _____    ______ ____
ROOT
ATOM      1  C   UNL     1       3.124   6.309  19.184  0.00  0.00    +0.000 A 
ATOM      2  C   UNL     1       2.815   7.507  18.537  0.00  0.00    +0.000 A 
ATOM      3  C   UNL     1       1.895   8.391  19.105  0.00  0.00    +0.000 A 
ATOM      4  C   UNL     1       1.626   9.638  18.521  0.00  0.00    +0.000 A 
ATOM      5  C   UNL     1       0.816  10.577  19.171  0.00  0.00    +0.000 A 
ATOM      6  C   UNL     1       0.616  11.923  18.534  0.00  0.00    +0.000 C 
ATOM      7  C   UNL     1       0.259  10.245  20.417  0.00  0.00    +0.000 A 
ATOM      8  C   UNL     1      -0.528  11.212  21.256  0.00  0.00    +0.000 C 
ATOM      9  C   UNL     1       0.476   8.956  20.942  0.00  0.00    +0.000 A 
ATOM     10  C   UNL     1       1.285   8.024  20.316  0.00  0.00    +0.000 A 
ATOM     11  N   UNL     1       1.495   6.835  20.900  0.00  0.00    +0.000 NA
ATOM     12  C   UNL     1       2.397   6.011  20.329  0.00  0.00    +0.000 A 
ATOM     13 CL   UNL     1       2.588   4.539  21.201  0.00  0.00    +0.000 Cl
ENDROOT
BRANCH   1  14
ATOM     14  C   UNL     1       4.273   5.476  18.708  0.00  0.00    +0.000 C 
BRANCH  14  18
ATOM     15  C   UNL     1       6.176   7.061  17.317  0.00  0.00    +0.000 C 
ATOM     16  C   UNL     1       5.390   6.007  16.561  0.00  0.00    +0.000 C 
ATOM     17  O   UNL     1       5.573   5.869  15.352  0.00  0.00    +0.000 OA
ATOM     18  N   UNL     1       4.466   5.254  17.279  0.00  0.00    +0.000 N 
BRANCH  18  19
ATOM     19  C   UNL     1       3.748   4.187  16.572  0.00  0.00    +0.000 C 
BRANCH  19  20
ATOM     20  C   UNL     1       2.806   3.443  17.480  0.00  0.00    +0.000 A 
ATOM     21  C   UNL     1       1.461   3.651  17.729  0.00  0.00    +0.000 A 
ATOM     22  C   UNL     1       0.925   2.713  18.661  0.00  0.00    +0.000 A 
ATOM     23  C   UNL     1       1.863   1.793  19.067  0.00  0.00    +0.000 A 
ATOM     24  S   UNL     1       3.380   2.061  18.329  0.00  0.00    +0.000 S 
ENDBRANCH  19  20
ENDBRANCH  18  19
ENDBRANCH  14  18
ENDBRANCH   1  14
TORSDOF 4
ENDMDL
MODEL 7
REMARK VINA RESULT:      -7.2      2.552      4.163
REMARK  Name = 
REMARK  7 active torsions:
REMARK  status: ('A' for Active; 'I' for Inactive)
REMARK    1  A    between atoms: C_1  and  C_2
REMARK    2  A    between atoms: N_4  and  C_5
REMARK    3  A    between atoms: N_4  and  C_11
REMARK    4  A    between atoms: C_5  and  C_6
REMARK    5  A    between atoms: C_11  and  C_12
REMARK    6  A    between atoms: C_16  and  C_17
REMARK    7  A    between atoms: C_18  and  C_19
REMARK                            x       y       z     vdW  Elec       q    Type
REMARK                         _______ _______ _______ _____ _____    ______ ____
ROOT
ATOM      1  C   UNL     1       3.936   4.385  17.675  0.00  0.00    +0.000 A 
ATOM      2  C   UNL     1       3.434   5.641  17.331  0.00  0.00    +0.000 A 
ATOM      3  C   UNL     1       2.759   6.409  18.282  0.00  0.00    +0.000 A 
ATOM      4  C   UNL     1       2.316   7.707  17.989  0.00  0.00    +0.000 A 
ATOM      5  C   UNL     1       1.772   8.524  18.988  0.00  0.00    +0.000 A 
ATOM      6  C   UNL     1       1.375   9.931  18.636  0.00  0.00    +0.000 C 
ATOM      7  C   UNL     1       1.661   8.017  20.292  0.00  0.00    +0.000 A 
ATOM      8  C   UNL     1       1.202   8.839  21.464  0.00  0.00    +0.000 C 
ATOM      9  C   UNL     1       2.035   6.682  20.542  0.00  0.00    +0.000 A 
ATOM     10  C   UNL     1       2.586   5.869  19.567  0.00  0.00    +0.000 A 
ATOM     11  N   UNL     1       2.975   4.626  19.887  0.00  0.00    +0.000 NA
ATOM     12  C   UNL     1       3.632   3.917  18.947  0.00  0.00    +0.000 A 
ATOM     13 CL   UNL     1       4.097   2.356  19.505  0.00  0.00    +0.000 Cl
ENDROOT
BRANCH   1  14
ATOM     14  C   UNL     1       4.858   3.666  16.741  0.00  0.00    +0.000 C 
BRANCH  14  18
ATOM     15  C   UNL     1       5.746   4.147  14.086  0.00  0.00    +0.000 C 
ATOM     16  C   UNL     1       6.687   4.416  15.246  0.00  0.00    +0.000 C 
ATOM     17  O   UNL     1       7.827   4.817  15.018  0.00  0.00    +0.000 OA
ATOM     18  N   UNL     1       6.213   4.164  16.530  0.00  0.00    +0.000 N 
BRANCH  18  19
ATOM     19  C   UNL     1       7.090   4.483  17.663  0.00  0.00    +0.000 C 
BRANCH  19  20
ATOM     20  C   UNL     1       7.354   5.960  17.774  0.00  0.00    +0.000 A 
ATOM     21  C   UNL     1       6.857   7.011  17.023  0.00  0.00    +0.000 A 
ATOM     22  C   UNL     1       7.353   8.277  17.456  0.00  0.00    +0.000 A 
ATOM     23  C   UNL     1       8.181   8.162  18.548  0.00  0.00    +0.000 A 
ATOM     24  S   UNL     1       8.360   6.537  19.045  0.00  0.00    +0.000 S 
ENDBRANCH  19  20
ENDBRANCH  18  19
ENDBRANCH  14  18
ENDBRANCH   1  14
TORSDOF 4
ENDMDL
MODEL 8
REMARK VINA RESULT:      -7.2      2.463      3.792
REMARK  Name = 
REMARK  7 active torsions:
REMARK  status: ('A' for Active; 'I' for Inactive)
REMARK    1  A    between atoms: C_1  and  C_2
REMARK    2  A    between atoms: N_4  and  C_5
REMARK    3  A    between atoms: N_4  and  C_11
REMARK    4  A    between atoms: C_5  and  C_6
REMARK    5  A    between atoms: C_11  and  C_12
REMARK    6  A    between atoms: C_16  and  C_17
REMARK    7  A    between atoms: C_18  and  C_19
REMARK                            x       y       z     vdW  Elec       q    Type
REMARK                         _______ _______ _______ _____ _____    ______ ____
ROOT
ATOM      1  C   UNL     1       3.929   5.119  18.050  0.00  0.00    +0.000 A 
ATOM      2  C   UNL     1       3.375   6.364  17.747  0.00  0.00    +0.000 A 
ATOM      3  C   UNL     1       2.565   7.014  18.681  0.00  0.00    +0.000 A 
ATOM      4  C   UNL     1       2.061   8.301  18.439  0.00  0.00    +0.000 A 
ATOM      5  C   UNL     1       1.374   9.004  19.435  0.00  0.00    +0.000 A 
ATOM      6  C   UNL     1       0.915  10.406  19.146  0.00  0.00    +0.000 C 
ATOM      7  C   UNL     1       1.181   8.393  20.685  0.00  0.00    +0.000 A 
ATOM      8  C   UNL     1       0.562   9.093  21.862  0.00  0.00    +0.000 C 
ATOM      9  C   UNL     1       1.622   7.069  20.875  0.00  0.00    +0.000 A 
ATOM     10  C   UNL     1       2.314   6.368  19.902  0.00  0.00    +0.000 A 
ATOM     11  N   UNL     1       2.757   5.131  20.171  0.00  0.00    +0.000 NA
ATOM     12  C   UNL     1       3.543   4.537  19.250  0.00  0.00    +0.000 A 
ATOM     13 CL   UNL     1       4.063   2.971  19.740  0.00  0.00    +0.000 Cl
ENDROOT
BRANCH   1  14
ATOM     14  C   UNL     1       4.979   4.532  17.159  0.00  0.00    +0.000 C 
BRANCH  14  18
ATOM     15  C   UNL     1       7.497   5.201  18.290  0.00  0.00    +0.000 C 
ATOM     16  C   UNL     1       7.118   5.761  16.932  0.00  0.00    +0.000 C 
ATOM     17  O   UNL     1       7.898   6.514  16.351  0.00  0.00    +0.000 OA
ATOM     18  N   UNL     1       5.875   5.410  16.415  0.00  0.00    +0.000 N 
BRANCH  18  19
ATOM     19  C   UNL     1       5.526   5.892  15.073  0.00  0.00    +0.000 C 
BRANCH  19  20
ATOM     20  C   UNL     1       5.876   4.890  14.006  0.00  0.00    +0.000 A 
ATOM     21  C   UNL     1       5.122   3.860  13.472  0.00  0.00    +0.000 A 
ATOM     22  C   UNL     1       5.822   3.134  12.463  0.00  0.00    +0.000 A 
ATOM     23  C   UNL     1       7.073   3.655  12.226  0.00  0.00    +0.000 A 
ATOM     24  S   UNL     1       7.400   5.007  13.217  0.00  0.00    +0.000 S 
ENDBRANCH  19  20
ENDBRANCH  18  19
ENDBRANCH  14  18
ENDBRANCH   1  14
TORSDOF 4
ENDMDL
MODEL 9
REMARK VINA RESULT:      -7.1      4.541      8.015
REMARK  Name = 
REMARK  7 active torsions:
REMARK  status: ('A' for Active; 'I' for Inactive)
REMARK    1  A    between atoms: C_1  and  C_2
REMARK    2  A    between atoms: N_4  and  C_5
REMARK    3  A    between atoms: N_4  and  C_11
REMARK    4  A    between atoms: C_5  and  C_6
REMARK    5  A    between atoms: C_11  and  C_12
REMARK    6  A    between atoms: C_16  and  C_17
REMARK    7  A    between atoms: C_18  and  C_19
REMARK                            x       y       z     vdW  Elec       q    Type
REMARK                         _______ _______ _______ _____ _____    ______ ____
ROOT
ATOM      1  C   UNL     1       1.505   9.170  19.059  0.00  0.00    +0.000 A 
ATOM      2  C   UNL     1       1.914   8.130  18.223  0.00  0.00    +0.000 A 
ATOM      3  C   UNL     1       2.066   6.839  18.735  0.00  0.00    +0.000 A 
ATOM      4  C   UNL     1       2.396   5.759  17.903  0.00  0.00    +0.000 A 
ATOM      5  C   UNL     1       2.404   4.449  18.395  0.00  0.00    +0.000 A 
ATOM      6  C   UNL     1       2.697   3.321  17.446  0.00  0.00    +0.000 C 
ATOM      7  C   UNL     1       2.089   4.230  19.746  0.00  0.00    +0.000 A 
ATOM      8  C   UNL     1       1.953   2.862  20.354  0.00  0.00    +0.000 C 
ATOM      9  C   UNL     1       1.844   5.338  20.580  0.00  0.00    +0.000 A 
ATOM     10  C   UNL     1       1.821   6.638  20.103  0.00  0.00    +0.000 A 
ATOM     11  N   UNL     1       1.523   7.643  20.940  0.00  0.00    +0.000 NA
ATOM     12  C   UNL     1       1.375   8.873  20.409  0.00  0.00    +0.000 A 
ATOM     13 CL   UNL     1       0.964  10.055  21.591  0.00  0.00    +0.000 Cl
ENDROOT
BRANCH   1  14
ATOM     14  C   UNL     1       1.114  10.491  18.473  0.00  0.00    +0.000 C 
BRANCH  14  18
ATOM     15  C   UNL     1       1.102  13.286  18.977  0.00  0.00    +0.000 C 
ATOM     16  C   UNL     1      -0.182  12.494  19.140  0.00  0.00    +0.000 C 
ATOM     17  O   UNL     1      -1.204  13.071  19.508  0.00  0.00    +0.000 OA
ATOM     18  N   UNL     1      -0.133  11.127  18.885  0.00  0.00    +0.000 N 
BRANCH  18  19
ATOM     19  C   UNL     1      -1.383  10.364  18.974  0.00  0.00    +0.000 C 
BRANCH  19  20
ATOM     20  C   UNL     1      -2.169  10.418  17.691  0.00  0.00    +0.000 A 
ATOM     21  C   UNL     1      -1.940   9.788  16.481  0.00  0.00    +0.000 A 
ATOM     22  C   UNL     1      -2.934  10.098  15.505  0.00  0.00    +0.000 A 
ATOM     23  C   UNL     1      -3.913  10.922  16.009  0.00  0.00    +0.000 A 
ATOM     24  S   UNL     1      -3.633  11.320  17.646  0.00  0.00    +0.000 S 
ENDBRANCH  19  20
ENDBRANCH  18  19
ENDBRANCH  14  18
ENDBRANCH   1  14
TORSDOF 4
ENDMDL
