MODEL 1
REMARK VINA RESULT:      -7.8      0.000      0.000
REMARK  Name = 
REMARK  3 active torsions:
REMARK  status: ('A' for Active; 'I' for Inactive)
REMARK    1  A    between atoms: N_7  and  C_8
REMARK    2  A    between atoms: C_15  and  C_16
REMARK    3  A    between atoms: C_22  and  C_23
REMARK                            x       y       z     vdW  Elec       q    Type
REMARK                         _______ _______ _______ _____ _____    ______ ____
ROOT
ATOM      1  O   UNL     1      -1.676  11.913  22.136  0.00  0.00    +0.000 OA
ATOM      2  C   UNL     1      -1.017  11.492  21.200  0.00  0.00    +0.000 C 
ATOM      3  N   UNL     1      -0.161  10.415  21.244  0.00  0.00    +0.000 N 
ATOM      4  N   UNL     1       0.542  10.232  20.051  0.00  0.00    +0.000 N 
ATOM      5  C   UNL     1       1.211   9.049  19.847  0.00  0.00    +0.000 C 
ATOM      6  O   UNL     1       1.172   8.179  20.722  0.00  0.00    +0.000 OA
ATOM      7  N   UNL     1       1.875   8.939  18.649  0.00  0.00    +0.000 N 
ATOM      8  C   UNL     1       0.292  11.417  19.219  0.00  0.00    +0.000 C 
ATOM      9  C   UNL     1      -1.030  12.010  19.775  0.00  0.00    +0.000 C 
ATOM     10  H   UNL     1       0.039   9.841  22.057  0.00  0.00    +0.000 HD
ATOM     11  H   UNL     1       2.131   9.808  18.201  0.00  0.00    +0.000 HD
ENDROOT
BRANCH   7  12
ATOM     12  C   UNL     1       2.535   7.774  18.194  0.00  0.00    +0.000 A 
ATOM     13  C   UNL     1       2.026   6.485  18.393  0.00  0.00    +0.000 A 
ATOM     14  C   UNL     1       2.745   5.357  17.986  0.00  0.00    +0.000 A 
ATOM     15  C   UNL     1       3.976   5.514  17.358  0.00  0.00    +0.000 A 
ATOM     16 BR   UNL     1       4.969   3.989  16.853  0.00  0.00    +0.000 Br
ATOM     17  C   UNL     1       4.477   6.790  17.108  0.00  0.00    +0.000 A 
ATOM     18  C   UNL     1       3.752   7.918  17.516  0.00  0.00    +0.000 A 
ENDBRANCH   7  12
BRANCH   8  19
ATOM     19  C   UNL     1       1.461  12.400  19.294  0.00  0.00    +0.000 A 
ATOM     20  C   UNL     1       1.861  12.922  20.534  0.00  0.00    +0.000 A 
ATOM     21  C   UNL     1       2.924  13.828  20.616  0.00  0.00    +0.000 A 
ATOM     22  C   UNL     1       3.606  14.219  19.465  0.00  0.00    +0.000 A 
ATOM     23  C   UNL     1       3.236  13.699  18.231  0.00  0.00    +0.000 A 
ATOM     24  C   UNL     1       2.177  12.794  18.147  0.00  0.00    +0.000 A 
ENDBRANCH   8  19
BRANCH   9  25
ATOM     25  C   UNL     1      -2.266  11.522  19.023  0.00  0.00    +0.000 A 
ATOM     26  C   UNL     1      -2.200  10.452  18.110  0.00  0.00    +0.000 A 
ATOM     27  C   UNL     1      -3.335  10.018  17.425  0.00  0.00    +0.000 A 
ATOM     28  C   UNL     1      -4.558  10.645  17.642  0.00  0.00    +0.000 A 
ATOM     29  C   UNL     1      -4.645  11.699  18.549  0.00  0.00    +0.000 A 
ATOM     30  C   UNL     1      -3.508  12.135  19.238  0.00  0.00    +0.000 A 
ENDBRANCH   9  25
TORSDOF 3
ENDMDL
MODEL 2
REMARK VINA RESULT:      -7.7      0.187      1.300
REMARK  Name = 
REMARK  3 active torsions:
REMARK  status: ('A' for Active; 'I' for Inactive)
REMARK    1  A    between atoms: N_7  and  C_8
REMARK    2  A    between atoms: C_15  and  C_16
REMARK    3  A    between atoms: C_22  and  C_23
REMARK                            x       y       z     vdW  Elec       q    Type
REMARK                         _______ _______ _______ _____ _____    ______ ____
ROOT
ATOM      1  O   UNL     1      -1.768  11.887  21.956  0.00  0.00    +0.000 OA
ATOM      2  C   UNL     1      -1.061  11.468  21.055  0.00  0.00    +0.000 C 
ATOM      3  N   UNL     1      -0.195  10.402  21.146  0.00  0.00    +0.000 N 
ATOM      4  N   UNL     1       0.564  10.220  19.989  0.00  0.00    +0.000 N 
ATOM      5  C   UNL     1       1.256   9.044  19.824  0.00  0.00    +0.000 C 
ATOM      6  O   UNL     1       1.187   8.178  20.702  0.00  0.00    +0.000 OA
ATOM      7  N   UNL     1       1.977   8.934  18.659  0.00  0.00    +0.000 N 
ATOM      8  C   UNL     1       0.340  11.395  19.137  0.00  0.00    +0.000 C 
ATOM      9  C   UNL     1      -1.014  11.976  19.627  0.00  0.00    +0.000 C 
ATOM     10  H   UNL     1      -0.026   9.836  21.972  0.00  0.00    +0.000 HD
ATOM     11  H   UNL     1       2.242   9.803  18.217  0.00  0.00    +0.000 HD
ENDROOT
BRANCH   7  12
ATOM     12  C   UNL     1       2.671   7.773  18.243  0.00  0.00    +0.000 A 
ATOM     13  C   UNL     1       3.875   7.821  17.532  0.00  0.00    +0.000 A 
ATOM     14  C   UNL     1       4.492   6.650  17.081  0.00  0.00    +0.000 A 
ATOM     15  C   UNL     1       3.913   5.417  17.357  0.00  0.00    +0.000 A 
ATOM     16 BR   UNL     1       4.719   3.838  16.707  0.00  0.00    +0.000 Br
ATOM     17  C   UNL     1       2.739   5.346  18.105  0.00  0.00    +0.000 A 
ATOM     18  C   UNL     1       2.126   6.522  18.557  0.00  0.00    +0.000 A 
ENDBRANCH   7  12
BRANCH   8  19
ATOM     19  C   UNL     1       1.492  12.394  19.259  0.00  0.00    +0.000 A 
ATOM     20  C   UNL     1       1.814  12.946  20.509  0.00  0.00    +0.000 A 
ATOM     21  C   UNL     1       2.861  13.865  20.633  0.00  0.00    +0.000 A 
ATOM     22  C   UNL     1       3.605  14.240  19.517  0.00  0.00    +0.000 A 
ATOM     23  C   UNL     1       3.313  13.690  18.275  0.00  0.00    +0.000 A 
ATOM     24  C   UNL     1       2.271  12.771  18.148  0.00  0.00    +0.000 A 
ENDBRANCH   8  19
BRANCH   9  25
ATOM     25  C   UNL     1      -2.207  11.468  18.822  0.00  0.00    +0.000 A 
ATOM     26  C   UNL     1      -3.487  12.037  18.961  0.00  0.00    +0.000 A 
ATOM     27  C   UNL     1      -4.572  11.562  18.224  0.00  0.00    +0.000 A 
ATOM     28  C   UNL     1      -4.396  10.509  17.332  0.00  0.00    +0.000 A 
ATOM     29  C   UNL     1      -3.134   9.940  17.173  0.00  0.00    +0.000 A 
ATOM     30  C   UNL     1      -2.045  10.416  17.910  0.00  0.00    +0.000 A 
ENDBRANCH   9  25
TORSDOF 3
ENDMDL
MODEL 3
REMARK VINA RESULT:      -7.6      0.773      1.207
REMARK  Name = 
REMARK  3 active torsions:
REMARK  status: ('A' for Active; 'I' for Inactive)
REMARK    1  A    between atoms: N_7  and  C_8
REMARK    2  A    between atoms: C_15  and  C_16
REMARK    3  A    between atoms: C_22  and  C_23
REMARK                            x       y       z     vdW  Elec       q    Type
REMARK                         _______ _______ _______ _____ _____    ______ ____
ROOT
ATOM      1  O   UNL     1      -2.191  12.515  22.004  0.00  0.00    +0.000 OA
ATOM      2  C   UNL     1      -1.461  11.955  21.203  0.00  0.00    +0.000 C 
ATOM      3  N   UNL     1      -0.650  10.876  21.477  0.00  0.00    +0.000 N 
ATOM      4  N   UNL     1       0.155  10.515  20.394  0.00  0.00    +0.000 N 
ATOM      5  C   UNL     1       0.799   9.301  20.419  0.00  0.00    +0.000 C 
ATOM      6  O   UNL     1       0.647   8.561  21.395  0.00  0.00    +0.000 OA
ATOM      7  N   UNL     1       1.569   9.013  19.318  0.00  0.00    +0.000 N 
ATOM      8  C   UNL     1       0.025  11.578  19.389  0.00  0.00    +0.000 C 
ATOM      9  C   UNL     1      -1.322  12.270  19.727  0.00  0.00    +0.000 C 
ATOM     10  H   UNL     1      -0.548  10.416  22.376  0.00  0.00    +0.000 HD
ATOM     11  H   UNL     1       1.895   9.805  18.783  0.00  0.00    +0.000 HD
ENDROOT
BRANCH   7  12
ATOM     12  C   UNL     1       2.228   7.781  19.092  0.00  0.00    +0.000 A 
ATOM     13  C   UNL     1       2.157   6.706  19.984  0.00  0.00    +0.000 A 
ATOM     14  C   UNL     1       2.879   5.531  19.755  0.00  0.00    +0.000 A 
ATOM     15  C   UNL     1       3.667   5.419  18.614  0.00  0.00    +0.000 A 
ATOM     16 BR   UNL     1       4.681   3.852  18.328  0.00  0.00    +0.000 Br
ATOM     17  C   UNL     1       3.713   6.460  17.689  0.00  0.00    +0.000 A 
ATOM     18  C   UNL     1       2.985   7.635  17.923  0.00  0.00    +0.000 A 
ENDBRANCH   7  12
BRANCH   8  19
ATOM     19  C   UNL     1       1.215  12.538  19.444  0.00  0.00    +0.000 A 
ATOM     20  C   UNL     1       1.803  12.997  18.255  0.00  0.00    +0.000 A 
ATOM     21  C   UNL     1       2.896  13.869  18.291  0.00  0.00    +0.000 A 
ATOM     22  C   UNL     1       3.413  14.300  19.511  0.00  0.00    +0.000 A 
ATOM     23  C   UNL     1       2.832  13.871  20.698  0.00  0.00    +0.000 A 
ATOM     24  C   UNL     1       1.740  13.003  20.665  0.00  0.00    +0.000 A 
ENDBRANCH   8  19
BRANCH   9  25
ATOM     25  C   UNL     1      -2.497  11.710  18.930  0.00  0.00    +0.000 A 
ATOM     26  C   UNL     1      -2.318  10.717  17.949  0.00  0.00    +0.000 A 
ATOM     27  C   UNL     1      -3.399  10.215  17.224  0.00  0.00    +0.000 A 
ATOM     28  C   UNL     1      -4.681  10.697  17.468  0.00  0.00    +0.000 A 
ATOM     29  C   UNL     1      -4.880  11.673  18.443  0.00  0.00    +0.000 A 
ATOM     30  C   UNL     1      -3.797  12.176  19.172  0.00  0.00    +0.000 A 
ENDBRANCH   9  25
TORSDOF 3
ENDMDL
MODEL 4
REMARK VINA RESULT:      -7.6      0.219      1.305
REMARK  Name = 
REMARK  3 active torsions:
REMARK  status: ('A' for Active; 'I' for Inactive)
REMARK    1  A    between atoms: N_7  and  C_8
REMARK    2  A    between atoms: C_15  and  C_16
REMARK    3  A    between atoms: C_22  and  C_23
REMARK                            x       y       z     vdW  Elec       q    Type
REMARK                         _______ _______ _______ _____ _____    ______ ____
ROOT
ATOM      1  O   UNL     1      -1.839  11.955  21.875  0.00  0.00    +0.000 OA
ATOM      2  C   UNL     1      -1.123  11.528  20.986  0.00  0.00    +0.000 C 
ATOM      3  N   UNL     1      -0.259  10.462  21.097  0.00  0.00    +0.000 N 
ATOM      4  N   UNL     1       0.513  10.267  19.949  0.00  0.00    +0.000 N 
ATOM      5  C   UNL     1       1.205   9.089  19.804  0.00  0.00    +0.000 C 
ATOM      6  O   UNL     1       1.126   8.233  20.689  0.00  0.00    +0.000 OA
ATOM      7  N   UNL     1       1.938   8.967  18.647  0.00  0.00    +0.000 N 
ATOM      8  C   UNL     1       0.298  11.435  19.084  0.00  0.00    +0.000 C 
ATOM      9  C   UNL     1      -1.060  12.021  19.553  0.00  0.00    +0.000 C 
ATOM     10  H   UNL     1      -0.099   9.903  21.930  0.00  0.00    +0.000 HD
ATOM     11  H   UNL     1       2.209   9.831  18.199  0.00  0.00    +0.000 HD
ENDROOT
BRANCH   7  12
ATOM     12  C   UNL     1       2.635   7.802  18.250  0.00  0.00    +0.000 A 
ATOM     13  C   UNL     1       3.863   7.841  17.580  0.00  0.00    +0.000 A 
ATOM     14  C   UNL     1       4.484   6.667  17.145  0.00  0.00    +0.000 A 
ATOM     15  C   UNL     1       3.885   5.438  17.397  0.00  0.00    +0.000 A 
ATOM     16 BR   UNL     1       4.699   3.854  16.767  0.00  0.00    +0.000 Br
ATOM     17  C   UNL     1       2.686   5.374  18.104  0.00  0.00    +0.000 A 
ATOM     18  C   UNL     1       2.068   6.554  18.540  0.00  0.00    +0.000 A 
ENDBRANCH   7  12
BRANCH   8  19
ATOM     19  C   UNL     1       1.450  12.433  19.208  0.00  0.00    +0.000 A 
ATOM     20  C   UNL     1       2.100  12.902  18.056  0.00  0.00    +0.000 A 
ATOM     21  C   UNL     1       3.160  13.809  18.156  0.00  0.00    +0.000 A 
ATOM     22  C   UNL     1       3.579  14.268  19.403  0.00  0.00    +0.000 A 
ATOM     23  C   UNL     1       2.935  13.830  20.553  0.00  0.00    +0.000 A 
ATOM     24  C   UNL     1       1.876  12.925  20.456  0.00  0.00    +0.000 A 
ENDBRANCH   8  19
BRANCH   9  25
ATOM     25  C   UNL     1      -2.246  11.507  18.741  0.00  0.00    +0.000 A 
ATOM     26  C   UNL     1      -2.097  10.488  17.781  0.00  0.00    +0.000 A 
ATOM     27  C   UNL     1      -3.186  10.029  17.041  0.00  0.00    +0.000 A 
ATOM     28  C   UNL     1      -4.447  10.579  17.249  0.00  0.00    +0.000 A 
ATOM     29  C   UNL     1      -4.616  11.581  18.202  0.00  0.00    +0.000 A 
ATOM     30  C   UNL     1      -3.525  12.042  18.946  0.00  0.00    +0.000 A 
ENDBRANCH   9  25
TORSDOF 3
ENDMDL
MODEL 5
REMARK VINA RESULT:      -7.6      0.856      1.732
REMARK  Name = 
REMARK  3 active torsions:
REMARK  status: ('A' for Active; 'I' for Inactive)
REMARK    1  A    between atoms: N_7  and  C_8
REMARK    2  A    between atoms: C_15  and  C_16
REMARK    3  A    between atoms: C_22  and  C_23
REMARK                            x       y       z     vdW  Elec       q    Type
REMARK                         _______ _______ _______ _____ _____    ______ ____
ROOT
ATOM      1  O   UNL     1      -2.349  12.444  21.505  0.00  0.00    +0.000 OA
ATOM      2  C   UNL     1      -1.539  11.910  20.766  0.00  0.00    +0.000 C 
ATOM      3  N   UNL     1      -0.757  10.824  21.088  0.00  0.00    +0.000 N 
ATOM      4  N   UNL     1       0.157  10.498  20.083  0.00  0.00    +0.000 N 
ATOM      5  C   UNL     1       0.799   9.284  20.136  0.00  0.00    +0.000 C 
ATOM      6  O   UNL     1       0.550   8.513  21.067  0.00  0.00    +0.000 OA
ATOM      7  N   UNL     1       1.680   9.031  19.111  0.00  0.00    +0.000 N 
ATOM      8  C   UNL     1       0.128  11.592  19.104  0.00  0.00    +0.000 C 
ATOM      9  C   UNL     1      -1.249  12.273  19.323  0.00  0.00    +0.000 C 
ATOM     10  H   UNL     1      -0.747  10.335  21.977  0.00  0.00    +0.000 HD
ATOM     11  H   UNL     1       2.057   9.840  18.639  0.00  0.00    +0.000 HD
ENDROOT
BRANCH   7  12
ATOM     12  C   UNL     1       2.363   7.807  18.915  0.00  0.00    +0.000 A 
ATOM     13  C   UNL     1       3.159   7.552  17.793  0.00  0.00    +0.000 A 
ATOM     14  C   UNL     1       3.761   6.304  17.606  0.00  0.00    +0.000 A 
ATOM     15  C   UNL     1       3.584   5.305  18.557  0.00  0.00    +0.000 A 
ATOM     16 BR   UNL     1       4.356   3.604  18.281  0.00  0.00    +0.000 Br
ATOM     17  C   UNL     1       2.834   5.555  19.704  0.00  0.00    +0.000 A 
ATOM     18  C   UNL     1       2.235   6.808  19.889  0.00  0.00    +0.000 A 
ENDBRANCH   7  12
BRANCH   8  19
ATOM     19  C   UNL     1       1.303  12.550  19.312  0.00  0.00    +0.000 A 
ATOM     20  C   UNL     1       2.063  12.978  18.213  0.00  0.00    +0.000 A 
ATOM     21  C   UNL     1       3.144  13.848  18.390  0.00  0.00    +0.000 A 
ATOM     22  C   UNL     1       3.476  14.308  19.663  0.00  0.00    +0.000 A 
ATOM     23  C   UNL     1       2.724  13.910  20.760  0.00  0.00    +0.000 A 
ATOM     24  C   UNL     1       1.644  13.043  20.586  0.00  0.00    +0.000 A 
ENDBRANCH   8  19
BRANCH   9  25
ATOM     25  C   UNL     1      -2.334  11.738  18.392  0.00  0.00    +0.000 A 
ATOM     26  C   UNL     1      -3.702  11.916  18.673  0.00  0.00    +0.000 A 
ATOM     27  C   UNL     1      -4.685  11.419  17.817  0.00  0.00    +0.000 A 
ATOM     28  C   UNL     1      -4.318  10.734  16.663  0.00  0.00    +0.000 A 
ATOM     29  C   UNL     1      -2.969  10.556  16.363  0.00  0.00    +0.000 A 
ATOM     30  C   UNL     1      -1.982  11.056  17.219  0.00  0.00    +0.000 A 
ENDBRANCH   9  25
TORSDOF 3
ENDMDL
MODEL 6
REMARK VINA RESULT:      -7.4      1.156      1.215
REMARK  Name = 
REMARK  3 active torsions:
REMARK  status: ('A' for Active; 'I' for Inactive)
REMARK    1  A    between atoms: N_7  and  C_8
REMARK    2  A    between atoms: C_15  and  C_16
REMARK    3  A    between atoms: C_22  and  C_23
REMARK                            x       y       z     vdW  Elec       q    Type
REMARK                         _______ _______ _______ _____ _____    ______ ____
ROOT
ATOM      1  O   UNL     1      -2.240  13.095  21.939  0.00  0.00    +0.000 OA
ATOM      2  C   UNL     1      -1.585  12.485  21.111  0.00  0.00    +0.000 C 
ATOM      3  N   UNL     1      -0.687  11.478  21.384  0.00  0.00    +0.000 N 
ATOM      4  N   UNL     1      -0.004  11.039  20.248  0.00  0.00    +0.000 N 
ATOM      5  C   UNL     1       0.706   9.864  20.311  0.00  0.00    +0.000 C 
ATOM      6  O   UNL     1       0.720   9.226  21.367  0.00  0.00    +0.000 OA
ATOM      7  N   UNL     1       1.348   9.493  19.154  0.00  0.00    +0.000 N 
ATOM      8  C   UNL     1      -0.317  11.981  19.166  0.00  0.00    +0.000 C 
ATOM      9  C   UNL     1      -1.649  12.647  19.604  0.00  0.00    +0.000 C 
ATOM     10  H   UNL     1      -0.448  11.121  22.304  0.00  0.00    +0.000 HD
ATOM     11  H   UNL     1       1.560  10.237  18.504  0.00  0.00    +0.000 HD
ENDROOT
BRANCH   7  12
ATOM     12  C   UNL     1       2.043   8.274  18.969  0.00  0.00    +0.000 A 
ATOM     13  C   UNL     1       1.976   7.215  19.881  0.00  0.00    +0.000 A 
ATOM     14  C   UNL     1       2.733   6.054  19.693  0.00  0.00    +0.000 A 
ATOM     15  C   UNL     1       3.551   5.940  18.574  0.00  0.00    +0.000 A 
ATOM     16 BR   UNL     1       4.611   4.393  18.345  0.00  0.00    +0.000 Br
ATOM     17  C   UNL     1       3.595   6.963  17.630  0.00  0.00    +0.000 A 
ATOM     18  C   UNL     1       2.833   8.124  17.822  0.00  0.00    +0.000 A 
ENDBRANCH   7  12
BRANCH   8  19
ATOM     19  C   UNL     1       0.814  12.992  18.969  0.00  0.00    +0.000 A 
ATOM     20  C   UNL     1       0.615  14.342  19.299  0.00  0.00    +0.000 A 
ATOM     21  C   UNL     1       1.638  15.278  19.118  0.00  0.00    +0.000 A 
ATOM     22  C   UNL     1       2.875  14.880  18.614  0.00  0.00    +0.000 A 
ATOM     23  C   UNL     1       3.097  13.545  18.299  0.00  0.00    +0.000 A 
ATOM     24  C   UNL     1       2.078  12.609  18.481  0.00  0.00    +0.000 A 
ENDBRANCH   8  19
BRANCH   9  25
ATOM     25  C   UNL     1      -2.881  11.954  19.028  0.00  0.00    +0.000 A 
ATOM     26  C   UNL     1      -2.771  10.934  18.064  0.00  0.00    +0.000 A 
ATOM     27  C   UNL     1      -3.904  10.311  17.540  0.00  0.00    +0.000 A 
ATOM     28  C   UNL     1      -5.169  10.696  17.973  0.00  0.00    +0.000 A 
ATOM     29  C   UNL     1      -5.297  11.696  18.933  0.00  0.00    +0.000 A 
ATOM     30  C   UNL     1      -4.163  12.321  19.460  0.00  0.00    +0.000 A 
ENDBRANCH   9  25
TORSDOF 3
ENDMDL
MODEL 7
REMARK VINA RESULT:      -7.4      2.554      4.976
REMARK  Name = 
REMARK  3 active torsions:
REMARK  status: ('A' for Active; 'I' for Inactive)
REMARK    1  A    between atoms: N_7  and  C_8
REMARK    2  A    between atoms: C_15  and  C_16
REMARK    3  A    between atoms: C_22  and  C_23
REMARK                            x       y       z     vdW  Elec       q    Type
REMARK                         _______ _______ _______ _____ _____    ______ ____
ROOT
ATOM      1  O   UNL     1      -0.416  14.290  18.175  0.00  0.00    +0.000 OA
ATOM      2  C   UNL     1       0.157  13.342  18.684  0.00  0.00    +0.000 C 
ATOM      3  N   UNL     1       0.119  12.044  18.227  0.00  0.00    +0.000 N 
ATOM      4  N   UNL     1       0.780  11.152  19.073  0.00  0.00    +0.000 N 
ATOM      5  C   UNL     1       1.069   9.889  18.615  0.00  0.00    +0.000 C 
ATOM      6  O   UNL     1       0.739   9.576  17.467  0.00  0.00    +0.000 OA
ATOM      7  N   UNL     1       1.725   9.068  19.501  0.00  0.00    +0.000 N 
ATOM      8  C   UNL     1       1.098  11.884  20.306  0.00  0.00    +0.000 C 
ATOM      9  C   UNL     1       1.080  13.378  19.886  0.00  0.00    +0.000 C 
ATOM     10  H   UNL     1      -0.394  11.708  17.418  0.00  0.00    +0.000 HD
ATOM     11  H   UNL     1       1.617   9.294  20.480  0.00  0.00    +0.000 HD
ENDROOT
BRANCH   7  12
ATOM     12  C   UNL     1       2.208   7.773  19.200  0.00  0.00    +0.000 A 
ATOM     13  C   UNL     1       2.979   7.494  18.065  0.00  0.00    +0.000 A 
ATOM     14  C   UNL     1       3.378   6.187  17.770  0.00  0.00    +0.000 A 
ATOM     15  C   UNL     1       3.022   5.149  18.623  0.00  0.00    +0.000 A 
ATOM     16 BR   UNL     1       3.519   3.377  18.199  0.00  0.00    +0.000 Br
ATOM     17  C   UNL     1       2.296   5.413  19.783  0.00  0.00    +0.000 A 
ATOM     18  C   UNL     1       1.900   6.725  20.076  0.00  0.00    +0.000 A 
ENDBRANCH   7  12
BRANCH   8  19
ATOM     19  C   UNL     1       0.090  11.566  21.412  0.00  0.00    +0.000 A 
ATOM     20  C   UNL     1       0.139  10.329  22.074  0.00  0.00    +0.000 A 
ATOM     21  C   UNL     1      -0.781  10.024  23.082  0.00  0.00    +0.000 A 
ATOM     22  C   UNL     1      -1.757  10.948  23.448  0.00  0.00    +0.000 A 
ATOM     23  C   UNL     1      -1.810  12.185  22.817  0.00  0.00    +0.000 A 
ATOM     24  C   UNL     1      -0.891  12.493  21.813  0.00  0.00    +0.000 A 
ENDBRANCH   8  19
BRANCH   9  25
ATOM     25  C   UNL     1       2.460  13.907  19.506  0.00  0.00    +0.000 A 
ATOM     26  C   UNL     1       2.894  13.943  18.167  0.00  0.00    +0.000 A 
ATOM     27  C   UNL     1       4.159  14.425  17.831  0.00  0.00    +0.000 A 
ATOM     28  C   UNL     1       5.014  14.882  18.829  0.00  0.00    +0.000 A 
ATOM     29  C   UNL     1       4.599  14.863  20.159  0.00  0.00    +0.000 A 
ATOM     30  C   UNL     1       3.330  14.382  20.497  0.00  0.00    +0.000 A 
ENDBRANCH   9  25
TORSDOF 3
ENDMDL
MODEL 8
REMARK VINA RESULT:      -7.3      1.074      1.661
REMARK  Name = 
REMARK  3 active torsions:
REMARK  status: ('A' for Active; 'I' for Inactive)
REMARK    1  A    between atoms: N_7  and  C_8
REMARK    2  A    between atoms: C_15  and  C_16
REMARK    3  A    between atoms: C_22  and  C_23
REMARK                            x       y       z     vdW  Elec       q    Type
REMARK                         _______ _______ _______ _____ _____    ______ ____
ROOT
ATOM      1  O   UNL     1      -2.155  13.000  21.892  0.00  0.00    +0.000 OA
ATOM      2  C   UNL     1      -1.498  12.390  21.066  0.00  0.00    +0.000 C 
ATOM      3  N   UNL     1      -0.598  11.386  21.342  0.00  0.00    +0.000 N 
ATOM      4  N   UNL     1       0.088  10.946  20.208  0.00  0.00    +0.000 N 
ATOM      5  C   UNL     1       0.801   9.772  20.275  0.00  0.00    +0.000 C 
ATOM      6  O   UNL     1       0.814   9.137  21.333  0.00  0.00    +0.000 OA
ATOM      7  N   UNL     1       1.446   9.400  19.120  0.00  0.00    +0.000 N 
ATOM      8  C   UNL     1      -0.226  11.885  19.124  0.00  0.00    +0.000 C 
ATOM      9  C   UNL     1      -1.560  12.548  19.559  0.00  0.00    +0.000 C 
ATOM     10  H   UNL     1      -0.359  11.032  22.263  0.00  0.00    +0.000 HD
ATOM     11  H   UNL     1       1.657  10.144  18.469  0.00  0.00    +0.000 HD
ENDROOT
BRANCH   7  12
ATOM     12  C   UNL     1       2.143   8.183  18.938  0.00  0.00    +0.000 A 
ATOM     13  C   UNL     1       2.947   7.926  17.822  0.00  0.00    +0.000 A 
ATOM     14  C   UNL     1       3.564   6.683  17.650  0.00  0.00    +0.000 A 
ATOM     15  C   UNL     1       3.393   5.691  18.609  0.00  0.00    +0.000 A 
ATOM     16 BR   UNL     1       4.186   3.996  18.353  0.00  0.00    +0.000 Br
ATOM     17  C   UNL     1       2.636   5.944  19.751  0.00  0.00    +0.000 A 
ATOM     18  C   UNL     1       2.021   7.192  19.920  0.00  0.00    +0.000 A 
ENDBRANCH   7  12
BRANCH   8  19
ATOM     19  C   UNL     1       0.904  12.898  18.927  0.00  0.00    +0.000 A 
ATOM     20  C   UNL     1       0.741  14.224  19.359  0.00  0.00    +0.000 A 
ATOM     21  C   UNL     1       1.763  15.162  19.179  0.00  0.00    +0.000 A 
ATOM     22  C   UNL     1       2.962  14.790  18.574  0.00  0.00    +0.000 A 
ATOM     23  C   UNL     1       3.148  13.478  18.157  0.00  0.00    +0.000 A 
ATOM     24  C   UNL     1       2.131  12.540  18.337  0.00  0.00    +0.000 A 
ENDBRANCH   8  19
BRANCH   9  25
ATOM     25  C   UNL     1      -2.789  11.851  18.982  0.00  0.00    +0.000 A 
ATOM     26  C   UNL     1      -4.094  12.248  19.329  0.00  0.00    +0.000 A 
ATOM     27  C   UNL     1      -5.210  11.601  18.799  0.00  0.00    +0.000 A 
ATOM     28  C   UNL     1      -5.041  10.544  17.909  0.00  0.00    +0.000 A 
ATOM     29  C   UNL     1      -3.757  10.144  17.546  0.00  0.00    +0.000 A 
ATOM     30  C   UNL     1      -2.637  10.792  18.075  0.00  0.00    +0.000 A 
ENDBRANCH   9  25
TORSDOF 3
ENDMDL
MODEL 9
REMARK VINA RESULT:      -7.3      2.348      4.633
REMARK  Name = 
REMARK  3 active torsions:
REMARK  status: ('A' for Active; 'I' for Inactive)
REMARK    1  A    between atoms: N_7  and  C_8
REMARK    2  A    between atoms: C_15  and  C_16
REMARK    3  A    between atoms: C_22  and  C_23
REMARK                            x       y       z     vdW  Elec       q    Type
REMARK                         _______ _______ _______ _____ _____    ______ ____
ROOT
ATOM      1  O   UNL     1      -0.630  14.943  18.450  0.00  0.00    +0.000 OA
ATOM      2  C   UNL     1      -0.599  13.740  18.646  0.00  0.00    +0.000 C 
ATOM      3  N   UNL     1       0.429  12.897  18.291  0.00  0.00    +0.000 N 
ATOM      4  N   UNL     1       0.141  11.554  18.542  0.00  0.00    +0.000 N 
ATOM      5  C   UNL     1       1.163  10.636  18.507  0.00  0.00    +0.000 C 
ATOM      6  O   UNL     1       2.308  11.021  18.256  0.00  0.00    +0.000 OA
ATOM      7  N   UNL     1       0.804   9.335  18.769  0.00  0.00    +0.000 N 
ATOM      8  C   UNL     1      -1.284  11.479  18.893  0.00  0.00    +0.000 C 
ATOM      9  C   UNL     1      -1.642  12.911  19.370  0.00  0.00    +0.000 C 
ATOM     10  H   UNL     1       1.285  13.164  17.815  0.00  0.00    +0.000 HD
ATOM     11  H   UNL     1      -0.164   9.098  18.602  0.00  0.00    +0.000 HD
ENDROOT
BRANCH   7  12
ATOM     12  C   UNL     1       1.709   8.254  18.887  0.00  0.00    +0.000 A 
ATOM     13  C   UNL     1       2.568   7.865  17.853  0.00  0.00    +0.000 A 
ATOM     14  C   UNL     1       3.399   6.748  17.989  0.00  0.00    +0.000 A 
ATOM     15  C   UNL     1       3.387   6.022  19.174  0.00  0.00    +0.000 A 
ATOM     16 BR   UNL     1       4.471   4.485  19.340  0.00  0.00    +0.000 Br
ATOM     17  C   UNL     1       2.574   6.421  20.233  0.00  0.00    +0.000 A 
ATOM     18  C   UNL     1       1.745   7.543  20.093  0.00  0.00    +0.000 A 
ENDBRANCH   7  12
BRANCH   8  19
ATOM     19  C   UNL     1      -2.123  11.024  17.698  0.00  0.00    +0.000 A 
ATOM     20  C   UNL     1      -3.358  11.636  17.433  0.00  0.00    +0.000 A 
ATOM     21  C   UNL     1      -4.139  11.225  16.348  0.00  0.00    +0.000 A 
ATOM     22  C   UNL     1      -3.695  10.205  15.508  0.00  0.00    +0.000 A 
ATOM     23  C   UNL     1      -2.467   9.601  15.742  0.00  0.00    +0.000 A 
ATOM     24  C   UNL     1      -1.685  10.010  16.824  0.00  0.00    +0.000 A 
ENDBRANCH   8  19
BRANCH   9  25
ATOM     25  C   UNL     1      -1.530  13.083  20.882  0.00  0.00    +0.000 A 
ATOM     26  C   UNL     1      -1.632  14.347  21.492  0.00  0.00    +0.000 A 
ATOM     27  C   UNL     1      -1.523  14.493  22.875  0.00  0.00    +0.000 A 
ATOM     28  C   UNL     1      -1.311  13.374  23.675  0.00  0.00    +0.000 A 
ATOM     29  C   UNL     1      -1.217  12.113  23.091  0.00  0.00    +0.000 A 
ATOM     30  C   UNL     1      -1.327  11.965  21.705  0.00  0.00    +0.000 A 
ENDBRANCH   9  25
TORSDOF 3
ENDMDL
