MODEL 1
REMARK VINA RESULT:      -8.8      0.000      0.000
REMARK  Name = 
REMARK  7 active torsions:
REMARK  status: ('A' for Active; 'I' for Inactive)
REMARK    1  A    between atoms: C_1  and  C_2
REMARK    2  A    between atoms: N_4  and  C_5
REMARK    3  A    between atoms: C_9  and  N_10
REMARK    4  A    between atoms: C_15  and  N_16
REMARK    5  A    between atoms: N_16  and  C_17
REMARK    6  A    between atoms: C_20  and  O_21
REMARK    7  A    between atoms: O_21  and  C_22
REMARK                            x       y       z     vdW  Elec       q    Type
REMARK                         _______ _______ _______ _____ _____    ______ ____
ROOT
ATOM      1  N   UNL     1      -4.149  11.066  18.232  0.00  0.00    +0.000 N 
ATOM      2  C   UNL     1      -2.961  11.573  18.757  0.00  0.00    +0.000 A 
ATOM      3  N   UNL     1      -2.999  12.491  19.734  0.00  0.00    +0.000 NA
ATOM      4  C   UNL     1      -1.831  12.909  20.225  0.00  0.00    +0.000 A 
ATOM      5  C   UNL     1      -0.621  12.459  19.761  0.00  0.00    +0.000 A 
ATOM      6  C   UNL     1      -0.661  11.520  18.748  0.00  0.00    +0.000 A 
ATOM      7  N   UNL     1      -1.828  11.077  18.253  0.00  0.00    +0.000 NA
ATOM      8  H   UNL     1      -3.959  10.493  17.422  0.00  0.00    +0.000 HD
ENDROOT
BRANCH   1  13
ATOM      9  C   UNL     1      -6.913  13.428  17.422  0.00  0.00    +0.000 A 
ATOM     10  C   UNL     1      -7.832  13.072  18.407  0.00  0.00    +0.000 A 
ATOM     11  C   UNL     1      -7.560  12.023  19.282  0.00  0.00    +0.000 A 
ATOM     12  C   UNL     1      -6.350  11.335  19.199  0.00  0.00    +0.000 A 
ATOM     13  C   UNL     1      -5.397  11.702  18.247  0.00  0.00    +0.000 A 
ATOM     14  C   UNL     1      -5.716  12.714  17.329  0.00  0.00    +0.000 A 
BRANCH   9  18
ATOM     15  C   UNL     1      -7.362  16.686  15.587  0.00  0.00    +0.000 C 
ATOM     16  C   UNL     1      -7.044  15.833  16.785  0.00  0.00    +0.000 C 
ATOM     17  O   UNL     1      -6.759  16.344  17.861  0.00  0.00    +0.000 OA
ATOM     18  N   UNL     1      -7.111  14.479  16.504  0.00  0.00    +0.000 N 
ATOM     19  H   UNL     1      -7.179  14.217  15.528  0.00  0.00    +0.000 HD
ENDBRANCH   9  18
ENDBRANCH   1  13
BRANCH   6  20
ATOM     20  N   UNL     1       0.563  10.948  18.351  0.00  0.00    +0.000 N 
ATOM     21  H   UNL     1       0.866  11.280  17.445  0.00  0.00    +0.000 HD
BRANCH  20  22
ATOM     22  C   UNL     1       1.161   9.717  18.677  0.00  0.00    +0.000 A 
ATOM     23  C   UNL     1       1.083   9.115  19.935  0.00  0.00    +0.000 A 
ATOM     24  C   UNL     1       1.742   7.916  20.206  0.00  0.00    +0.000 A 
ATOM     25  C   UNL     1       2.524   7.314  19.228  0.00  0.00    +0.000 A 
ATOM     26  C   UNL     1       2.706   7.958  18.004  0.00  0.00    +0.000 A 
ATOM     27  C   UNL     1       2.003   9.131  17.722  0.00  0.00    +0.000 A 
BRANCH  25  28
ATOM     28  O   UNL     1       3.120   6.126  19.573  0.00  0.00    +0.000 OA
BRANCH  28  29
ATOM     29  C   UNL     1       2.374   4.970  19.588  0.00  0.00    +0.000 A 
ATOM     30  C   UNL     1       2.132   4.395  18.339  0.00  0.00    +0.000 A 
ATOM     31  C   UNL     1       1.360   3.236  18.241  0.00  0.00    +0.000 A 
ATOM     32  C   UNL     1       0.829   2.652  19.390  0.00  0.00    +0.000 A 
ATOM     33  C   UNL     1       1.102   3.201  20.643  0.00  0.00    +0.000 A 
ATOM     34  C   UNL     1       1.901   4.340  20.743  0.00  0.00    +0.000 A 
ENDBRANCH  28  29
ENDBRANCH  25  28
ENDBRANCH  20  22
ENDBRANCH   6  20
TORSDOF 6
ENDMDL
MODEL 2
REMARK VINA RESULT:      -8.5      4.575     11.536
REMARK  Name = 
REMARK  7 active torsions:
REMARK  status: ('A' for Active; 'I' for Inactive)
REMARK    1  A    between atoms: C_1  and  C_2
REMARK    2  A    between atoms: N_4  and  C_5
REMARK    3  A    between atoms: C_9  and  N_10
REMARK    4  A    between atoms: C_15  and  N_16
REMARK    5  A    between atoms: N_16  and  C_17
REMARK    6  A    between atoms: C_20  and  O_21
REMARK    7  A    between atoms: O_21  and  C_22
REMARK                            x       y       z     vdW  Elec       q    Type
REMARK                         _______ _______ _______ _____ _____    ______ ____
ROOT
ATOM      1  N   UNL     1       4.081   5.476  19.265  0.00  0.00    +0.000 N 
ATOM      2  C   UNL     1       3.257   6.595  19.166  0.00  0.00    +0.000 A 
ATOM      3  N   UNL     1       3.236   7.313  18.032  0.00  0.00    +0.000 NA
ATOM      4  C   UNL     1       2.398   8.350  17.981  0.00  0.00    +0.000 A 
ATOM      5  C   UNL     1       1.590   8.711  19.030  0.00  0.00    +0.000 A 
ATOM      6  C   UNL     1       1.671   7.929  20.166  0.00  0.00    +0.000 A 
ATOM      7  N   UNL     1       2.498   6.873  20.229  0.00  0.00    +0.000 NA
ATOM      8  H   UNL     1       4.086   5.126  20.213  0.00  0.00    +0.000 HD
ENDROOT
BRANCH   1  13
ATOM      9  C   UNL     1       6.354   4.399  16.517  0.00  0.00    +0.000 A 
ATOM     10  C   UNL     1       7.589   4.614  17.126  0.00  0.00    +0.000 A 
ATOM     11  C   UNL     1       7.661   5.168  18.402  0.00  0.00    +0.000 A 
ATOM     12  C   UNL     1       6.495   5.486  19.097  0.00  0.00    +0.000 A 
ATOM     13  C   UNL     1       5.246   5.239  18.523  0.00  0.00    +0.000 A 
ATOM     14  C   UNL     1       5.192   4.747  17.211  0.00  0.00    +0.000 A 
BRANCH   9  18
ATOM     15  C   UNL     1       6.291   3.538  12.852  0.00  0.00    +0.000 C 
ATOM     16  C   UNL     1       6.688   4.359  14.050  0.00  0.00    +0.000 C 
ATOM     17  O   UNL     1       7.376   5.364  13.921  0.00  0.00    +0.000 OA
ATOM     18  N   UNL     1       6.197   3.838  15.234  0.00  0.00    +0.000 N 
ATOM     19  H   UNL     1       5.801   2.906  15.196  0.00  0.00    +0.000 HD
ENDBRANCH   9  18
ENDBRANCH   1  13
BRANCH   6  20
ATOM     20  N   UNL     1       0.756   8.201  21.202  0.00  0.00    +0.000 N 
ATOM     21  H   UNL     1       0.274   7.369  21.517  0.00  0.00    +0.000 HD
BRANCH  20  22
ATOM     22  C   UNL     1       0.038   9.367  21.522  0.00  0.00    +0.000 A 
ATOM     23  C   UNL     1      -0.107  10.460  20.664  0.00  0.00    +0.000 A 
ATOM     24  C   UNL     1      -0.791  11.608  21.063  0.00  0.00    +0.000 A 
ATOM     25  C   UNL     1      -1.314  11.697  22.348  0.00  0.00    +0.000 A 
ATOM     26  C   UNL     1      -1.080  10.663  23.255  0.00  0.00    +0.000 A 
ATOM     27  C   UNL     1      -0.440   9.497  22.833  0.00  0.00    +0.000 A 
BRANCH  25  28
ATOM     28  O   UNL     1      -1.990  12.853  22.651  0.00  0.00    +0.000 OA
BRANCH  28  29
ATOM     29  C   UNL     1      -3.342  12.805  22.899  0.00  0.00    +0.000 A 
ATOM     30  C   UNL     1      -4.161  12.793  21.769  0.00  0.00    +0.000 A 
ATOM     31  C   UNL     1      -5.549  12.776  21.911  0.00  0.00    +0.000 A 
ATOM     32  C   UNL     1      -6.120  12.772  23.183  0.00  0.00    +0.000 A 
ATOM     33  C   UNL     1      -5.305  12.743  24.315  0.00  0.00    +0.000 A 
ATOM     34  C   UNL     1      -3.918  12.727  24.171  0.00  0.00    +0.000 A 
ENDBRANCH  28  29
ENDBRANCH  25  28
ENDBRANCH  20  22
ENDBRANCH   6  20
TORSDOF 6
ENDMDL
MODEL 3
REMARK VINA RESULT:      -8.1      1.972      2.662
REMARK  Name = 
REMARK  7 active torsions:
REMARK  status: ('A' for Active; 'I' for Inactive)
REMARK    1  A    between atoms: C_1  and  C_2
REMARK    2  A    between atoms: N_4  and  C_5
REMARK    3  A    between atoms: C_9  and  N_10
REMARK    4  A    between atoms: C_15  and  N_16
REMARK    5  A    between atoms: N_16  and  C_17
REMARK    6  A    between atoms: C_20  and  O_21
REMARK    7  A    between atoms: O_21  and  C_22
REMARK                            x       y       z     vdW  Elec       q    Type
REMARK                         _______ _______ _______ _____ _____    ______ ____
ROOT
ATOM      1  N   UNL     1      -4.090  11.609  18.825  0.00  0.00    +0.000 N 
ATOM      2  C   UNL     1      -2.792  12.008  19.138  0.00  0.00    +0.000 A 
ATOM      3  N   UNL     1      -2.589  12.970  20.051  0.00  0.00    +0.000 NA
ATOM      4  C   UNL     1      -1.324  13.281  20.339  0.00  0.00    +0.000 A 
ATOM      5  C   UNL     1      -0.250  12.682  19.732  0.00  0.00    +0.000 A 
ATOM      6  C   UNL     1      -0.537  11.707  18.797  0.00  0.00    +0.000 A 
ATOM      7  N   UNL     1      -1.804  11.370  18.506  0.00  0.00    +0.000 NA
ATOM      8  H   UNL     1      -4.083  10.981  18.033  0.00  0.00    +0.000 HD
ENDROOT
BRANCH   1  13
ATOM      9  C   UNL     1      -6.826  13.581  20.407  0.00  0.00    +0.000 A 
ATOM     10  C   UNL     1      -7.662  13.761  19.307  0.00  0.00    +0.000 A 
ATOM     11  C   UNL     1      -7.289  13.289  18.051  0.00  0.00    +0.000 A 
ATOM     12  C   UNL     1      -6.085  12.605  17.886  0.00  0.00    +0.000 A 
ATOM     13  C   UNL     1      -5.252  12.376  18.983  0.00  0.00    +0.000 A 
ATOM     14  C   UNL     1      -5.608  12.918  20.226  0.00  0.00    +0.000 A 
BRANCH   9  18
ATOM     15  C   UNL     1      -7.911  14.046  23.983  0.00  0.00    +0.000 C 
ATOM     16  C   UNL     1      -7.646  13.247  22.735  0.00  0.00    +0.000 C 
ATOM     17  O   UNL     1      -7.876  12.045  22.700  0.00  0.00    +0.000 OA
ATOM     18  N   UNL     1      -7.133  14.022  21.710  0.00  0.00    +0.000 N 
ATOM     19  H   UNL     1      -6.829  14.958  21.950  0.00  0.00    +0.000 HD
ENDBRANCH   9  18
ENDBRANCH   1  13
BRANCH   6  20
ATOM     20  N   UNL     1       0.550  10.988  18.262  0.00  0.00    +0.000 N 
ATOM     21  H   UNL     1       0.693  11.183  17.279  0.00  0.00    +0.000 HD
BRANCH  20  22
ATOM     22  C   UNL     1       1.121   9.758  18.633  0.00  0.00    +0.000 A 
ATOM     23  C   UNL     1       1.095   9.239  19.930  0.00  0.00    +0.000 A 
ATOM     24  C   UNL     1       1.725   8.034  20.241  0.00  0.00    +0.000 A 
ATOM     25  C   UNL     1       2.427   7.342  19.262  0.00  0.00    +0.000 A 
ATOM     26  C   UNL     1       2.561   7.900  17.991  0.00  0.00    +0.000 A 
ATOM     27  C   UNL     1       1.886   9.080  17.673  0.00  0.00    +0.000 A 
BRANCH  25  28
ATOM     28  O   UNL     1       2.999   6.155  19.649  0.00  0.00    +0.000 OA
BRANCH  28  29
ATOM     29  C   UNL     1       2.277   4.988  19.552  0.00  0.00    +0.000 A 
ATOM     30  C   UNL     1       2.182   4.444  18.270  0.00  0.00    +0.000 A 
ATOM     31  C   UNL     1       1.447   3.278  18.058  0.00  0.00    +0.000 A 
ATOM     32  C   UNL     1       0.804   2.654  19.127  0.00  0.00    +0.000 A 
ATOM     33  C   UNL     1       0.929   3.172  20.416  0.00  0.00    +0.000 A 
ATOM     34  C   UNL     1       1.692   4.319  20.632  0.00  0.00    +0.000 A 
ENDBRANCH  28  29
ENDBRANCH  25  28
ENDBRANCH  20  22
ENDBRANCH   6  20
TORSDOF 6
ENDMDL
MODEL 4
REMARK VINA RESULT:      -8.0      4.234     11.237
REMARK  Name = 
REMARK  7 active torsions:
REMARK  status: ('A' for Active; 'I' for Inactive)
REMARK    1  A    between atoms: C_1  and  C_2
REMARK    2  A    between atoms: N_4  and  C_5
REMARK    3  A    between atoms: C_9  and  N_10
REMARK    4  A    between atoms: C_15  and  N_16
REMARK    5  A    between atoms: N_16  and  C_17
REMARK    6  A    between atoms: C_20  and  O_21
REMARK    7  A    between atoms: O_21  and  C_22
REMARK                            x       y       z     vdW  Elec       q    Type
REMARK                         _______ _______ _______ _____ _____    ______ ____
ROOT
ATOM      1  N   UNL     1       1.851   6.340  20.634  0.00  0.00    +0.000 N 
ATOM      2  C   UNL     1       1.768   7.503  19.871  0.00  0.00    +0.000 A 
ATOM      3  N   UNL     1       1.955   7.447  18.543  0.00  0.00    +0.000 NA
ATOM      4  C   UNL     1       1.823   8.586  17.859  0.00  0.00    +0.000 A 
ATOM      5  C   UNL     1       1.532   9.786  18.455  0.00  0.00    +0.000 A 
ATOM      6  C   UNL     1       1.361   9.767  19.826  0.00  0.00    +0.000 A 
ATOM      7  N   UNL     1       1.475   8.628  20.528  0.00  0.00    +0.000 NA
ATOM      8  H   UNL     1       1.822   6.564  21.619  0.00  0.00    +0.000 HD
ENDROOT
BRANCH   1  13
ATOM      9  C   UNL     1       4.520   4.083  19.349  0.00  0.00    +0.000 A 
ATOM     10  C   UNL     1       3.875   2.853  19.468  0.00  0.00    +0.000 A 
ATOM     11  C   UNL     1       2.601   2.774  20.025  0.00  0.00    +0.000 A 
ATOM     12  C   UNL     1       1.944   3.930  20.445  0.00  0.00    +0.000 A 
ATOM     13  C   UNL     1       2.555   5.177  20.295  0.00  0.00    +0.000 A 
ATOM     14  C   UNL     1       3.865   5.232  19.798  0.00  0.00    +0.000 A 
BRANCH   9  18
ATOM     15  C   UNL     1       7.571   4.569  17.197  0.00  0.00    +0.000 C 
ATOM     16  C   UNL     1       6.091   4.508  17.464  0.00  0.00    +0.000 C 
ATOM     17  O   UNL     1       5.283   4.685  16.561  0.00  0.00    +0.000 OA
ATOM     18  N   UNL     1       5.804   4.247  18.792  0.00  0.00    +0.000 N 
ATOM     19  H   UNL     1       6.574   4.306  19.448  0.00  0.00    +0.000 HD
ENDBRANCH   9  18
ENDBRANCH   1  13
BRANCH   6  20
ATOM     20  N   UNL     1       0.930  10.961  20.438  0.00  0.00    +0.000 N 
ATOM     21  H   UNL     1       1.704  11.530  20.756  0.00  0.00    +0.000 HD
BRANCH  20  22
ATOM     22  C   UNL     1      -0.258  11.278  21.119  0.00  0.00    +0.000 A 
ATOM     23  C   UNL     1      -1.233  12.151  20.632  0.00  0.00    +0.000 A 
ATOM     24  C   UNL     1      -2.368  12.461  21.382  0.00  0.00    +0.000 A 
ATOM     25  C   UNL     1      -2.530  11.926  22.655  0.00  0.00    +0.000 A 
ATOM     26  C   UNL     1      -1.513  11.143  23.203  0.00  0.00    +0.000 A 
ATOM     27  C   UNL     1      -0.406  10.797  22.427  0.00  0.00    +0.000 A 
BRANCH  25  28
ATOM     28  O   UNL     1      -3.685  12.266  23.314  0.00  0.00    +0.000 OA
BRANCH  28  29
ATOM     29  C   UNL     1      -3.846  13.548  23.788  0.00  0.00    +0.000 A 
ATOM     30  C   UNL     1      -5.048  14.169  23.445  0.00  0.00    +0.000 A 
ATOM     31  C   UNL     1      -5.298  15.480  23.851  0.00  0.00    +0.000 A 
ATOM     32  C   UNL     1      -4.347  16.173  24.598  0.00  0.00    +0.000 A 
ATOM     33  C   UNL     1      -3.162  15.542  24.977  0.00  0.00    +0.000 A 
ATOM     34  C   UNL     1      -2.927  14.220  24.600  0.00  0.00    +0.000 A 
ENDBRANCH  28  29
ENDBRANCH  25  28
ENDBRANCH  20  22
ENDBRANCH   6  20
TORSDOF 6
ENDMDL
MODEL 5
REMARK VINA RESULT:      -8.0      3.156     10.733
REMARK  Name = 
REMARK  7 active torsions:
REMARK  status: ('A' for Active; 'I' for Inactive)
REMARK    1  A    between atoms: C_1  and  C_2
REMARK    2  A    between atoms: N_4  and  C_5
REMARK    3  A    between atoms: C_9  and  N_10
REMARK    4  A    between atoms: C_15  and  N_16
REMARK    5  A    between atoms: N_16  and  C_17
REMARK    6  A    between atoms: C_20  and  O_21
REMARK    7  A    between atoms: O_21  and  C_22
REMARK                            x       y       z     vdW  Elec       q    Type
REMARK                         _______ _______ _______ _____ _____    ______ ____
ROOT
ATOM      1  N   UNL     1       1.942   6.239  20.564  0.00  0.00    +0.000 N 
ATOM      2  C   UNL     1       1.881   7.377  19.762  0.00  0.00    +0.000 A 
ATOM      3  N   UNL     1       2.196   7.296  18.461  0.00  0.00    +0.000 NA
ATOM      4  C   UNL     1       2.080   8.410  17.734  0.00  0.00    +0.000 A 
ATOM      5  C   UNL     1       1.680   9.610  18.264  0.00  0.00    +0.000 A 
ATOM      6  C   UNL     1       1.380   9.617  19.612  0.00  0.00    +0.000 A 
ATOM      7  N   UNL     1       1.476   8.503  20.356  0.00  0.00    +0.000 NA
ATOM      8  H   UNL     1       1.808   6.486  21.535  0.00  0.00    +0.000 HD
ENDROOT
BRANCH   1  13
ATOM      9  C   UNL     1       4.684   4.041  19.329  0.00  0.00    +0.000 A 
ATOM     10  C   UNL     1       4.191   2.797  19.720  0.00  0.00    +0.000 A 
ATOM     11  C   UNL     1       3.001   2.701  20.437  0.00  0.00    +0.000 A 
ATOM     12  C   UNL     1       2.273   3.849  20.747  0.00  0.00    +0.000 A 
ATOM     13  C   UNL     1       2.726   5.102  20.328  0.00  0.00    +0.000 A 
ATOM     14  C   UNL     1       3.961   5.187  19.670  0.00  0.00    +0.000 A 
BRANCH   9  18
ATOM     15  C   UNL     1       7.397   4.566  16.772  0.00  0.00    +0.000 C 
ATOM     16  C   UNL     1       5.970   4.486  17.244  0.00  0.00    +0.000 C 
ATOM     17  O   UNL     1       5.040   4.652  16.463  0.00  0.00    +0.000 OA
ATOM     18  N   UNL     1       5.875   4.221  18.598  0.00  0.00    +0.000 N 
ATOM     19  H   UNL     1       6.728   4.291  19.140  0.00  0.00    +0.000 HD
ENDBRANCH   9  18
ENDBRANCH   1  13
BRANCH   6  20
ATOM     20  N   UNL     1       0.840  10.805  20.145  0.00  0.00    +0.000 N 
ATOM     21  H   UNL     1       1.285  11.073  21.013  0.00  0.00    +0.000 HD
BRANCH  20  22
ATOM     22  C   UNL     1      -0.436  11.381  20.019  0.00  0.00    +0.000 A 
ATOM     23  C   UNL     1      -1.177  11.891  21.088  0.00  0.00    +0.000 A 
ATOM     24  C   UNL     1      -2.460  12.405  20.899  0.00  0.00    +0.000 A 
ATOM     25  C   UNL     1      -3.041  12.385  19.637  0.00  0.00    +0.000 A 
ATOM     26  C   UNL     1      -2.363  11.778  18.580  0.00  0.00    +0.000 A 
ATOM     27  C   UNL     1      -1.060  11.312  18.765  0.00  0.00    +0.000 A 
BRANCH  25  28
ATOM     28  O   UNL     1      -4.297  12.930  19.538  0.00  0.00    +0.000 OA
BRANCH  28  29
ATOM     29  C   UNL     1      -5.397  12.170  19.864  0.00  0.00    +0.000 A 
ATOM     30  C   UNL     1      -5.708  11.147  18.968  0.00  0.00    +0.000 A 
ATOM     31  C   UNL     1      -6.822  10.337  19.192  0.00  0.00    +0.000 A 
ATOM     32  C   UNL     1      -7.626  10.550  20.310  0.00  0.00    +0.000 A 
ATOM     33  C   UNL     1      -7.296  11.545  21.229  0.00  0.00    +0.000 A 
ATOM     34  C   UNL     1      -6.164  12.333  21.022  0.00  0.00    +0.000 A 
ENDBRANCH  28  29
ENDBRANCH  25  28
ENDBRANCH  20  22
ENDBRANCH   6  20
TORSDOF 6
ENDMDL
MODEL 6
REMARK VINA RESULT:      -7.9      3.155      4.365
REMARK  Name = 
REMARK  7 active torsions:
REMARK  status: ('A' for Active; 'I' for Inactive)
REMARK    1  A    between atoms: C_1  and  C_2
REMARK    2  A    between atoms: N_4  and  C_5
REMARK    3  A    between atoms: C_9  and  N_10
REMARK    4  A    between atoms: C_15  and  N_16
REMARK    5  A    between atoms: N_16  and  C_17
REMARK    6  A    between atoms: C_20  and  O_21
REMARK    7  A    between atoms: O_21  and  C_22
REMARK                            x       y       z     vdW  Elec       q    Type
REMARK                         _______ _______ _______ _____ _____    ______ ____
ROOT
ATOM      1  N   UNL     1      -0.742  13.002  22.020  0.00  0.00    +0.000 N 
ATOM      2  C   UNL     1      -0.990  12.406  20.785  0.00  0.00    +0.000 A 
ATOM      3  N   UNL     1      -2.166  12.604  20.170  0.00  0.00    +0.000 NA
ATOM      4  C   UNL     1      -2.331  12.041  18.971  0.00  0.00    +0.000 A 
ATOM      5  C   UNL     1      -1.370  11.268  18.370  0.00  0.00    +0.000 A 
ATOM      6  C   UNL     1      -0.189  11.103  19.066  0.00  0.00    +0.000 A 
ATOM      7  N   UNL     1       0.000  11.674  20.267  0.00  0.00    +0.000 NA
ATOM      8  H   UNL     1       0.122  12.653  22.411  0.00  0.00    +0.000 HD
ENDROOT
BRANCH   1  13
ATOM      9  C   UNL     1      -3.962  13.273  23.872  0.00  0.00    +0.000 A 
ATOM     10  C   UNL     1      -3.678  14.363  24.694  0.00  0.00    +0.000 A 
ATOM     11  C   UNL     1      -2.416  14.952  24.674  0.00  0.00    +0.000 A 
ATOM     12  C   UNL     1      -1.431  14.476  23.810  0.00  0.00    +0.000 A 
ATOM     13  C   UNL     1      -1.707  13.413  22.948  0.00  0.00    +0.000 A 
ATOM     14  C   UNL     1      -2.959  12.786  23.030  0.00  0.00    +0.000 A 
BRANCH   9  18
ATOM     15  C   UNL     1      -7.562  12.227  23.519  0.00  0.00    +0.000 C 
ATOM     16  C   UNL     1      -6.401  13.173  23.375  0.00  0.00    +0.000 C 
ATOM     17  O   UNL     1      -6.557  14.290  22.896  0.00  0.00    +0.000 OA
ATOM     18  N   UNL     1      -5.213  12.626  23.829  0.00  0.00    +0.000 N 
ATOM     19  H   UNL     1      -5.212  11.632  24.026  0.00  0.00    +0.000 HD
ENDBRANCH   9  18
ENDBRANCH   1  13
BRANCH   6  20
ATOM     20  N   UNL     1       0.857  10.426  18.409  0.00  0.00    +0.000 N 
ATOM     21  H   UNL     1       0.921  10.676  17.430  0.00  0.00    +0.000 HD
BRANCH  20  22
ATOM     22  C   UNL     1       1.463   9.183  18.666  0.00  0.00    +0.000 A 
ATOM     23  C   UNL     1       1.408   8.522  19.895  0.00  0.00    +0.000 A 
ATOM     24  C   UNL     1       2.074   7.313  20.097  0.00  0.00    +0.000 A 
ATOM     25  C   UNL     1       2.842   6.761  19.079  0.00  0.00    +0.000 A 
ATOM     26  C   UNL     1       3.001   7.463  17.883  0.00  0.00    +0.000 A 
ATOM     27  C   UNL     1       2.291   8.645  17.670  0.00  0.00    +0.000 A 
BRANCH  25  28
ATOM     28  O   UNL     1       3.446   5.560  19.356  0.00  0.00    +0.000 OA
BRANCH  28  29
ATOM     29  C   UNL     1       2.672   4.441  19.566  0.00  0.00    +0.000 A 
ATOM     30  C   UNL     1       2.130   3.862  18.418  0.00  0.00    +0.000 A 
ATOM     31  C   UNL     1       1.306   2.740  18.523  0.00  0.00    +0.000 A 
ATOM     32  C   UNL     1       1.022   2.198  19.775  0.00  0.00    +0.000 A 
ATOM     33  C   UNL     1       1.595   2.750  20.921  0.00  0.00    +0.000 A 
ATOM     34  C   UNL     1       2.444   3.850  20.812  0.00  0.00    +0.000 A 
ENDBRANCH  28  29
ENDBRANCH  25  28
ENDBRANCH  20  22
ENDBRANCH   6  20
TORSDOF 6
ENDMDL
MODEL 7
REMARK VINA RESULT:      -7.9      4.263     11.129
REMARK  Name = 
REMARK  7 active torsions:
REMARK  status: ('A' for Active; 'I' for Inactive)
REMARK    1  A    between atoms: C_1  and  C_2
REMARK    2  A    between atoms: N_4  and  C_5
REMARK    3  A    between atoms: C_9  and  N_10
REMARK    4  A    between atoms: C_15  and  N_16
REMARK    5  A    between atoms: N_16  and  C_17
REMARK    6  A    between atoms: C_20  and  O_21
REMARK    7  A    between atoms: O_21  and  C_22
REMARK                            x       y       z     vdW  Elec       q    Type
REMARK                         _______ _______ _______ _____ _____    ______ ____
ROOT
ATOM      1  N   UNL     1       1.868   6.334  20.548  0.00  0.00    +0.000 N 
ATOM      2  C   UNL     1       1.861   7.466  19.736  0.00  0.00    +0.000 A 
ATOM      3  N   UNL     1       2.197   7.363  18.441  0.00  0.00    +0.000 NA
ATOM      4  C   UNL     1       2.133   8.474  17.703  0.00  0.00    +0.000 A 
ATOM      5  C   UNL     1       1.764   9.691  18.216  0.00  0.00    +0.000 A 
ATOM      6  C   UNL     1       1.438   9.721  19.558  0.00  0.00    +0.000 A 
ATOM      7  N   UNL     1       1.483   8.611  20.312  0.00  0.00    +0.000 NA
ATOM      8  H   UNL     1       1.726   6.594  21.514  0.00  0.00    +0.000 HD
ENDROOT
BRANCH   1  13
ATOM      9  C   UNL     1       4.573   4.039  19.409  0.00  0.00    +0.000 A 
ATOM     10  C   UNL     1       4.019   2.813  19.772  0.00  0.00    +0.000 A 
ATOM     11  C   UNL     1       2.798   2.759  20.441  0.00  0.00    +0.000 A 
ATOM     12  C   UNL     1       2.102   3.932  20.729  0.00  0.00    +0.000 A 
ATOM     13  C   UNL     1       2.618   5.169  20.336  0.00  0.00    +0.000 A 
ATOM     14  C   UNL     1       3.880   5.211  19.727  0.00  0.00    +0.000 A 
BRANCH   9  18
ATOM     15  C   UNL     1       7.401   4.552  16.977  0.00  0.00    +0.000 C 
ATOM     16  C   UNL     1       5.959   4.560  17.406  0.00  0.00    +0.000 C 
ATOM     17  O   UNL     1       5.073   4.884  16.624  0.00  0.00    +0.000 OA
ATOM     18  N   UNL     1       5.797   4.178  18.726  0.00  0.00    +0.000 N 
ATOM     19  H   UNL     1       6.636   4.117  19.292  0.00  0.00    +0.000 HD
ENDBRANCH   9  18
ENDBRANCH   1  13
BRANCH   6  20
ATOM     20  N   UNL     1       0.929  10.930  20.071  0.00  0.00    +0.000 N 
ATOM     21  H   UNL     1       1.609  11.679  20.034  0.00  0.00    +0.000 HD
BRANCH  20  22
ATOM     22  C   UNL     1      -0.069  11.184  21.028  0.00  0.00    +0.000 A 
ATOM     23  C   UNL     1      -0.140  10.557  22.274  0.00  0.00    +0.000 A 
ATOM     24  C   UNL     1      -1.187  10.819  23.158  0.00  0.00    +0.000 A 
ATOM     25  C   UNL     1      -2.206  11.691  22.793  0.00  0.00    +0.000 A 
ATOM     26  C   UNL     1      -2.212  12.239  21.509  0.00  0.00    +0.000 A 
ATOM     27  C   UNL     1      -1.136  12.012  20.650  0.00  0.00    +0.000 A 
BRANCH  25  28
ATOM     28  O   UNL     1      -3.185  11.908  23.730  0.00  0.00    +0.000 OA
BRANCH  28  29
ATOM     29  C   UNL     1      -3.739  13.161  23.859  0.00  0.00    +0.000 A 
ATOM     30  C   UNL     1      -2.923  14.120  24.461  0.00  0.00    +0.000 A 
ATOM     31  C   UNL     1      -3.401  15.415  24.665  0.00  0.00    +0.000 A 
ATOM     32  C   UNL     1      -4.694  15.752  24.270  0.00  0.00    +0.000 A 
ATOM     33  C   UNL     1      -5.498  14.808  23.632  0.00  0.00    +0.000 A 
ATOM     34  C   UNL     1      -5.008  13.524  23.397  0.00  0.00    +0.000 A 
ENDBRANCH  28  29
ENDBRANCH  25  28
ENDBRANCH  20  22
ENDBRANCH   6  20
TORSDOF 6
ENDMDL
MODEL 8
REMARK VINA RESULT:      -7.9      4.868      7.370
REMARK  Name = 
REMARK  7 active torsions:
REMARK  status: ('A' for Active; 'I' for Inactive)
REMARK    1  A    between atoms: C_1  and  C_2
REMARK    2  A    between atoms: N_4  and  C_5
REMARK    3  A    between atoms: C_9  and  N_10
REMARK    4  A    between atoms: C_15  and  N_16
REMARK    5  A    between atoms: N_16  and  C_17
REMARK    6  A    between atoms: C_20  and  O_21
REMARK    7  A    between atoms: O_21  and  C_22
REMARK                            x       y       z     vdW  Elec       q    Type
REMARK                         _______ _______ _______ _____ _____    ______ ____
ROOT
ATOM      1  N   UNL     1       1.133  10.272  18.215  0.00  0.00    +0.000 N 
ATOM      2  C   UNL     1       1.356   9.229  19.112  0.00  0.00    +0.000 A 
ATOM      3  N   UNL     1       0.852   9.295  20.354  0.00  0.00    +0.000 NA
ATOM      4  C   UNL     1       1.064   8.249  21.155  0.00  0.00    +0.000 A 
ATOM      5  C   UNL     1       1.781   7.145  20.770  0.00  0.00    +0.000 A 
ATOM      6  C   UNL     1       2.276   7.153  19.480  0.00  0.00    +0.000 A 
ATOM      7  N   UNL     1       2.059   8.190  18.655  0.00  0.00    +0.000 NA
ATOM      8  H   UNL     1       1.683  10.139  17.378  0.00  0.00    +0.000 HD
ENDROOT
BRANCH   1  13
ATOM      9  C   UNL     1       1.565  13.807  19.305  0.00  0.00    +0.000 A 
ATOM     10  C   UNL     1       0.231  14.205  19.373  0.00  0.00    +0.000 A 
ATOM     11  C   UNL     1      -0.787  13.330  19.000  0.00  0.00    +0.000 A 
ATOM     12  C   UNL     1      -0.483  12.035  18.582  0.00  0.00    +0.000 A 
ATOM     13  C   UNL     1       0.844  11.602  18.548  0.00  0.00    +0.000 A 
ATOM     14  C   UNL     1       1.861  12.516  18.858  0.00  0.00    +0.000 A 
BRANCH   9  18
ATOM     15  C   UNL     1       4.422  15.631  20.947  0.00  0.00    +0.000 C 
ATOM     16  C   UNL     1       3.358  14.570  20.857  0.00  0.00    +0.000 C 
ATOM     17  O   UNL     1       3.191  13.770  21.769  0.00  0.00    +0.000 OA
ATOM     18  N   UNL     1       2.650  14.629  19.670  0.00  0.00    +0.000 N 
ATOM     19  H   UNL     1       3.025  15.227  18.942  0.00  0.00    +0.000 HD
ENDBRANCH   9  18
ENDBRANCH   1  13
BRANCH   6  20
ATOM     20  N   UNL     1       2.899   5.975  19.022  0.00  0.00    +0.000 N 
ATOM     21  H   UNL     1       2.803   5.210  19.679  0.00  0.00    +0.000 HD
BRANCH  20  22
ATOM     22  C   UNL     1       3.988   5.779  18.155  0.00  0.00    +0.000 A 
ATOM     23  C   UNL     1       4.961   4.792  18.328  0.00  0.00    +0.000 A 
ATOM     24  C   UNL     1       6.045   4.684  17.456  0.00  0.00    +0.000 A 
ATOM     25  C   UNL     1       6.193   5.589  16.412  0.00  0.00    +0.000 A 
ATOM     26  C   UNL     1       5.294   6.649  16.291  0.00  0.00    +0.000 A 
ATOM     27  C   UNL     1       4.184   6.721  17.135  0.00  0.00    +0.000 A 
BRANCH  25  28
ATOM     28  O   UNL     1       7.276   5.396  15.590  0.00  0.00    +0.000 OA
BRANCH  28  29
ATOM     29  C   UNL     1       7.088   4.895  14.322  0.00  0.00    +0.000 A 
ATOM     30  C   UNL     1       6.096   3.920  14.203  0.00  0.00    +0.000 A 
ATOM     31  C   UNL     1       5.847   3.325  12.965  0.00  0.00    +0.000 A 
ATOM     32  C   UNL     1       6.588   3.703  11.847  0.00  0.00    +0.000 A 
ATOM     33  C   UNL     1       7.551   4.706  11.954  0.00  0.00    +0.000 A 
ATOM     34  C   UNL     1       7.777   5.323  13.184  0.00  0.00    +0.000 A 
ENDBRANCH  28  29
ENDBRANCH  25  28
ENDBRANCH  20  22
ENDBRANCH   6  20
TORSDOF 6
ENDMDL
MODEL 9
REMARK VINA RESULT:      -7.9      4.106     11.192
REMARK  Name = 
REMARK  7 active torsions:
REMARK  status: ('A' for Active; 'I' for Inactive)
REMARK    1  A    between atoms: C_1  and  C_2
REMARK    2  A    between atoms: N_4  and  C_5
REMARK    3  A    between atoms: C_9  and  N_10
REMARK    4  A    between atoms: C_15  and  N_16
REMARK    5  A    between atoms: N_16  and  C_17
REMARK    6  A    between atoms: C_20  and  O_21
REMARK    7  A    between atoms: O_21  and  C_22
REMARK                            x       y       z     vdW  Elec       q    Type
REMARK                         _______ _______ _______ _____ _____    ______ ____
ROOT
ATOM      1  N   UNL     1       1.585   6.964  20.720  0.00  0.00    +0.000 N 
ATOM      2  C   UNL     1       1.528   8.137  19.970  0.00  0.00    +0.000 A 
ATOM      3  N   UNL     1       1.790   8.103  18.654  0.00  0.00    +0.000 NA
ATOM      4  C   UNL     1       1.680   9.250  17.980  0.00  0.00    +0.000 A 
ATOM      5  C   UNL     1       1.338  10.437  18.575  0.00  0.00    +0.000 A 
ATOM      6  C   UNL     1       1.090  10.395  19.934  0.00  0.00    +0.000 A 
ATOM      7  N   UNL     1       1.181   9.248  20.625  0.00  0.00    +0.000 NA
ATOM      8  H   UNL     1       1.496   7.173  21.705  0.00  0.00    +0.000 HD
ENDROOT
BRANCH   1  13
ATOM      9  C   UNL     1       4.162   4.730  19.223  0.00  0.00    +0.000 A 
ATOM     10  C   UNL     1       3.687   3.492  19.650  0.00  0.00    +0.000 A 
ATOM     11  C   UNL     1       2.567   3.411  20.474  0.00  0.00    +0.000 A 
ATOM     12  C   UNL     1       1.890   4.568  20.858  0.00  0.00    +0.000 A 
ATOM     13  C   UNL     1       2.324   5.816  20.406  0.00  0.00    +0.000 A 
ATOM     14  C   UNL     1       3.493   5.886  19.635  0.00  0.00    +0.000 A 
BRANCH   9  18
ATOM     15  C   UNL     1       7.515   5.368  17.633  0.00  0.00    +0.000 C 
ATOM     16  C   UNL     1       6.568   5.209  18.792  0.00  0.00    +0.000 C 
ATOM     17  O   UNL     1       6.957   5.351  19.944  0.00  0.00    +0.000 OA
ATOM     18  N   UNL     1       5.283   4.896  18.385  0.00  0.00    +0.000 N 
ATOM     19  H   UNL     1       5.160   4.635  17.413  0.00  0.00    +0.000 HD
ENDBRANCH   9  18
ENDBRANCH   1  13
BRANCH   6  20
ATOM     20  N   UNL     1       0.608  11.574  20.537  0.00  0.00    +0.000 N 
ATOM     21  H   UNL     1       1.352  12.221  20.763  0.00  0.00    +0.000 HD
BRANCH  20  22
ATOM     22  C   UNL     1      -0.542  11.816  21.309  0.00  0.00    +0.000 A 
ATOM     23  C   UNL     1      -0.749  11.304  22.592  0.00  0.00    +0.000 A 
ATOM     24  C   UNL     1      -1.936  11.543  23.285  0.00  0.00    +0.000 A 
ATOM     25  C   UNL     1      -2.956  12.273  22.688  0.00  0.00    +0.000 A 
ATOM     26  C   UNL     1      -2.814  12.696  21.366  0.00  0.00    +0.000 A 
ATOM     27  C   UNL     1      -1.604  12.497  20.698  0.00  0.00    +0.000 A 
BRANCH  25  28
ATOM     28  O   UNL     1      -4.081  12.479  23.448  0.00  0.00    +0.000 OA
BRANCH  28  29
ATOM     29  C   UNL     1      -4.445  13.761  23.791  0.00  0.00    +0.000 A 
ATOM     30  C   UNL     1      -5.764  14.110  23.497  0.00  0.00    +0.000 A 
ATOM     31  C   UNL     1      -6.226  15.397  23.778  0.00  0.00    +0.000 A 
ATOM     32  C   UNL     1      -5.370  16.335  24.351  0.00  0.00    +0.000 A 
ATOM     33  C   UNL     1      -4.063  15.978  24.684  0.00  0.00    +0.000 A 
ATOM     34  C   UNL     1      -3.613  14.682  24.434  0.00  0.00    +0.000 A 
ENDBRANCH  28  29
ENDBRANCH  25  28
ENDBRANCH  20  22
ENDBRANCH   6  20
TORSDOF 6
ENDMDL
