MODEL 1
REMARK VINA RESULT:      -7.8      0.000      0.000
REMARK  Name = 
REMARK  4 active torsions:
REMARK  status: ('A' for Active; 'I' for Inactive)
REMARK    1  A    between atoms: C_1  and  O_2
REMARK    2  A    between atoms: O_2  and  C_3
REMARK    3  A    between atoms: C_3  and  C_4
REMARK    4  A    between atoms: C_4  and  N_5
REMARK                            x       y       z     vdW  Elec       q    Type
REMARK                         _______ _______ _______ _____ _____    ______ ____
ROOT
ATOM      1  N   UNL     1       4.619   3.417  18.106  0.00  0.00    +0.000 N 
ATOM      2  C   UNL     1       5.384   4.063  17.145  0.00  0.00    +0.000 A 
ATOM      3  N   UNL     1       6.104   5.151  17.493  0.00  0.00    +0.000 NA
ATOM      4  C   UNL     1       6.903   5.742  16.591  0.00  0.00    +0.000 A 
ATOM      5  N   UNL     1       7.653   6.839  16.987  0.00  0.00    +0.000 N 
ATOM      6  C   UNL     1       6.935   5.197  15.329  0.00  0.00    +0.000 A 
ATOM      7  N   UNL     1       7.589   5.485  14.165  0.00  0.00    +0.000 N 
ATOM      8  C   UNL     1       7.195   4.564  13.234  0.00  0.00    +0.000 A 
ATOM      9  N   UNL     1       6.322   3.715  13.732  0.00  0.00    +0.000 NA
ATOM     10  C   UNL     1       6.154   4.099  15.036  0.00  0.00    +0.000 A 
ATOM     11  N   UNL     1       5.352   3.504  15.932  0.00  0.00    +0.000 NA
ATOM     12  H   UNL     1       3.969   2.820  17.609  0.00  0.00    +0.000 HD
ATOM     13  H   UNL     1       7.623   6.914  17.999  0.00  0.00    +0.000 HD
ATOM     14  H   UNL     1       8.583   6.881  16.596  0.00  0.00    +0.000 HD
ATOM     15  H   UNL     1       8.241   6.242  14.018  0.00  0.00    +0.000 HD
ENDROOT
BRANCH   1  16
ATOM     16  C   UNL     1       4.084   4.242  19.183  0.00  0.00    +0.000 C 
BRANCH  16  17
ATOM     17  C   UNL     1       2.634   4.752  18.875  0.00  0.00    +0.000 C 
ATOM     18  C   UNL     1       1.831   3.675  18.111  0.00  0.00    +0.000 C 
ATOM     19  C   UNL     1       1.445   2.496  18.992  0.00  0.00    +0.000 C 
ATOM     20  O   UNL     1       0.752   2.923  20.159  0.00  0.00    +0.000 OA
ATOM     21  C   UNL     1       1.507   3.829  20.959  0.00  0.00    +0.000 C 
ATOM     22  C   UNL     1       1.854   5.078  20.167  0.00  0.00    +0.000 C 
BRANCH  17  24
ATOM     23  C   UNL     1       2.497   7.193  18.867  0.00  0.00    +0.000 C 
ATOM     24  O   UNL     1       2.639   5.989  18.127  0.00  0.00    +0.000 OA
ENDBRANCH  17  24
ENDBRANCH  16  17
ENDBRANCH   1  16
TORSDOF 3
ENDMDL
MODEL 2
REMARK VINA RESULT:      -7.7      5.587      7.998
REMARK  Name = 
REMARK  4 active torsions:
REMARK  status: ('A' for Active; 'I' for Inactive)
REMARK    1  A    between atoms: C_1  and  O_2
REMARK    2  A    between atoms: O_2  and  C_3
REMARK    3  A    between atoms: C_3  and  C_4
REMARK    4  A    between atoms: C_4  and  N_5
REMARK                            x       y       z     vdW  Elec       q    Type
REMARK                         _______ _______ _______ _____ _____    ______ ____
ROOT
ATOM      1  N   UNL     1       8.074   9.442  17.942  0.00  0.00    +0.000 N 
ATOM      2  C   UNL     1       7.900   8.064  17.905  0.00  0.00    +0.000 A 
ATOM      3  N   UNL     1       8.252   7.325  18.979  0.00  0.00    +0.000 NA
ATOM      4  C   UNL     1       8.024   6.002  18.984  0.00  0.00    +0.000 A 
ATOM      5  N   UNL     1       8.368   5.274  20.113  0.00  0.00    +0.000 N 
ATOM      6  C   UNL     1       7.441   5.462  17.863  0.00  0.00    +0.000 A 
ATOM      7  N   UNL     1       7.056   4.209  17.479  0.00  0.00    +0.000 N 
ATOM      8  C   UNL     1       6.530   4.309  16.220  0.00  0.00    +0.000 A 
ATOM      9  N   UNL     1       6.567   5.547  15.776  0.00  0.00    +0.000 NA
ATOM     10  C   UNL     1       7.131   6.273  16.792  0.00  0.00    +0.000 A 
ATOM     11  N   UNL     1       7.357   7.596  16.779  0.00  0.00    +0.000 NA
ATOM     12  H   UNL     1       8.012   9.769  16.985  0.00  0.00    +0.000 HD
ATOM     13  H   UNL     1       8.576   5.917  20.871  0.00  0.00    +0.000 HD
ATOM     14  H   UNL     1       7.720   4.539  20.358  0.00  0.00    +0.000 HD
ATOM     15  H   UNL     1       7.148   3.363  18.022  0.00  0.00    +0.000 HD
ENDROOT
BRANCH   1  16
ATOM     16  C   UNL     1       9.175   9.944  18.754  0.00  0.00    +0.000 C 
BRANCH  16  17
ATOM     17  C   UNL     1       9.424  11.476  18.534  0.00  0.00    +0.000 C 
ATOM     18  C   UNL     1       9.335  12.237  19.877  0.00  0.00    +0.000 C 
ATOM     19  C   UNL     1      10.527  11.969  20.783  0.00  0.00    +0.000 C 
ATOM     20  O   UNL     1      11.757  12.239  20.119  0.00  0.00    +0.000 OA
ATOM     21  C   UNL     1      11.935  11.467  18.935  0.00  0.00    +0.000 C 
ATOM     22  C   UNL     1      10.822  11.752  17.941  0.00  0.00    +0.000 C 
BRANCH  17  24
ATOM     23  C   UNL     1       8.125  13.403  17.775  0.00  0.00    +0.000 C 
ATOM     24  O   UNL     1       8.500  12.047  17.580  0.00  0.00    +0.000 OA
ENDBRANCH  17  24
ENDBRANCH  16  17
ENDBRANCH   1  16
TORSDOF 3
ENDMDL
MODEL 3
REMARK VINA RESULT:      -7.4      2.011      3.403
REMARK  Name = 
REMARK  4 active torsions:
REMARK  status: ('A' for Active; 'I' for Inactive)
REMARK    1  A    between atoms: C_1  and  O_2
REMARK    2  A    between atoms: O_2  and  C_3
REMARK    3  A    between atoms: C_3  and  C_4
REMARK    4  A    between atoms: C_4  and  N_5
REMARK                            x       y       z     vdW  Elec       q    Type
REMARK                         _______ _______ _______ _____ _____    ______ ____
ROOT
ATOM      1  N   UNL     1       5.652   4.728  16.451  0.00  0.00    +0.000 N 
ATOM      2  C   UNL     1       6.442   5.549  17.244  0.00  0.00    +0.000 A 
ATOM      3  N   UNL     1       6.997   5.047  18.368  0.00  0.00    +0.000 NA
ATOM      4  C   UNL     1       7.819   5.809  19.107  0.00  0.00    +0.000 A 
ATOM      5  N   UNL     1       8.398   5.256  20.239  0.00  0.00    +0.000 N 
ATOM      6  C   UNL     1       8.046   7.092  18.670  0.00  0.00    +0.000 A 
ATOM      7  N   UNL     1       8.786   8.151  19.114  0.00  0.00    +0.000 N 
ATOM      8  C   UNL     1       8.597   9.182  18.235  0.00  0.00    +0.000 A 
ATOM      9  N   UNL     1       7.773   8.846  17.266  0.00  0.00    +0.000 NA
ATOM     10  C   UNL     1       7.425   7.547  17.526  0.00  0.00    +0.000 A 
ATOM     11  N   UNL     1       6.601   6.792  16.784  0.00  0.00    +0.000 NA
ATOM     12  H   UNL     1       5.130   5.336  15.832  0.00  0.00    +0.000 HD
ATOM     13  H   UNL     1       8.251   4.251  20.230  0.00  0.00    +0.000 HD
ATOM     14  H   UNL     1       9.354   5.533  20.406  0.00  0.00    +0.000 HD
ATOM     15  H   UNL     1       9.363   8.170  19.942  0.00  0.00    +0.000 HD
ENDROOT
BRANCH   1  16
ATOM     16  C   UNL     1       4.918   3.667  17.129  0.00  0.00    +0.000 C 
BRANCH  16  17
ATOM     17  C   UNL     1       3.614   4.195  17.819  0.00  0.00    +0.000 C 
ATOM     18  C   UNL     1       2.399   3.328  17.418  0.00  0.00    +0.000 C 
ATOM     19  C   UNL     1       2.423   1.950  18.063  0.00  0.00    +0.000 C 
ATOM     20  O   UNL     1       2.545   2.041  19.478  0.00  0.00    +0.000 OA
ATOM     21  C   UNL     1       3.719   2.732  19.896  0.00  0.00    +0.000 C 
ATOM     22  C   UNL     1       3.721   4.153  19.359  0.00  0.00    +0.000 C 
BRANCH  17  24
ATOM     23  C   UNL     1       2.627   6.337  18.464  0.00  0.00    +0.000 C 
ATOM     24  O   UNL     1       3.355   5.583  17.506  0.00  0.00    +0.000 OA
ENDBRANCH  17  24
ENDBRANCH  16  17
ENDBRANCH   1  16
TORSDOF 3
ENDMDL
MODEL 4
REMARK VINA RESULT:      -7.4      0.943      2.181
REMARK  Name = 
REMARK  4 active torsions:
REMARK  status: ('A' for Active; 'I' for Inactive)
REMARK    1  A    between atoms: C_1  and  O_2
REMARK    2  A    between atoms: O_2  and  C_3
REMARK    3  A    between atoms: C_3  and  C_4
REMARK    4  A    between atoms: C_4  and  N_5
REMARK                            x       y       z     vdW  Elec       q    Type
REMARK                         _______ _______ _______ _____ _____    ______ ____
ROOT
ATOM      1  N   UNL     1       4.270   2.985  17.951  0.00  0.00    +0.000 N 
ATOM      2  C   UNL     1       5.149   3.747  17.193  0.00  0.00    +0.000 A 
ATOM      3  N   UNL     1       5.877   4.711  17.796  0.00  0.00    +0.000 NA
ATOM      4  C   UNL     1       6.782   5.407  17.090  0.00  0.00    +0.000 A 
ATOM      5  N   UNL     1       7.536   6.370  17.743  0.00  0.00    +0.000 N 
ATOM      6  C   UNL     1       6.909   5.097  15.757  0.00  0.00    +0.000 A 
ATOM      7  N   UNL     1       7.682   5.551  14.726  0.00  0.00    +0.000 N 
ATOM      8  C   UNL     1       7.338   4.837  13.610  0.00  0.00    +0.000 A 
ATOM      9  N   UNL     1       6.388   3.965  13.867  0.00  0.00    +0.000 NA
ATOM     10  C   UNL     1       6.114   4.117  15.201  0.00  0.00    +0.000 A 
ATOM     11  N   UNL     1       5.207   3.419  15.901  0.00  0.00    +0.000 NA
ATOM     12  H   UNL     1       3.646   2.525  17.299  0.00  0.00    +0.000 HD
ATOM     13  H   UNL     1       7.414   6.263  18.745  0.00  0.00    +0.000 HD
ATOM     14  H   UNL     1       8.500   6.427  17.447  0.00  0.00    +0.000 HD
ATOM     15  H   UNL     1       8.375   6.283  14.776  0.00  0.00    +0.000 HD
ENDROOT
BRANCH   1  16
ATOM     16  C   UNL     1       3.671   3.632  19.112  0.00  0.00    +0.000 C 
BRANCH  16  17
ATOM     17  C   UNL     1       2.227   4.165  18.815  0.00  0.00    +0.000 C 
ATOM     18  C   UNL     1       1.472   4.448  20.134  0.00  0.00    +0.000 C 
ATOM     19  C   UNL     1       1.996   5.680  20.857  0.00  0.00    +0.000 C 
ATOM     20  O   UNL     1       1.993   6.822  20.008  0.00  0.00    +0.000 OA
ATOM     21  C   UNL     1       2.778   6.648  18.832  0.00  0.00    +0.000 C 
ATOM     22  C   UNL     1       2.255   5.482  18.010  0.00  0.00    +0.000 C 
BRANCH  17  24
ATOM     23  C   UNL     1       0.733   2.237  18.670  0.00  0.00    +0.000 C 
ATOM     24  O   UNL     1       1.465   3.249  17.996  0.00  0.00    +0.000 OA
ENDBRANCH  17  24
ENDBRANCH  16  17
ENDBRANCH   1  16
TORSDOF 3
ENDMDL
MODEL 5
REMARK VINA RESULT:      -7.2      2.330      3.561
REMARK  Name = 
REMARK  4 active torsions:
REMARK  status: ('A' for Active; 'I' for Inactive)
REMARK    1  A    between atoms: C_1  and  O_2
REMARK    2  A    between atoms: O_2  and  C_3
REMARK    3  A    between atoms: C_3  and  C_4
REMARK    4  A    between atoms: C_4  and  N_5
REMARK                            x       y       z     vdW  Elec       q    Type
REMARK                         _______ _______ _______ _____ _____    ______ ____
ROOT
ATOM      1  N   UNL     1       4.758   4.200  17.747  0.00  0.00    +0.000 N 
ATOM      2  C   UNL     1       5.758   5.085  18.125  0.00  0.00    +0.000 A 
ATOM      3  N   UNL     1       6.546   4.782  19.179  0.00  0.00    +0.000 NA
ATOM      4  C   UNL     1       7.561   5.594  19.512  0.00  0.00    +0.000 A 
ATOM      5  N   UNL     1       8.372   5.240  20.580  0.00  0.00    +0.000 N 
ATOM      6  C   UNL     1       7.737   6.723  18.748  0.00  0.00    +0.000 A 
ATOM      7  N   UNL     1       8.616   7.769  18.751  0.00  0.00    +0.000 N 
ATOM      8  C   UNL     1       8.269   8.600  17.722  0.00  0.00    +0.000 A 
ATOM      9  N   UNL     1       7.217   8.152  17.072  0.00  0.00    +0.000 NA
ATOM     10  C   UNL     1       6.879   6.984  17.701  0.00  0.00    +0.000 A 
ATOM     11  N   UNL     1       5.861   6.177  17.363  0.00  0.00    +0.000 NA
ATOM     12  H   UNL     1       4.130   4.712  17.139  0.00  0.00    +0.000 HD
ATOM     13  H   UNL     1       8.177   4.278  20.840  0.00  0.00    +0.000 HD
ATOM     14  H   UNL     1       9.352   5.445  20.456  0.00  0.00    +0.000 HD
ATOM     15  H   UNL     1       9.379   7.905  19.398  0.00  0.00    +0.000 HD
ENDROOT
BRANCH   1  16
ATOM     16  C   UNL     1       4.160   3.393  18.803  0.00  0.00    +0.000 C 
BRANCH  16  17
ATOM     17  C   UNL     1       2.600   3.531  18.846  0.00  0.00    +0.000 C 
ATOM     18  C   UNL     1       2.098   3.559  20.307  0.00  0.00    +0.000 C 
ATOM     19  C   UNL     1       2.433   4.862  21.018  0.00  0.00    +0.000 C 
ATOM     20  O   UNL     1       1.959   5.989  20.289  0.00  0.00    +0.000 OA
ATOM     21  C   UNL     1       2.493   6.069  18.971  0.00  0.00    +0.000 C 
ATOM     22  C   UNL     1       2.120   4.833  18.169  0.00  0.00    +0.000 C 
BRANCH  17  24
ATOM     23  C   UNL     1       0.708   1.997  18.641  0.00  0.00    +0.000 C 
ATOM     24  O   UNL     1       1.939   2.472  18.116  0.00  0.00    +0.000 OA
ENDBRANCH  17  24
ENDBRANCH  16  17
ENDBRANCH   1  16
TORSDOF 3
ENDMDL
MODEL 6
REMARK VINA RESULT:      -7.2      3.023      6.351
REMARK  Name = 
REMARK  4 active torsions:
REMARK  status: ('A' for Active; 'I' for Inactive)
REMARK    1  A    between atoms: C_1  and  O_2
REMARK    2  A    between atoms: O_2  and  C_3
REMARK    3  A    between atoms: C_3  and  C_4
REMARK    4  A    between atoms: C_4  and  N_5
REMARK                            x       y       z     vdW  Elec       q    Type
REMARK                         _______ _______ _______ _____ _____    ______ ____
ROOT
ATOM      1  N   UNL     1       3.934   4.669  17.181  0.00  0.00    +0.000 N 
ATOM      2  C   UNL     1       3.617   3.959  18.332  0.00  0.00    +0.000 A 
ATOM      3  N   UNL     1       4.524   3.106  18.853  0.00  0.00    +0.000 NA
ATOM      4  C   UNL     1       4.257   2.467  20.004  0.00  0.00    +0.000 A 
ATOM      5  N   UNL     1       5.220   1.621  20.531  0.00  0.00    +0.000 N 
ATOM      6  C   UNL     1       3.041   2.717  20.592  0.00  0.00    +0.000 A 
ATOM      7  N   UNL     1       2.404   2.289  21.723  0.00  0.00    +0.000 N 
ATOM      8  C   UNL     1       1.183   2.905  21.765  0.00  0.00    +0.000 A 
ATOM      9  N   UNL     1       1.001   3.690  20.726  0.00  0.00    +0.000 NA
ATOM     10  C   UNL     1       2.151   3.582  19.990  0.00  0.00    +0.000 A 
ATOM     11  N   UNL     1       2.411   4.223  18.840  0.00  0.00    +0.000 NA
ATOM     12  H   UNL     1       3.063   5.029  16.811  0.00  0.00    +0.000 HD
ATOM     13  H   UNL     1       6.096   1.768  20.039  0.00  0.00    +0.000 HD
ATOM     14  H   UNL     1       5.301   1.644  21.537  0.00  0.00    +0.000 HD
ATOM     15  H   UNL     1       2.766   1.633  22.399  0.00  0.00    +0.000 HD
ENDROOT
BRANCH   1  16
ATOM     16  C   UNL     1       4.849   4.028  16.245  0.00  0.00    +0.000 C 
BRANCH  16  17
ATOM     17  C   UNL     1       5.978   4.999  15.758  0.00  0.00    +0.000 C 
ATOM     18  C   UNL     1       5.759   6.417  16.333  0.00  0.00    +0.000 C 
ATOM     19  C   UNL     1       6.054   6.498  17.824  0.00  0.00    +0.000 C 
ATOM     20  O   UNL     1       7.360   6.019  18.121  0.00  0.00    +0.000 OA
ATOM     21  C   UNL     1       7.568   4.669  17.715  0.00  0.00    +0.000 C 
ATOM     22  C   UNL     1       7.376   4.529  16.214  0.00  0.00    +0.000 C 
BRANCH  17  24
ATOM     23  C   UNL     1       6.014   3.824  13.615  0.00  0.00    +0.000 C 
ATOM     24  O   UNL     1       6.062   5.058  14.316  0.00  0.00    +0.000 OA
ENDBRANCH  17  24
ENDBRANCH  16  17
ENDBRANCH   1  16
TORSDOF 3
ENDMDL
MODEL 7
REMARK VINA RESULT:      -7.2      1.099      2.140
REMARK  Name = 
REMARK  4 active torsions:
REMARK  status: ('A' for Active; 'I' for Inactive)
REMARK    1  A    between atoms: C_1  and  O_2
REMARK    2  A    between atoms: O_2  and  C_3
REMARK    3  A    between atoms: C_3  and  C_4
REMARK    4  A    between atoms: C_4  and  N_5
REMARK                            x       y       z     vdW  Elec       q    Type
REMARK                         _______ _______ _______ _____ _____    ______ ____
ROOT
ATOM      1  N   UNL     1       4.973   3.173  18.247  0.00  0.00    +0.000 N 
ATOM      2  C   UNL     1       5.611   3.885  17.240  0.00  0.00    +0.000 A 
ATOM      3  N   UNL     1       6.257   5.029  17.547  0.00  0.00    +0.000 NA
ATOM      4  C   UNL     1       6.938   5.690  16.597  0.00  0.00    +0.000 A 
ATOM      5  N   UNL     1       7.617   6.846  16.949  0.00  0.00    +0.000 N 
ATOM      6  C   UNL     1       6.926   5.153  15.331  0.00  0.00    +0.000 A 
ATOM      7  N   UNL     1       7.470   5.500  14.127  0.00  0.00    +0.000 N 
ATOM      8  C   UNL     1       7.091   4.551  13.217  0.00  0.00    +0.000 A 
ATOM      9  N   UNL     1       6.331   3.629  13.767  0.00  0.00    +0.000 NA
ATOM     10  C   UNL     1       6.223   3.994  15.083  0.00  0.00    +0.000 A 
ATOM     11  N   UNL     1       5.540   3.329  16.028  0.00  0.00    +0.000 NA
ATOM     12  H   UNL     1       4.343   2.524  17.792  0.00  0.00    +0.000 HD
ATOM     13  H   UNL     1       7.652   6.915  17.961  0.00  0.00    +0.000 HD
ATOM     14  H   UNL     1       8.510   6.969  16.494  0.00  0.00    +0.000 HD
ATOM     15  H   UNL     1       8.042   6.311  13.941  0.00  0.00    +0.000 HD
ENDROOT
BRANCH   1  16
ATOM     16  C   UNL     1       4.447   3.945  19.366  0.00  0.00    +0.000 C 
BRANCH  16  17
ATOM     17  C   UNL     1       2.993   3.509  19.758  0.00  0.00    +0.000 C 
ATOM     18  C   UNL     1       2.012   4.694  19.605  0.00  0.00    +0.000 C 
ATOM     19  C   UNL     1       1.732   5.040  18.150  0.00  0.00    +0.000 C 
ATOM     20  O   UNL     1       1.282   3.903  17.423  0.00  0.00    +0.000 OA
ATOM     21  C   UNL     1       2.213   2.824  17.436  0.00  0.00    +0.000 C 
ATOM     22  C   UNL     1       2.475   2.365  18.860  0.00  0.00    +0.000 C 
BRANCH  17  24
ATOM     23  C   UNL     1       1.634   2.807  21.664  0.00  0.00    +0.000 C 
ATOM     24  O   UNL     1       2.926   2.982  21.102  0.00  0.00    +0.000 OA
ENDBRANCH  17  24
ENDBRANCH  16  17
ENDBRANCH   1  16
TORSDOF 3
ENDMDL
MODEL 8
REMARK VINA RESULT:      -7.1      3.002      5.979
REMARK  Name = 
REMARK  4 active torsions:
REMARK  status: ('A' for Active; 'I' for Inactive)
REMARK    1  A    between atoms: C_1  and  O_2
REMARK    2  A    between atoms: O_2  and  C_3
REMARK    3  A    between atoms: C_3  and  C_4
REMARK    4  A    between atoms: C_4  and  N_5
REMARK                            x       y       z     vdW  Elec       q    Type
REMARK                         _______ _______ _______ _____ _____    ______ ____
ROOT
ATOM      1  N   UNL     1       6.052   5.726  19.058  0.00  0.00    +0.000 N 
ATOM      2  C   UNL     1       5.079   4.796  19.401  0.00  0.00    +0.000 A 
ATOM      3  N   UNL     1       5.406   3.488  19.456  0.00  0.00    +0.000 NA
ATOM      4  C   UNL     1       4.495   2.586  19.854  0.00  0.00    +0.000 A 
ATOM      5  N   UNL     1       4.869   1.253  19.930  0.00  0.00    +0.000 N 
ATOM      6  C   UNL     1       3.246   3.059  20.181  0.00  0.00    +0.000 A 
ATOM      7  N   UNL     1       2.079   2.497  20.614  0.00  0.00    +0.000 N 
ATOM      8  C   UNL     1       1.167   3.506  20.762  0.00  0.00    +0.000 A 
ATOM      9  N   UNL     1       1.680   4.673  20.439  0.00  0.00    +0.000 NA
ATOM     10  C   UNL     1       2.974   4.407  20.077  0.00  0.00    +0.000 A 
ATOM     11  N   UNL     1       3.880   5.313  19.679  0.00  0.00    +0.000 NA
ATOM     12  H   UNL     1       5.566   6.580  18.815  0.00  0.00    +0.000 HD
ATOM     13  H   UNL     1       5.879   1.187  19.849  0.00  0.00    +0.000 HD
ATOM     14  H   UNL     1       4.482   0.747  20.713  0.00  0.00    +0.000 HD
ATOM     15  H   UNL     1       1.918   1.516  20.788  0.00  0.00    +0.000 HD
ENDROOT
BRANCH   1  16
ATOM     16  C   UNL     1       7.106   5.273  18.160  0.00  0.00    +0.000 C 
BRANCH  16  17
ATOM     17  C   UNL     1       7.005   5.938  16.744  0.00  0.00    +0.000 C 
ATOM     18  C   UNL     1       7.362   4.917  15.639  0.00  0.00    +0.000 C 
ATOM     19  C   UNL     1       6.281   3.864  15.443  0.00  0.00    +0.000 C 
ATOM     20  O   UNL     1       5.012   4.461  15.202  0.00  0.00    +0.000 OA
ATOM     21  C   UNL     1       4.588   5.321  16.256  0.00  0.00    +0.000 C 
ATOM     22  C   UNL     1       5.580   6.454  16.451  0.00  0.00    +0.000 C 
BRANCH  17  24
ATOM     23  C   UNL     1       7.639   8.151  17.567  0.00  0.00    +0.000 C 
ATOM     24  O   UNL     1       7.850   7.106  16.629  0.00  0.00    +0.000 OA
ENDBRANCH  17  24
ENDBRANCH  16  17
ENDBRANCH   1  16
TORSDOF 3
ENDMDL
MODEL 9
REMARK VINA RESULT:      -7.1      1.414      2.149
REMARK  Name = 
REMARK  4 active torsions:
REMARK  status: ('A' for Active; 'I' for Inactive)
REMARK    1  A    between atoms: C_1  and  O_2
REMARK    2  A    between atoms: O_2  and  C_3
REMARK    3  A    between atoms: C_3  and  C_4
REMARK    4  A    between atoms: C_4  and  N_5
REMARK                            x       y       z     vdW  Elec       q    Type
REMARK                         _______ _______ _______ _____ _____    ______ ____
ROOT
ATOM      1  N   UNL     1       4.081   3.484  16.957  0.00  0.00    +0.000 N 
ATOM      2  C   UNL     1       5.069   4.118  16.215  0.00  0.00    +0.000 A 
ATOM      3  N   UNL     1       5.833   5.063  16.803  0.00  0.00    +0.000 NA
ATOM      4  C   UNL     1       6.838   5.633  16.119  0.00  0.00    +0.000 A 
ATOM      5  N   UNL     1       7.625   6.578  16.759  0.00  0.00    +0.000 N 
ATOM      6  C   UNL     1       7.028   5.217  14.823  0.00  0.00    +0.000 A 
ATOM      7  N   UNL     1       7.903   5.532  13.822  0.00  0.00    +0.000 N 
ATOM      8  C   UNL     1       7.577   4.768  12.736  0.00  0.00    +0.000 A 
ATOM      9  N   UNL     1       6.542   3.994  12.981  0.00  0.00    +0.000 NA
ATOM     10  C   UNL     1       6.193   4.265  14.278  0.00  0.00    +0.000 A 
ATOM     11  N   UNL     1       5.186   3.692  14.955  0.00  0.00    +0.000 NA
ATOM     12  H   UNL     1       3.466   3.029  16.294  0.00  0.00    +0.000 HD
ATOM     13  H   UNL     1       7.427   6.555  17.755  0.00  0.00    +0.000 HD
ATOM     14  H   UNL     1       8.607   6.538  16.531  0.00  0.00    +0.000 HD
ATOM     15  H   UNL     1       8.650   6.209  13.874  0.00  0.00    +0.000 HD
ENDROOT
BRANCH   1  16
ATOM     16  C   UNL     1       3.462   4.260  18.024  0.00  0.00    +0.000 C 
BRANCH  16  17
ATOM     17  C   UNL     1       3.406   3.469  19.377  0.00  0.00    +0.000 C 
ATOM     18  C   UNL     1       2.827   4.358  20.501  0.00  0.00    +0.000 C 
ATOM     19  C   UNL     1       1.332   4.598  20.348  0.00  0.00    +0.000 C 
ATOM     20  O   UNL     1       0.617   3.373  20.241  0.00  0.00    +0.000 OA
ATOM     21  C   UNL     1       1.038   2.572  19.141  0.00  0.00    +0.000 C 
ATOM     22  C   UNL     1       2.509   2.216  19.273  0.00  0.00    +0.000 C 
BRANCH  17  24
ATOM     23  C   UNL     1       4.725   1.785  20.559  0.00  0.00    +0.000 C 
ATOM     24  O   UNL     1       4.703   2.962  19.766  0.00  0.00    +0.000 OA
ENDBRANCH  17  24
ENDBRANCH  16  17
ENDBRANCH   1  16
TORSDOF 3
ENDMDL
