MODEL 1
REMARK VINA RESULT:      -7.3      0.000      0.000
REMARK  Name = 
REMARK  10 active torsions:
REMARK  status: ('A' for Active; 'I' for Inactive)
REMARK    1  A    between atoms: C_1  and  O_2
REMARK    2  A    between atoms: O_2  and  C_3
REMARK    3  A    between atoms: C_6  and  C_7
REMARK    4  A    between atoms: C_7  and  C_9
REMARK    5  A    between atoms: C_10  and  O_11
REMARK    6  A    between atoms: N_14  and  C_15
REMARK    7  A    between atoms: C_15  and  C_16
REMARK    8  A    between atoms: C_22  and  C_23
REMARK    9  A    between atoms: C_29  and  O_30
REMARK   10  A    between atoms: O_30  and  C_31
REMARK                            x       y       z     vdW  Elec       q    Type
REMARK                         _______ _______ _______ _____ _____    ______ ____
ROOT
ATOM      1  C   UNL     1       0.220  10.195  21.444  0.00  0.00    +0.000 C 
ATOM      2  C   UNL     1      -0.622  10.451  22.458  0.00  0.00    +0.000 C 
ATOM      3  C   UNL     1      -1.581  11.493  21.994  0.00  0.00    +0.000 C 
ATOM      4  O   UNL     1      -2.509  11.937  22.627  0.00  0.00    +0.000 OA
ATOM      5  N   UNL     1      -1.200  11.831  20.710  0.00  0.00    +0.000 N 
ATOM      6  C   UNL     1      -0.056  11.068  20.256  0.00  0.00    +0.000 C 
ENDROOT
BRANCH   6   7
ATOM      7  C   UNL     1       1.030  12.014  19.884  0.00  0.00    +0.000 A 
ATOM      8  C   UNL     1       1.618  12.352  18.681  0.00  0.00    +0.000 A 
ATOM      9  C   UNL     1       2.596  13.326  18.979  0.00  0.00    +0.000 A 
ATOM     10  C   UNL     1       2.568  13.498  20.342  0.00  0.00    +0.000 A 
ATOM     11  O   UNL     1       1.629  12.693  20.904  0.00  0.00    +0.000 OA
ENDBRANCH   6   7
BRANCH   1  12
ATOM     12  C   UNL     1       1.318   9.214  21.618  0.00  0.00    +0.000 C 
ATOM     13  O   UNL     1       1.970   9.226  22.666  0.00  0.00    +0.000 OA
BRANCH  12  17
ATOM     14  C   UNL     1       2.400   6.233  18.676  0.00  0.00    +0.000 A 
ATOM     15  C   UNL     1       2.266   7.584  18.315  0.00  0.00    +0.000 A 
ATOM     16  C   UNL     1       1.925   8.569  19.248  0.00  0.00    +0.000 A 
ATOM     17  C   UNL     1       1.676   8.221  20.571  0.00  0.00    +0.000 A 
ATOM     18  C   UNL     1       1.691   6.860  20.906  0.00  0.00    +0.000 A 
ATOM     19  C   UNL     1       2.071   5.860  19.990  0.00  0.00    +0.000 A 
BRANCH  14  21
ATOM     20  C   UNL     1       4.188   5.395  17.364  0.00  0.00    +0.000 C 
ATOM     21  O   UNL     1       2.814   5.297  17.766  0.00  0.00    +0.000 OA
ENDBRANCH  14  21
BRANCH  19  22
ATOM     22  O   UNL     1       2.079   4.636  20.594  0.00  0.00    +0.000 OA
ATOM     23  C   UNL     1       1.039   3.698  20.397  0.00  0.00    +0.000 C 
ENDBRANCH  19  22
ENDBRANCH  12  17
ENDBRANCH   1  12
BRANCH   2  24
ATOM     24  O   UNL     1      -0.656   9.903  23.710  0.00  0.00    +0.000 OA
ATOM     25  H   UNL     1      -1.040   9.004  23.629  0.00  0.00    +0.000 HD
ENDBRANCH   2  24
BRANCH   5  26
ATOM     26  C   UNL     1      -1.937  12.760  19.863  0.00  0.00    +0.000 C 
BRANCH  26  27
ATOM     27  C   UNL     1      -2.675  12.071  18.748  0.00  0.00    +0.000 A 
ATOM     28  C   UNL     1      -2.013  11.641  17.595  0.00  0.00    +0.000 A 
ATOM     29  C   UNL     1      -2.735  11.094  16.540  0.00  0.00    +0.000 A 
ATOM     30  C   UNL     1      -4.104  10.958  16.688  0.00  0.00    +0.000 A 
ATOM     31  N   UNL     1      -4.776  11.302  17.808  0.00  0.00    +0.000 NA
ATOM     32  C   UNL     1      -4.047  11.843  18.812  0.00  0.00    +0.000 A 
ENDBRANCH  26  27
ENDBRANCH   5  26
TORSDOF 8
ENDMDL
MODEL 2
REMARK VINA RESULT:      -6.9      0.780      1.261
REMARK  Name = 
REMARK  10 active torsions:
REMARK  status: ('A' for Active; 'I' for Inactive)
REMARK    1  A    between atoms: C_1  and  O_2
REMARK    2  A    between atoms: O_2  and  C_3
REMARK    3  A    between atoms: C_6  and  C_7
REMARK    4  A    between atoms: C_7  and  C_9
REMARK    5  A    between atoms: C_10  and  O_11
REMARK    6  A    between atoms: N_14  and  C_15
REMARK    7  A    between atoms: C_15  and  C_16
REMARK    8  A    between atoms: C_22  and  C_23
REMARK    9  A    between atoms: C_29  and  O_30
REMARK   10  A    between atoms: O_30  and  C_31
REMARK                            x       y       z     vdW  Elec       q    Type
REMARK                         _______ _______ _______ _____ _____    ______ ____
ROOT
ATOM      1  C   UNL     1       0.203  10.256  21.431  0.00  0.00    +0.000 C 
ATOM      2  C   UNL     1      -0.628  10.515  22.454  0.00  0.00    +0.000 C 
ATOM      3  C   UNL     1      -1.588  11.559  22.000  0.00  0.00    +0.000 C 
ATOM      4  O   UNL     1      -2.508  12.006  22.643  0.00  0.00    +0.000 OA
ATOM      5  N   UNL     1      -1.222  11.895  20.712  0.00  0.00    +0.000 N 
ATOM      6  C   UNL     1      -0.085  11.129  20.245  0.00  0.00    +0.000 C 
ENDROOT
BRANCH   6   7
ATOM      7  C   UNL     1       1.000  12.071  19.861  0.00  0.00    +0.000 A 
ATOM      8  C   UNL     1       1.754  12.983  20.571  0.00  0.00    +0.000 A 
ATOM      9  C   UNL     1       2.638  13.576  19.642  0.00  0.00    +0.000 A 
ATOM     10  C   UNL     1       2.348  13.013  18.422  0.00  0.00    +0.000 A 
ATOM     11  O   UNL     1       1.343  12.108  18.541  0.00  0.00    +0.000 OA
ENDBRANCH   6   7
BRANCH   1  12
ATOM     12  C   UNL     1       1.299   9.272  21.594  0.00  0.00    +0.000 C 
ATOM     13  O   UNL     1       1.954   9.274  22.640  0.00  0.00    +0.000 OA
BRANCH  12  17
ATOM     14  C   UNL     1       2.371   6.315  18.624  0.00  0.00    +0.000 A 
ATOM     15  C   UNL     1       2.224   7.667  18.272  0.00  0.00    +0.000 A 
ATOM     16  C   UNL     1       1.886   8.645  19.214  0.00  0.00    +0.000 A 
ATOM     17  C   UNL     1       1.653   8.287  20.537  0.00  0.00    +0.000 A 
ATOM     18  C   UNL     1       1.682   6.925  20.865  0.00  0.00    +0.000 A 
ATOM     19  C   UNL     1       2.058   5.933  19.939  0.00  0.00    +0.000 A 
BRANCH  14  21
ATOM     20  C   UNL     1       4.170   5.029  17.770  0.00  0.00    +0.000 C 
ATOM     21  O   UNL     1       2.782   5.387  17.704  0.00  0.00    +0.000 OA
ENDBRANCH  14  21
BRANCH  19  22
ATOM     22  O   UNL     1       2.082   4.706  20.536  0.00  0.00    +0.000 OA
ATOM     23  C   UNL     1       1.026   3.778  20.381  0.00  0.00    +0.000 C 
ENDBRANCH  19  22
ENDBRANCH  12  17
ENDBRANCH   1  12
BRANCH   2  24
ATOM     24  O   UNL     1      -0.649   9.969  23.707  0.00  0.00    +0.000 OA
ATOM     25  H   UNL     1      -0.228   9.084  23.651  0.00  0.00    +0.000 HD
ENDBRANCH   2  24
BRANCH   5  26
ATOM     26  C   UNL     1      -1.966  12.825  19.871  0.00  0.00    +0.000 C 
BRANCH  26  27
ATOM     27  C   UNL     1      -3.199  12.208  19.270  0.00  0.00    +0.000 A 
ATOM     28  C   UNL     1      -4.472  12.491  19.772  0.00  0.00    +0.000 A 
ATOM     29  C   UNL     1      -5.584  11.832  19.259  0.00  0.00    +0.000 A 
ATOM     30  C   UNL     1      -5.390  10.931  18.227  0.00  0.00    +0.000 A 
ATOM     31  N   UNL     1      -4.187  10.673  17.672  0.00  0.00    +0.000 NA
ATOM     32  C   UNL     1      -3.123  11.321  18.199  0.00  0.00    +0.000 A 
ENDBRANCH  26  27
ENDBRANCH   5  26
TORSDOF 8
ENDMDL
MODEL 3
REMARK VINA RESULT:      -6.7      2.135      4.419
REMARK  Name = 
REMARK  10 active torsions:
REMARK  status: ('A' for Active; 'I' for Inactive)
REMARK    1  A    between atoms: C_1  and  O_2
REMARK    2  A    between atoms: O_2  and  C_3
REMARK    3  A    between atoms: C_6  and  C_7
REMARK    4  A    between atoms: C_7  and  C_9
REMARK    5  A    between atoms: C_10  and  O_11
REMARK    6  A    between atoms: N_14  and  C_15
REMARK    7  A    between atoms: C_15  and  C_16
REMARK    8  A    between atoms: C_22  and  C_23
REMARK    9  A    between atoms: C_29  and  O_30
REMARK   10  A    between atoms: O_30  and  C_31
REMARK                            x       y       z     vdW  Elec       q    Type
REMARK                         _______ _______ _______ _____ _____    ______ ____
ROOT
ATOM      1  C   UNL     1       0.238  11.367  18.963  0.00  0.00    +0.000 C 
ATOM      2  C   UNL     1       0.571  12.647  19.190  0.00  0.00    +0.000 C 
ATOM      3  C   UNL     1      -0.663  13.366  19.611  0.00  0.00    +0.000 C 
ATOM      4  O   UNL     1      -0.732  14.527  19.940  0.00  0.00    +0.000 OA
ATOM      5  N   UNL     1      -1.690  12.445  19.559  0.00  0.00    +0.000 N 
ATOM      6  C   UNL     1      -1.232  11.132  19.151  0.00  0.00    +0.000 C 
ENDROOT
BRANCH   6   7
ATOM      7  C   UNL     1      -1.980  10.723  17.933  0.00  0.00    +0.000 A 
ATOM      8  C   UNL     1      -2.738   9.612  17.618  0.00  0.00    +0.000 A 
ATOM      9  C   UNL     1      -3.201   9.810  16.298  0.00  0.00    +0.000 A 
ATOM     10  C   UNL     1      -2.674  11.009  15.880  0.00  0.00    +0.000 A 
ATOM     11  O   UNL     1      -1.918  11.565  16.861  0.00  0.00    +0.000 OA
ENDBRANCH   6   7
BRANCH   1  12
ATOM     12  C   UNL     1       1.261  10.403  18.495  0.00  0.00    +0.000 C 
ATOM     13  O   UNL     1       1.942  10.687  17.505  0.00  0.00    +0.000 OA
BRANCH  12  17
ATOM     14  C   UNL     1       1.948   6.535  20.307  0.00  0.00    +0.000 A 
ATOM     15  C   UNL     1       1.334   7.570  21.032  0.00  0.00    +0.000 A 
ATOM     16  C   UNL     1       1.092   8.827  20.467  0.00  0.00    +0.000 A 
ATOM     17  C   UNL     1       1.492   9.094  19.162  0.00  0.00    +0.000 A 
ATOM     18  C   UNL     1       2.212   8.104  18.480  0.00  0.00    +0.000 A 
ATOM     19  C   UNL     1       2.428   6.821  19.018  0.00  0.00    +0.000 A 
BRANCH  14  21
ATOM     20  C   UNL     1       1.123   4.317  20.450  0.00  0.00    +0.000 C 
ATOM     21  O   UNL     1       2.102   5.287  20.851  0.00  0.00    +0.000 OA
ENDBRANCH  14  21
BRANCH  19  22
ATOM     22  O   UNL     1       3.081   6.029  18.118  0.00  0.00    +0.000 OA
ATOM     23  C   UNL     1       4.457   5.728  18.245  0.00  0.00    +0.000 C 
ENDBRANCH  19  22
ENDBRANCH  12  17
ENDBRANCH   1  12
BRANCH   2  24
ATOM     24  O   UNL     1       1.791  13.253  19.074  0.00  0.00    +0.000 OA
ATOM     25  H   UNL     1       1.641  14.223  19.070  0.00  0.00    +0.000 HD
ENDBRANCH   2  24
BRANCH   5  26
ATOM     26  C   UNL     1      -3.057  12.726  19.981  0.00  0.00    +0.000 C 
BRANCH  26  27
ATOM     27  C   UNL     1      -3.159  13.041  21.448  0.00  0.00    +0.000 A 
ATOM     28  C   UNL     1      -2.723  12.134  22.418  0.00  0.00    +0.000 A 
ATOM     29  C   UNL     1      -2.918  12.411  23.767  0.00  0.00    +0.000 A 
ATOM     30  C   UNL     1      -3.513  13.613  24.107  0.00  0.00    +0.000 A 
ATOM     31  N   UNL     1      -3.893  14.543  23.206  0.00  0.00    +0.000 NA
ATOM     32  C   UNL     1      -3.702  14.241  21.901  0.00  0.00    +0.000 A 
ENDBRANCH  26  27
ENDBRANCH   5  26
TORSDOF 8
ENDMDL
MODEL 4
REMARK VINA RESULT:      -6.5      3.907      8.676
REMARK  Name = 
REMARK  10 active torsions:
REMARK  status: ('A' for Active; 'I' for Inactive)
REMARK    1  A    between atoms: C_1  and  O_2
REMARK    2  A    between atoms: O_2  and  C_3
REMARK    3  A    between atoms: C_6  and  C_7
REMARK    4  A    between atoms: C_7  and  C_9
REMARK    5  A    between atoms: C_10  and  O_11
REMARK    6  A    between atoms: N_14  and  C_15
REMARK    7  A    between atoms: C_15  and  C_16
REMARK    8  A    between atoms: C_22  and  C_23
REMARK    9  A    between atoms: C_29  and  O_30
REMARK   10  A    between atoms: O_30  and  C_31
REMARK                            x       y       z     vdW  Elec       q    Type
REMARK                         _______ _______ _______ _____ _____    ______ ____
ROOT
ATOM      1  C   UNL     1       3.216   5.004  18.641  0.00  0.00    +0.000 C 
ATOM      2  C   UNL     1       2.391   4.471  17.725  0.00  0.00    +0.000 C 
ATOM      3  C   UNL     1       3.221   3.662  16.790  0.00  0.00    +0.000 C 
ATOM      4  O   UNL     1       2.811   3.002  15.865  0.00  0.00    +0.000 OA
ATOM      5  N   UNL     1       4.532   3.813  17.198  0.00  0.00    +0.000 N 
ATOM      6  C   UNL     1       4.650   4.655  18.370  0.00  0.00    +0.000 C 
ENDROOT
BRANCH   6   7
ATOM      7  C   UNL     1       5.541   5.801  18.047  0.00  0.00    +0.000 A 
ATOM      8  C   UNL     1       5.397   6.912  17.240  0.00  0.00    +0.000 A 
ATOM      9  C   UNL     1       6.599   7.645  17.355  0.00  0.00    +0.000 A 
ATOM     10  C   UNL     1       7.411   6.922  18.197  0.00  0.00    +0.000 A 
ATOM     11  O   UNL     1       6.783   5.792  18.611  0.00  0.00    +0.000 OA
ENDBRANCH   6   7
BRANCH   1  12
ATOM     12  C   UNL     1       2.679   5.894  19.697  0.00  0.00    +0.000 C 
ATOM     13  O   UNL     1       2.629   5.481  20.860  0.00  0.00    +0.000 OA
BRANCH  12  17
ATOM     14  C   UNL     1       1.147   9.875  18.976  0.00  0.00    +0.000 A 
ATOM     15  C   UNL     1       1.811   9.166  17.961  0.00  0.00    +0.000 A 
ATOM     16  C   UNL     1       2.308   7.874  18.166  0.00  0.00    +0.000 A 
ATOM     17  C   UNL     1       2.183   7.267  19.410  0.00  0.00    +0.000 A 
ATOM     18  C   UNL     1       1.629   8.018  20.455  0.00  0.00    +0.000 A 
ATOM     19  C   UNL     1       1.088   9.303  20.257  0.00  0.00    +0.000 A 
BRANCH  14  21
ATOM     20  C   UNL     1      -0.821  11.109  18.501  0.00  0.00    +0.000 C 
ATOM     21  O   UNL     1       0.596  11.105  18.731  0.00  0.00    +0.000 OA
ENDBRANCH  14  21
BRANCH  19  22
ATOM     22  O   UNL     1       0.542   9.776  21.416  0.00  0.00    +0.000 OA
ATOM     23  C   UNL     1      -0.342   8.997  22.198  0.00  0.00    +0.000 C 
ENDBRANCH  19  22
ENDBRANCH  12  17
ENDBRANCH   1  12
BRANCH   2  24
ATOM     24  O   UNL     1       1.036   4.602  17.605  0.00  0.00    +0.000 OA
ATOM     25  H   UNL     1       0.862   5.198  16.845  0.00  0.00    +0.000 HD
ENDBRANCH   2  24
BRANCH   5  26
ATOM     26  C   UNL     1       5.657   3.110  16.595  0.00  0.00    +0.000 C 
BRANCH  26  27
ATOM     27  C   UNL     1       6.153   3.775  15.340  0.00  0.00    +0.000 A 
ATOM     28  C   UNL     1       5.599   3.477  14.092  0.00  0.00    +0.000 A 
ATOM     29  C   UNL     1       6.141   4.035  12.939  0.00  0.00    +0.000 A 
ATOM     30  C   UNL     1       7.205   4.909  13.074  0.00  0.00    +0.000 A 
ATOM     31  N   UNL     1       7.731   5.271  14.264  0.00  0.00    +0.000 NA
ATOM     32  C   UNL     1       7.190   4.704  15.367  0.00  0.00    +0.000 A 
ENDBRANCH  26  27
ENDBRANCH   5  26
TORSDOF 8
ENDMDL
MODEL 5
REMARK VINA RESULT:      -6.5      1.019      1.828
REMARK  Name = 
REMARK  10 active torsions:
REMARK  status: ('A' for Active; 'I' for Inactive)
REMARK    1  A    between atoms: C_1  and  O_2
REMARK    2  A    between atoms: O_2  and  C_3
REMARK    3  A    between atoms: C_6  and  C_7
REMARK    4  A    between atoms: C_7  and  C_9
REMARK    5  A    between atoms: C_10  and  O_11
REMARK    6  A    between atoms: N_14  and  C_15
REMARK    7  A    between atoms: C_15  and  C_16
REMARK    8  A    between atoms: C_22  and  C_23
REMARK    9  A    between atoms: C_29  and  O_30
REMARK   10  A    between atoms: O_30  and  C_31
REMARK                            x       y       z     vdW  Elec       q    Type
REMARK                         _______ _______ _______ _____ _____    ______ ____
ROOT
ATOM      1  C   UNL     1       0.187  10.112  21.327  0.00  0.00    +0.000 C 
ATOM      2  C   UNL     1      -0.669  10.510  22.282  0.00  0.00    +0.000 C 
ATOM      3  C   UNL     1      -1.609  11.486  21.665  0.00  0.00    +0.000 C 
ATOM      4  O   UNL     1      -2.543  12.019  22.216  0.00  0.00    +0.000 OA
ATOM      5  N   UNL     1      -1.204  11.645  20.354  0.00  0.00    +0.000 N 
ATOM      6  C   UNL     1      -0.061  10.819  20.027  0.00  0.00    +0.000 C 
ENDROOT
BRANCH   6   7
ATOM      7  C   UNL     1       1.041  11.697  19.551  0.00  0.00    +0.000 A 
ATOM      8  C   UNL     1       1.642  12.826  20.072  0.00  0.00    +0.000 A 
ATOM      9  C   UNL     1       2.645  13.202  19.151  0.00  0.00    +0.000 A 
ATOM     10  C   UNL     1       2.573  12.302  18.114  0.00  0.00    +0.000 A 
ATOM     11  O   UNL     1       1.591  11.392  18.340  0.00  0.00    +0.000 OA
ENDBRANCH   6   7
BRANCH   1  12
ATOM     12  C   UNL     1       1.271   9.155  21.652  0.00  0.00    +0.000 C 
ATOM     13  O   UNL     1       1.977   9.364  22.643  0.00  0.00    +0.000 OA
BRANCH  12  17
ATOM     14  C   UNL     1       2.101   5.751  19.115  0.00  0.00    +0.000 A 
ATOM     15  C   UNL     1       1.536   5.577  20.389  0.00  0.00    +0.000 A 
ATOM     16  C   UNL     1       1.250   6.662  21.226  0.00  0.00    +0.000 A 
ATOM     17  C   UNL     1       1.555   7.956  20.819  0.00  0.00    +0.000 A 
ATOM     18  C   UNL     1       2.227   8.121  19.601  0.00  0.00    +0.000 A 
ATOM     19  C   UNL     1       2.487   7.046  18.729  0.00  0.00    +0.000 A 
BRANCH  14  21
ATOM     20  C   UNL     1       3.375   3.808  18.642  0.00  0.00    +0.000 C 
ATOM     21  O   UNL     1       2.298   4.684  18.278  0.00  0.00    +0.000 OA
ENDBRANCH  14  21
BRANCH  19  22
ATOM     22  O   UNL     1       3.076   7.492  17.582  0.00  0.00    +0.000 OA
ATOM     23  C   UNL     1       4.401   7.139  17.235  0.00  0.00    +0.000 C 
ENDBRANCH  19  22
ENDBRANCH  12  17
ENDBRANCH   1  12
BRANCH   2  24
ATOM     24  O   UNL     1      -0.729  10.136  23.596  0.00  0.00    +0.000 OA
ATOM     25  H   UNL     1       0.068  10.495  24.042  0.00  0.00    +0.000 HD
ENDBRANCH   2  24
BRANCH   5  26
ATOM     26  C   UNL     1      -1.918  12.457  19.376  0.00  0.00    +0.000 C 
BRANCH  26  27
ATOM     27  C   UNL     1      -2.590  11.630  18.313  0.00  0.00    +0.000 A 
ATOM     28  C   UNL     1      -1.860  10.757  17.502  0.00  0.00    +0.000 A 
ATOM     29  C   UNL     1      -2.491  10.079  16.466  0.00  0.00    +0.000 A 
ATOM     30  C   UNL     1      -3.852  10.268  16.295  0.00  0.00    +0.000 A 
ATOM     31  N   UNL     1      -4.605  11.053  17.093  0.00  0.00    +0.000 NA
ATOM     32  C   UNL     1      -3.961  11.709  18.085  0.00  0.00    +0.000 A 
ENDBRANCH  26  27
ENDBRANCH   5  26
TORSDOF 8
ENDMDL
MODEL 6
REMARK VINA RESULT:      -6.5      0.901      1.891
REMARK  Name = 
REMARK  10 active torsions:
REMARK  status: ('A' for Active; 'I' for Inactive)
REMARK    1  A    between atoms: C_1  and  O_2
REMARK    2  A    between atoms: O_2  and  C_3
REMARK    3  A    between atoms: C_6  and  C_7
REMARK    4  A    between atoms: C_7  and  C_9
REMARK    5  A    between atoms: C_10  and  O_11
REMARK    6  A    between atoms: N_14  and  C_15
REMARK    7  A    between atoms: C_15  and  C_16
REMARK    8  A    between atoms: C_22  and  C_23
REMARK    9  A    between atoms: C_29  and  O_30
REMARK   10  A    between atoms: O_30  and  C_31
REMARK                            x       y       z     vdW  Elec       q    Type
REMARK                         _______ _______ _______ _____ _____    ______ ____
ROOT
ATOM      1  C   UNL     1       0.244  10.192  21.491  0.00  0.00    +0.000 C 
ATOM      2  C   UNL     1      -0.642  10.477  22.459  0.00  0.00    +0.000 C 
ATOM      3  C   UNL     1      -1.577  11.505  21.926  0.00  0.00    +0.000 C 
ATOM      4  O   UNL     1      -2.531  11.967  22.506  0.00  0.00    +0.000 OA
ATOM      5  N   UNL     1      -1.141  11.807  20.651  0.00  0.00    +0.000 N 
ATOM      6  C   UNL     1       0.020  11.032  20.268  0.00  0.00    +0.000 C 
ENDROOT
BRANCH   6   7
ATOM      7  C   UNL     1       1.123  11.966  19.918  0.00  0.00    +0.000 A 
ATOM      8  C   UNL     1       1.788  12.244  18.739  0.00  0.00    +0.000 A 
ATOM      9  C   UNL     1       2.739  13.242  19.047  0.00  0.00    +0.000 A 
ATOM     10  C   UNL     1       2.618  13.488  20.394  0.00  0.00    +0.000 A 
ATOM     11  O   UNL     1       1.649  12.706  20.936  0.00  0.00    +0.000 OA
ENDBRANCH   6   7
BRANCH   1  12
ATOM     12  C   UNL     1       1.331   9.216  21.739  0.00  0.00    +0.000 C 
ATOM     13  O   UNL     1       2.079   9.388  22.706  0.00  0.00    +0.000 OA
BRANCH  12  17
ATOM     14  C   UNL     1       2.024   5.885  19.068  0.00  0.00    +0.000 A 
ATOM     15  C   UNL     1       1.463   5.682  20.340  0.00  0.00    +0.000 A 
ATOM     16  C   UNL     1       1.221   6.742  21.220  0.00  0.00    +0.000 A 
ATOM     17  C   UNL     1       1.567   8.040  20.860  0.00  0.00    +0.000 A 
ATOM     18  C   UNL     1       2.235   8.229  19.643  0.00  0.00    +0.000 A 
ATOM     19  C   UNL     1       2.451   7.180  18.729  0.00  0.00    +0.000 A 
BRANCH  14  21
ATOM     20  C   UNL     1       2.065   3.534  18.764  0.00  0.00    +0.000 C 
ATOM     21  O   UNL     1       2.178   4.844  18.190  0.00  0.00    +0.000 OA
ENDBRANCH  14  21
BRANCH  19  22
ATOM     22  O   UNL     1       3.046   7.649  17.594  0.00  0.00    +0.000 OA
ATOM     23  C   UNL     1       4.315   7.190  17.170  0.00  0.00    +0.000 C 
ENDBRANCH  19  22
ENDBRANCH  12  17
ENDBRANCH   1  12
BRANCH   2  24
ATOM     24  O   UNL     1      -0.730   9.964  23.724  0.00  0.00    +0.000 OA
ATOM     25  H   UNL     1      -1.683   9.903  23.952  0.00  0.00    +0.000 HD
ENDBRANCH   2  24
BRANCH   5  26
ATOM     26  C   UNL     1      -1.839  12.713  19.746  0.00  0.00    +0.000 C 
BRANCH  26  27
ATOM     27  C   UNL     1      -2.548  11.991  18.633  0.00  0.00    +0.000 A 
ATOM     28  C   UNL     1      -3.902  11.660  18.728  0.00  0.00    +0.000 A 
ATOM     29  C   UNL     1      -4.506  10.908  17.726  0.00  0.00    +0.000 A 
ATOM     30  C   UNL     1      -3.741  10.540  16.634  0.00  0.00    +0.000 A 
ATOM     31  N   UNL     1      -2.447  10.891  16.473  0.00  0.00    +0.000 NA
ATOM     32  C   UNL     1      -1.883  11.612  17.469  0.00  0.00    +0.000 A 
ENDBRANCH  26  27
ENDBRANCH   5  26
TORSDOF 8
ENDMDL
MODEL 7
REMARK VINA RESULT:      -6.4      2.298      4.443
REMARK  Name = 
REMARK  10 active torsions:
REMARK  status: ('A' for Active; 'I' for Inactive)
REMARK    1  A    between atoms: C_1  and  O_2
REMARK    2  A    between atoms: O_2  and  C_3
REMARK    3  A    between atoms: C_6  and  C_7
REMARK    4  A    between atoms: C_7  and  C_9
REMARK    5  A    between atoms: C_10  and  O_11
REMARK    6  A    between atoms: N_14  and  C_15
REMARK    7  A    between atoms: C_15  and  C_16
REMARK    8  A    between atoms: C_22  and  C_23
REMARK    9  A    between atoms: C_29  and  O_30
REMARK   10  A    between atoms: O_30  and  C_31
REMARK                            x       y       z     vdW  Elec       q    Type
REMARK                         _______ _______ _______ _____ _____    ______ ____
ROOT
ATOM      1  C   UNL     1       1.110  11.092  18.577  0.00  0.00    +0.000 C 
ATOM      2  C   UNL     1       1.744  12.270  18.460  0.00  0.00    +0.000 C 
ATOM      3  C   UNL     1       0.810  13.332  18.927  0.00  0.00    +0.000 C 
ATOM      4  O   UNL     1       1.057  14.512  19.005  0.00  0.00    +0.000 OA
ATOM      5  N   UNL     1      -0.372  12.697  19.255  0.00  0.00    +0.000 N 
ATOM      6  C   UNL     1      -0.299  11.263  19.066  0.00  0.00    +0.000 C 
ENDROOT
BRANCH   6   7
ATOM      7  C   UNL     1      -1.365  10.852  18.114  0.00  0.00    +0.000 A 
ATOM      8  C   UNL     1      -2.145   9.718  18.002  0.00  0.00    +0.000 A 
ATOM      9  C   UNL     1      -2.991   9.927  16.890  0.00  0.00    +0.000 A 
ATOM     10  C   UNL     1      -2.654  11.157  16.376  0.00  0.00    +0.000 A 
ATOM     11  O   UNL     1      -1.656  11.721  17.104  0.00  0.00    +0.000 OA
ENDBRANCH   6   7
BRANCH   1  12
ATOM     12  C   UNL     1       1.781   9.840  18.154  0.00  0.00    +0.000 C 
ATOM     13  O   UNL     1       2.326   9.798  17.048  0.00  0.00    +0.000 OA
BRANCH  12  17
ATOM     14  C   UNL     1       1.898   6.219  20.519  0.00  0.00    +0.000 A 
ATOM     15  C   UNL     1       1.304   7.388  21.023  0.00  0.00    +0.000 A 
ATOM     16  C   UNL     1       1.246   8.570  20.276  0.00  0.00    +0.000 A 
ATOM     17  C   UNL     1       1.813   8.622  19.008  0.00  0.00    +0.000 A 
ATOM     18  C   UNL     1       2.510   7.495  18.552  0.00  0.00    +0.000 A 
ATOM     19  C   UNL     1       2.544   6.286  19.273  0.00  0.00    +0.000 A 
BRANCH  14  21
ATOM     20  C   UNL     1       1.103   3.989  20.648  0.00  0.00    +0.000 C 
ATOM     21  O   UNL     1       1.872   5.050  21.233  0.00  0.00    +0.000 OA
ENDBRANCH  14  21
BRANCH  19  22
ATOM     22  O   UNL     1       3.218   5.329  18.570  0.00  0.00    +0.000 OA
ATOM     23  C   UNL     1       4.138   5.660  17.550  0.00  0.00    +0.000 C 
ENDBRANCH  19  22
ENDBRANCH  12  17
ENDBRANCH   1  12
BRANCH   2  24
ATOM     24  O   UNL     1       3.007  12.527  18.004  0.00  0.00    +0.000 OA
ATOM     25  H   UNL     1       3.064  13.488  17.817  0.00  0.00    +0.000 HD
ENDBRANCH   2  24
BRANCH   5  26
ATOM     26  C   UNL     1      -1.523  13.375  19.840  0.00  0.00    +0.000 C 
BRANCH  26  27
ATOM     27  C   UNL     1      -1.919  12.802  21.174  0.00  0.00    +0.000 A 
ATOM     28  C   UNL     1      -3.246  12.831  21.612  0.00  0.00    +0.000 A 
ATOM     29  C   UNL     1      -3.566  12.382  22.888  0.00  0.00    +0.000 A 
ATOM     30  C   UNL     1      -2.547  11.881  23.679  0.00  0.00    +0.000 A 
ATOM     31  N   UNL     1      -1.264  11.779  23.273  0.00  0.00    +0.000 NA
ATOM     32  C   UNL     1      -0.981  12.234  22.031  0.00  0.00    +0.000 A 
ENDBRANCH  26  27
ENDBRANCH   5  26
TORSDOF 8
ENDMDL
MODEL 8
REMARK VINA RESULT:      -6.3      2.189      4.329
REMARK  Name = 
REMARK  10 active torsions:
REMARK  status: ('A' for Active; 'I' for Inactive)
REMARK    1  A    between atoms: C_1  and  O_2
REMARK    2  A    between atoms: O_2  and  C_3
REMARK    3  A    between atoms: C_6  and  C_7
REMARK    4  A    between atoms: C_7  and  C_9
REMARK    5  A    between atoms: C_10  and  O_11
REMARK    6  A    between atoms: N_14  and  C_15
REMARK    7  A    between atoms: C_15  and  C_16
REMARK    8  A    between atoms: C_22  and  C_23
REMARK    9  A    between atoms: C_29  and  O_30
REMARK   10  A    between atoms: O_30  and  C_31
REMARK                            x       y       z     vdW  Elec       q    Type
REMARK                         _______ _______ _______ _____ _____    ______ ____
ROOT
ATOM      1  C   UNL     1       1.059  11.152  18.602  0.00  0.00    +0.000 C 
ATOM      2  C   UNL     1       1.701  12.327  18.500  0.00  0.00    +0.000 C 
ATOM      3  C   UNL     1       0.769  13.390  18.968  0.00  0.00    +0.000 C 
ATOM      4  O   UNL     1       1.022  14.568  19.058  0.00  0.00    +0.000 OA
ATOM      5  N   UNL     1      -0.419  12.760  19.280  0.00  0.00    +0.000 N 
ATOM      6  C   UNL     1      -0.352  11.327  19.080  0.00  0.00    +0.000 C 
ENDROOT
BRANCH   6   7
ATOM      7  C   UNL     1      -1.413  10.930  18.116  0.00  0.00    +0.000 A 
ATOM      8  C   UNL     1      -1.878  11.486  16.941  0.00  0.00    +0.000 A 
ATOM      9  C   UNL     1      -2.903  10.632  16.476  0.00  0.00    +0.000 A 
ATOM     10  C   UNL     1      -3.020   9.628  17.409  0.00  0.00    +0.000 A 
ATOM     11  O   UNL     1      -2.129   9.809  18.418  0.00  0.00    +0.000 OA
ENDBRANCH   6   7
BRANCH   1  12
ATOM     12  C   UNL     1       1.727   9.900  18.175  0.00  0.00    +0.000 C 
ATOM     13  O   UNL     1       2.255   9.854  17.059  0.00  0.00    +0.000 OA
BRANCH  12  17
ATOM     14  C   UNL     1       1.906   6.293  20.556  0.00  0.00    +0.000 A 
ATOM     15  C   UNL     1       1.219   7.427  21.020  0.00  0.00    +0.000 A 
ATOM     16  C   UNL     1       1.139   8.603  20.266  0.00  0.00    +0.000 A 
ATOM     17  C   UNL     1       1.777   8.686  19.034  0.00  0.00    +0.000 A 
ATOM     18  C   UNL     1       2.562   7.600  18.625  0.00  0.00    +0.000 A 
ATOM     19  C   UNL     1       2.621   6.395  19.351  0.00  0.00    +0.000 A 
BRANCH  14  21
ATOM     20  C   UNL     1       1.116   4.063  20.714  0.00  0.00    +0.000 C 
ATOM     21  O   UNL     1       1.903   5.125  21.272  0.00  0.00    +0.000 OA
ENDBRANCH  14  21
BRANCH  19  22
ATOM     22  O   UNL     1       3.388   5.477  18.693  0.00  0.00    +0.000 OA
ATOM     23  C   UNL     1       2.873   4.694  17.634  0.00  0.00    +0.000 C 
ENDBRANCH  19  22
ENDBRANCH  12  17
ENDBRANCH   1  12
BRANCH   2  24
ATOM     24  O   UNL     1       2.969  12.581  18.057  0.00  0.00    +0.000 OA
ATOM     25  H   UNL     1       3.476  11.742  18.113  0.00  0.00    +0.000 HD
ENDBRANCH   2  24
BRANCH   5  26
ATOM     26  C   UNL     1      -1.572  13.438  19.861  0.00  0.00    +0.000 C 
BRANCH  26  27
ATOM     27  C   UNL     1      -1.957  12.883  21.205  0.00  0.00    +0.000 A 
ATOM     28  C   UNL     1      -0.999  12.356  22.075  0.00  0.00    +0.000 A 
ATOM     29  C   UNL     1      -1.395  11.763  23.268  0.00  0.00    +0.000 A 
ATOM     30  C   UNL     1      -2.744  11.749  23.575  0.00  0.00    +0.000 A 
ATOM     31  N   UNL     1      -3.696  12.300  22.793  0.00  0.00    +0.000 NA
ATOM     32  C   UNL     1      -3.282  12.860  21.632  0.00  0.00    +0.000 A 
ENDBRANCH  26  27
ENDBRANCH   5  26
TORSDOF 8
ENDMDL
MODEL 9
REMARK VINA RESULT:      -6.2      3.082      7.457
REMARK  Name = 
REMARK  10 active torsions:
REMARK  status: ('A' for Active; 'I' for Inactive)
REMARK    1  A    between atoms: C_1  and  O_2
REMARK    2  A    between atoms: O_2  and  C_3
REMARK    3  A    between atoms: C_6  and  C_7
REMARK    4  A    between atoms: C_7  and  C_9
REMARK    5  A    between atoms: C_10  and  O_11
REMARK    6  A    between atoms: N_14  and  C_15
REMARK    7  A    between atoms: C_15  and  C_16
REMARK    8  A    between atoms: C_22  and  C_23
REMARK    9  A    between atoms: C_29  and  O_30
REMARK   10  A    between atoms: O_30  and  C_31
REMARK                            x       y       z     vdW  Elec       q    Type
REMARK                         _______ _______ _______ _____ _____    ______ ____
ROOT
ATOM      1  C   UNL     1       1.658   8.463  18.770  0.00  0.00    +0.000 C 
ATOM      2  C   UNL     1       2.836   7.905  18.447  0.00  0.00    +0.000 C 
ATOM      3  C   UNL     1       2.977   6.656  19.246  0.00  0.00    +0.000 C 
ATOM      4  O   UNL     1       3.893   5.871  19.181  0.00  0.00    +0.000 OA
ATOM      5  N   UNL     1       1.858   6.579  20.052  0.00  0.00    +0.000 N 
ATOM      6  C   UNL     1       0.947   7.684  19.838  0.00  0.00    +0.000 C 
ENDROOT
BRANCH   6   7
ATOM      7  C   UNL     1       0.747   8.394  21.129  0.00  0.00    +0.000 A 
ATOM      8  C   UNL     1       1.613   8.999  22.018  0.00  0.00    +0.000 A 
ATOM      9  C   UNL     1       0.813   9.512  23.064  0.00  0.00    +0.000 A 
ATOM     10  C   UNL     1      -0.482   9.162  22.765  0.00  0.00    +0.000 A 
ATOM     11  O   UNL     1      -0.531   8.469  21.598  0.00  0.00    +0.000 OA
ENDBRANCH   6   7
BRANCH   1  12
ATOM     12  C   UNL     1       1.249   9.748  18.156  0.00  0.00    +0.000 C 
ATOM     13  O   UNL     1       2.109  10.458  17.626  0.00  0.00    +0.000 OA
BRANCH  12  17
ATOM     14  C   UNL     1      -2.858  11.103  18.034  0.00  0.00    +0.000 A 
ATOM     15  C   UNL     1      -1.998  11.505  19.070  0.00  0.00    +0.000 A 
ATOM     16  C   UNL     1      -0.664  11.088  19.128  0.00  0.00    +0.000 A 
ATOM     17  C   UNL     1      -0.160  10.225  18.162  0.00  0.00    +0.000 A 
ATOM     18  C   UNL     1      -1.047   9.728  17.197  0.00  0.00    +0.000 A 
ATOM     19  C   UNL     1      -2.381  10.167  17.100  0.00  0.00    +0.000 A 
BRANCH  14  21
ATOM     20  C   UNL     1      -5.164  10.692  18.400  0.00  0.00    +0.000 C 
ATOM     21  O   UNL     1      -4.136  11.587  17.950  0.00  0.00    +0.000 OA
ENDBRANCH  14  21
BRANCH  19  22
ATOM     22  O   UNL     1      -2.998   9.589  16.029  0.00  0.00    +0.000 OA
ATOM     23  C   UNL     1      -3.268  10.309  14.843  0.00  0.00    +0.000 C 
ENDBRANCH  19  22
ENDBRANCH  12  17
ENDBRANCH   1  12
BRANCH   2  24
ATOM     24  O   UNL     1       3.783   8.343  17.563  0.00  0.00    +0.000 OA
ATOM     25  H   UNL     1       4.659   8.067  17.908  0.00  0.00    +0.000 HD
ENDBRANCH   2  24
BRANCH   5  26
ATOM     26  C   UNL     1       1.566   5.452  20.930  0.00  0.00    +0.000 C 
BRANCH  26  27
ATOM     27  C   UNL     1       1.685   4.125  20.233  0.00  0.00    +0.000 A 
ATOM     28  C   UNL     1       2.629   3.176  20.635  0.00  0.00    +0.000 A 
ATOM     29  C   UNL     1       2.782   1.998  19.912  0.00  0.00    +0.000 A 
ATOM     30  C   UNL     1       1.954   1.787  18.823  0.00  0.00    +0.000 A 
ATOM     31  N   UNL     1       0.989   2.649  18.438  0.00  0.00    +0.000 NA
ATOM     32  C   UNL     1       0.872   3.791  19.153  0.00  0.00    +0.000 A 
ENDBRANCH  26  27
ENDBRANCH   5  26
TORSDOF 8
ENDMDL
