MODEL 1
REMARK VINA RESULT:      -8.1      0.000      0.000
REMARK  Name = 
REMARK  11 active torsions:
REMARK  status: ('A' for Active; 'I' for Inactive)
REMARK    1  A    between atoms: C_1  and  N_2
REMARK    2  A    between atoms: N_2  and  C_3
REMARK    3  A    between atoms: N_2  and  C_23
REMARK    4  A    between atoms: C_3  and  N_5
REMARK    5  A    between atoms: N_5  and  C_6
REMARK    6  A    between atoms: C_6  and  C_7
REMARK    7  A    between atoms: C_10  and  O_12
REMARK    8  A    between atoms: O_12  and  C_13
REMARK    9  A    between atoms: C_13  and  C_14
REMARK   10  A    between atoms: C_13  and  C_15
REMARK   11  A    between atoms: C_13  and  C_16
REMARK                            x       y       z     vdW  Elec       q    Type
REMARK                         _______ _______ _______ _____ _____    ______ ____
ROOT
ATOM      1  C   UNL     1       2.311   6.248  19.861  0.00  0.00    +0.000 A 
ATOM      2  C   UNL     1       3.416   6.372  19.034  0.00  0.00    +0.000 A 
ATOM      3  N   UNL     1       3.577   5.238  18.265  0.00  0.00    +0.000 N 
ATOM      4  C   UNL     1       4.509   5.058  17.216  0.00  0.00    +0.000 C 
ATOM      5  O   UNL     1       4.563   4.005  16.598  0.00  0.00    +0.000 OA
ATOM      6  C   UNL     1       2.646   4.298  18.708  0.00  0.00    +0.000 A 
ATOM      7  C   UNL     1       2.433   2.963  18.311  0.00  0.00    +0.000 A 
ATOM      8  C   UNL     1       1.411   2.234  18.917  0.00  0.00    +0.000 A 
ATOM      9  C   UNL     1       0.609   2.817  19.887  0.00  0.00    +0.000 A 
ATOM     10  C   UNL     1       0.812   4.146  20.275  0.00  0.00    +0.000 A 
ATOM     11  C   UNL     1       1.848   4.905  19.688  0.00  0.00    +0.000 A 
ENDROOT
BRANCH   1  12
ATOM     12  C   UNL     1       1.725   7.301  20.765  0.00  0.00    +0.000 C 
BRANCH  12  13
ATOM     13  N   UNL     1       1.455   8.516  20.002  0.00  0.00    +0.000 N 
ATOM     14  H   UNL     1       1.888   8.579  19.091  0.00  0.00    +0.000 HD
BRANCH  13  15
ATOM     15  C   UNL     1       0.726   9.621  20.398  0.00  0.00    +0.000 C 
ATOM     16  S   UNL     1       0.218   9.814  21.998  0.00  0.00    +0.000 S 
BRANCH  15  18
ATOM     17  C   UNL     1       1.517  11.279  18.691  0.00  0.00    +0.000 C 
ATOM     18  N   UNL     1       0.430  10.523  19.340  0.00  0.00    +0.000 N 
BRANCH  18  19
ATOM     19  C   UNL     1      -0.866  10.623  18.681  0.00  0.00    +0.000 A 
ATOM     20  C   UNL     1      -1.185   9.879  17.534  0.00  0.00    +0.000 A 
ATOM     21  C   UNL     1      -2.434   9.966  16.906  0.00  0.00    +0.000 A 
ATOM     22  C   UNL     1      -3.399  10.825  17.408  0.00  0.00    +0.000 A 
ATOM     23  C   UNL     1      -3.103  11.605  18.518  0.00  0.00    +0.000 A 
ATOM     24  C   UNL     1      -1.850  11.511  19.141  0.00  0.00    +0.000 A 
ENDBRANCH  18  19
ENDBRANCH  15  18
ENDBRANCH  13  15
ENDBRANCH  12  13
ENDBRANCH   1  12
BRANCH   4  25
ATOM     25  O   UNL     1       5.266   6.168  17.014  0.00  0.00    +0.000 OA
BRANCH  25  26
ATOM     26  C   UNL     1       6.708   6.041  17.173  0.00  0.00    +0.000 C 
ATOM     27  C   UNL     1       7.351   5.377  15.944  0.00  0.00    +0.000 C 
ATOM     28  C   UNL     1       7.275   7.466  17.284  0.00  0.00    +0.000 C 
ATOM     29  C   UNL     1       7.041   5.300  18.475  0.00  0.00    +0.000 C 
ENDBRANCH  25  26
ENDBRANCH   4  25
TORSDOF 7
ENDMDL
MODEL 2
REMARK VINA RESULT:      -8.1      0.181      1.247
REMARK  Name = 
REMARK  11 active torsions:
REMARK  status: ('A' for Active; 'I' for Inactive)
REMARK    1  A    between atoms: C_1  and  N_2
REMARK    2  A    between atoms: N_2  and  C_3
REMARK    3  A    between atoms: N_2  and  C_23
REMARK    4  A    between atoms: C_3  and  N_5
REMARK    5  A    between atoms: N_5  and  C_6
REMARK    6  A    between atoms: C_6  and  C_7
REMARK    7  A    between atoms: C_10  and  O_12
REMARK    8  A    between atoms: O_12  and  C_13
REMARK    9  A    between atoms: C_13  and  C_14
REMARK   10  A    between atoms: C_13  and  C_15
REMARK   11  A    between atoms: C_13  and  C_16
REMARK                            x       y       z     vdW  Elec       q    Type
REMARK                         _______ _______ _______ _____ _____    ______ ____
ROOT
ATOM      1  C   UNL     1       2.402   6.194  19.744  0.00  0.00    +0.000 A 
ATOM      2  C   UNL     1       3.479   6.293  18.877  0.00  0.00    +0.000 A 
ATOM      3  N   UNL     1       3.586   5.156  18.104  0.00  0.00    +0.000 N 
ATOM      4  C   UNL     1       4.474   4.955  17.021  0.00  0.00    +0.000 C 
ATOM      5  O   UNL     1       4.482   3.902  16.402  0.00  0.00    +0.000 OA
ATOM      6  C   UNL     1       2.650   4.237  18.581  0.00  0.00    +0.000 A 
ATOM      7  C   UNL     1       2.394   2.908  18.194  0.00  0.00    +0.000 A 
ATOM      8  C   UNL     1       1.379   2.201  18.838  0.00  0.00    +0.000 A 
ATOM      9  C   UNL     1       0.626   2.802  19.836  0.00  0.00    +0.000 A 
ATOM     10  C   UNL     1       0.873   4.126  20.215  0.00  0.00    +0.000 A 
ATOM     11  C   UNL     1       1.903   4.862  19.590  0.00  0.00    +0.000 A 
ENDROOT
BRANCH   1  12
ATOM     12  C   UNL     1       1.873   7.260  20.669  0.00  0.00    +0.000 C 
BRANCH  12  13
ATOM     13  N   UNL     1       1.493   8.440  19.898  0.00  0.00    +0.000 N 
ATOM     14  H   UNL     1       1.842   8.490  18.951  0.00  0.00    +0.000 HD
BRANCH  13  15
ATOM     15  C   UNL     1       0.761   9.532  20.326  0.00  0.00    +0.000 C 
ATOM     16  S   UNL     1       0.249   9.675  21.930  0.00  0.00    +0.000 S 
BRANCH  15  18
ATOM     17  C   UNL     1       1.558  11.224  18.654  0.00  0.00    +0.000 C 
ATOM     18  N   UNL     1       0.467  10.466  19.295  0.00  0.00    +0.000 N 
BRANCH  18  19
ATOM     19  C   UNL     1      -0.835  10.601  18.653  0.00  0.00    +0.000 A 
ATOM     20  C   UNL     1      -1.822  11.475  19.136  0.00  0.00    +0.000 A 
ATOM     21  C   UNL     1      -3.069  11.615  18.514  0.00  0.00    +0.000 A 
ATOM     22  C   UNL     1      -3.368  10.860  17.391  0.00  0.00    +0.000 A 
ATOM     23  C   UNL     1      -2.428   9.958  16.910  0.00  0.00    +0.000 A 
ATOM     24  C   UNL     1      -1.181   9.824  17.538  0.00  0.00    +0.000 A 
ENDBRANCH  18  19
ENDBRANCH  15  18
ENDBRANCH  13  15
ENDBRANCH  12  13
ENDBRANCH   1  12
BRANCH   4  25
ATOM     25  O   UNL     1       5.248   6.048  16.791  0.00  0.00    +0.000 OA
BRANCH  25  26
ATOM     26  C   UNL     1       6.688   5.899  16.940  0.00  0.00    +0.000 C 
ATOM     27  C   UNL     1       7.361   7.242  17.269  0.00  0.00    +0.000 C 
ATOM     28  C   UNL     1       6.921   4.956  18.132  0.00  0.00    +0.000 C 
ATOM     29  C   UNL     1       7.292   5.237  15.693  0.00  0.00    +0.000 C 
ENDBRANCH  25  26
ENDBRANCH   4  25
TORSDOF 7
ENDMDL
MODEL 3
REMARK VINA RESULT:      -7.9      1.735      4.202
REMARK  Name = 
REMARK  11 active torsions:
REMARK  status: ('A' for Active; 'I' for Inactive)
REMARK    1  A    between atoms: C_1  and  N_2
REMARK    2  A    between atoms: N_2  and  C_3
REMARK    3  A    between atoms: N_2  and  C_23
REMARK    4  A    between atoms: C_3  and  N_5
REMARK    5  A    between atoms: N_5  and  C_6
REMARK    6  A    between atoms: C_6  and  C_7
REMARK    7  A    between atoms: C_10  and  O_12
REMARK    8  A    between atoms: O_12  and  C_13
REMARK    9  A    between atoms: C_13  and  C_14
REMARK   10  A    between atoms: C_13  and  C_15
REMARK   11  A    between atoms: C_13  and  C_16
REMARK                            x       y       z     vdW  Elec       q    Type
REMARK                         _______ _______ _______ _____ _____    ______ ____
ROOT
ATOM      1  C   UNL     1       3.691   6.730  17.752  0.00  0.00    +0.000 A 
ATOM      2  C   UNL     1       3.295   5.809  18.709  0.00  0.00    +0.000 A 
ATOM      3  N   UNL     1       3.914   4.595  18.500  0.00  0.00    +0.000 N 
ATOM      4  C   UNL     1       3.860   3.465  19.350  0.00  0.00    +0.000 C 
ATOM      5  O   UNL     1       4.451   2.435  19.065  0.00  0.00    +0.000 OA
ATOM      6  C   UNL     1       4.613   4.684  17.295  0.00  0.00    +0.000 A 
ATOM      7  C   UNL     1       5.352   3.713  16.592  0.00  0.00    +0.000 A 
ATOM      8  C   UNL     1       5.970   4.072  15.395  0.00  0.00    +0.000 A 
ATOM      9  C   UNL     1       5.869   5.368  14.910  0.00  0.00    +0.000 A 
ATOM     10  C   UNL     1       5.143   6.336  15.612  0.00  0.00    +0.000 A 
ATOM     11  C   UNL     1       4.495   5.998  16.821  0.00  0.00    +0.000 A 
ENDROOT
BRANCH   1  12
ATOM     12  C   UNL     1       3.341   8.194  17.693  0.00  0.00    +0.000 C 
BRANCH  12  13
ATOM     13  N   UNL     1       1.933   8.381  18.032  0.00  0.00    +0.000 N 
ATOM     14  H   UNL     1       1.260   8.006  17.378  0.00  0.00    +0.000 HD
BRANCH  13  15
ATOM     15  C   UNL     1       1.405   9.062  19.112  0.00  0.00    +0.000 C 
ATOM     16  S   UNL     1       1.366   8.373  20.655  0.00  0.00    +0.000 S 
BRANCH  15  18
ATOM     17  C   UNL     1       1.801  11.454  18.469  0.00  0.00    +0.000 C 
ATOM     18  N   UNL     1       0.883  10.343  18.784  0.00  0.00    +0.000 N 
BRANCH  18  19
ATOM     19  C   UNL     1      -0.525  10.618  18.525  0.00  0.00    +0.000 A 
ATOM     20  C   UNL     1      -1.248  11.579  19.249  0.00  0.00    +0.000 A 
ATOM     21  C   UNL     1      -2.597  11.852  18.994  0.00  0.00    +0.000 A 
ATOM     22  C   UNL     1      -3.269  11.147  18.008  0.00  0.00    +0.000 A 
ATOM     23  C   UNL     1      -2.594  10.162  17.299  0.00  0.00    +0.000 A 
ATOM     24  C   UNL     1      -1.242   9.895  17.560  0.00  0.00    +0.000 A 
ENDBRANCH  18  19
ENDBRANCH  15  18
ENDBRANCH  13  15
ENDBRANCH  12  13
ENDBRANCH   1  12
BRANCH   4  25
ATOM     25  O   UNL     1       3.109   3.701  20.459  0.00  0.00    +0.000 OA
BRANCH  25  26
ATOM     26  C   UNL     1       1.767   3.140  20.498  0.00  0.00    +0.000 C 
ATOM     27  C   UNL     1       1.500   2.414  21.827  0.00  0.00    +0.000 C 
ATOM     28  C   UNL     1       0.784   4.319  20.405  0.00  0.00    +0.000 C 
ATOM     29  C   UNL     1       1.528   2.233  19.283  0.00  0.00    +0.000 C 
ENDBRANCH  25  26
ENDBRANCH   4  25
TORSDOF 7
ENDMDL
MODEL 4
REMARK VINA RESULT:      -7.9      3.373      8.009
REMARK  Name = 
REMARK  11 active torsions:
REMARK  status: ('A' for Active; 'I' for Inactive)
REMARK    1  A    between atoms: C_1  and  N_2
REMARK    2  A    between atoms: N_2  and  C_3
REMARK    3  A    between atoms: N_2  and  C_23
REMARK    4  A    between atoms: C_3  and  N_5
REMARK    5  A    between atoms: N_5  and  C_6
REMARK    6  A    between atoms: C_6  and  C_7
REMARK    7  A    between atoms: C_10  and  O_12
REMARK    8  A    between atoms: O_12  and  C_13
REMARK    9  A    between atoms: C_13  and  C_14
REMARK   10  A    between atoms: C_13  and  C_15
REMARK   11  A    between atoms: C_13  and  C_16
REMARK                            x       y       z     vdW  Elec       q    Type
REMARK                         _______ _______ _______ _____ _____    ______ ____
ROOT
ATOM      1  C   UNL     1       1.275   9.347  18.490  0.00  0.00    +0.000 A 
ATOM      2  C   UNL     1       0.167   9.965  17.931  0.00  0.00    +0.000 A 
ATOM      3  N   UNL     1      -0.665  10.456  18.915  0.00  0.00    +0.000 N 
ATOM      4  C   UNL     1      -1.812  11.261  18.723  0.00  0.00    +0.000 C 
ATOM      5  O   UNL     1      -2.478  11.642  19.673  0.00  0.00    +0.000 OA
ATOM      6  C   UNL     1      -0.163  10.018  20.142  0.00  0.00    +0.000 A 
ATOM      7  C   UNL     1      -0.668  10.180  21.447  0.00  0.00    +0.000 A 
ATOM      8  C   UNL     1       0.045   9.643  22.517  0.00  0.00    +0.000 A 
ATOM      9  C   UNL     1       1.239   8.969  22.302  0.00  0.00    +0.000 A 
ATOM     10  C   UNL     1       1.747   8.815  21.007  0.00  0.00    +0.000 A 
ATOM     11  C   UNL     1       1.039   9.338  19.902  0.00  0.00    +0.000 A 
ENDROOT
BRANCH   1  12
ATOM     12  C   UNL     1       2.471   8.787  17.766  0.00  0.00    +0.000 C 
BRANCH  12  13
ATOM     13  N   UNL     1       2.643   7.378  18.107  0.00  0.00    +0.000 N 
ATOM     14  H   UNL     1       1.911   6.959  18.663  0.00  0.00    +0.000 HD
BRANCH  13  15
ATOM     15  C   UNL     1       3.716   6.559  17.812  0.00  0.00    +0.000 C 
ATOM     16  S   UNL     1       4.722   6.868  16.489  0.00  0.00    +0.000 S 
BRANCH  15  18
ATOM     17  C   UNL     1       5.106   5.250  19.438  0.00  0.00    +0.000 C 
ATOM     18  N   UNL     1       3.851   5.450  18.690  0.00  0.00    +0.000 N 
BRANCH  18  19
ATOM     19  C   UNL     1       2.754   4.574  19.086  0.00  0.00    +0.000 A 
ATOM     20  C   UNL     1       2.237   4.561  20.390  0.00  0.00    +0.000 A 
ATOM     21  C   UNL     1       1.177   3.728  20.769  0.00  0.00    +0.000 A 
ATOM     22  C   UNL     1       0.613   2.865  19.843  0.00  0.00    +0.000 A 
ATOM     23  C   UNL     1       1.127   2.824  18.553  0.00  0.00    +0.000 A 
ATOM     24  C   UNL     1       2.189   3.662  18.182  0.00  0.00    +0.000 A 
ENDBRANCH  18  19
ENDBRANCH  15  18
ENDBRANCH  13  15
ENDBRANCH  12  13
ENDBRANCH   1  12
BRANCH   4  25
ATOM     25  O   UNL     1      -2.027  11.531  17.408  0.00  0.00    +0.000 OA
BRANCH  25  26
ATOM     26  C   UNL     1      -3.168  10.895  16.766  0.00  0.00    +0.000 C 
ATOM     27  C   UNL     1      -2.900  10.636  15.274  0.00  0.00    +0.000 C 
ATOM     28  C   UNL     1      -3.363   9.530  17.448  0.00  0.00    +0.000 C 
ATOM     29  C   UNL     1      -4.442  11.719  16.993  0.00  0.00    +0.000 C 
ENDBRANCH  25  26
ENDBRANCH   4  25
TORSDOF 7
ENDMDL
MODEL 5
REMARK VINA RESULT:      -7.8      3.145      8.321
REMARK  Name = 
REMARK  11 active torsions:
REMARK  status: ('A' for Active; 'I' for Inactive)
REMARK    1  A    between atoms: C_1  and  N_2
REMARK    2  A    between atoms: N_2  and  C_3
REMARK    3  A    between atoms: N_2  and  C_23
REMARK    4  A    between atoms: C_3  and  N_5
REMARK    5  A    between atoms: N_5  and  C_6
REMARK    6  A    between atoms: C_6  and  C_7
REMARK    7  A    between atoms: C_10  and  O_12
REMARK    8  A    between atoms: O_12  and  C_13
REMARK    9  A    between atoms: C_13  and  C_14
REMARK   10  A    between atoms: C_13  and  C_15
REMARK   11  A    between atoms: C_13  and  C_16
REMARK                            x       y       z     vdW  Elec       q    Type
REMARK                         _______ _______ _______ _____ _____    ______ ____
ROOT
ATOM      1  C   UNL     1       1.188   9.131  18.888  0.00  0.00    +0.000 A 
ATOM      2  C   UNL     1       0.151   9.739  18.199  0.00  0.00    +0.000 A 
ATOM      3  N   UNL     1      -0.684  10.409  19.069  0.00  0.00    +0.000 N 
ATOM      4  C   UNL     1      -1.763  11.253  18.717  0.00  0.00    +0.000 C 
ATOM      5  O   UNL     1      -2.438  11.800  19.576  0.00  0.00    +0.000 OA
ATOM      6  C   UNL     1      -0.264  10.108  20.365  0.00  0.00    +0.000 A 
ATOM      7  C   UNL     1      -0.808  10.474  21.611  0.00  0.00    +0.000 A 
ATOM      8  C   UNL     1      -0.178  10.040  22.777  0.00  0.00    +0.000 A 
ATOM      9  C   UNL     1       0.973   9.268  22.710  0.00  0.00    +0.000 A 
ATOM     10  C   UNL     1       1.520   8.910  21.473  0.00  0.00    +0.000 A 
ATOM     11  C   UNL     1       0.896   9.325  20.276  0.00  0.00    +0.000 A 
ENDROOT
BRANCH   1  12
ATOM     12  C   UNL     1       2.371   8.404  18.303  0.00  0.00    +0.000 C 
BRANCH  12  13
ATOM     13  N   UNL     1       2.061   6.984  18.163  0.00  0.00    +0.000 N 
ATOM     14  H   UNL     1       1.320   6.748  17.518  0.00  0.00    +0.000 HD
BRANCH  13  15
ATOM     15  C   UNL     1       2.617   5.923  18.852  0.00  0.00    +0.000 C 
ATOM     16  S   UNL     1       2.063   5.480  20.386  0.00  0.00    +0.000 S 
BRANCH  15  18
ATOM     17  C   UNL     1       3.415   4.247  17.166  0.00  0.00    +0.000 C 
ATOM     18  N   UNL     1       3.692   5.294  18.166  0.00  0.00    +0.000 N 
BRANCH  18  19
ATOM     19  C   UNL     1       5.078   5.744  18.218  0.00  0.00    +0.000 A 
ATOM     20  C   UNL     1       5.981   5.284  19.189  0.00  0.00    +0.000 A 
ATOM     21  C   UNL     1       7.315   5.706  19.233  0.00  0.00    +0.000 A 
ATOM     22  C   UNL     1       7.779   6.625  18.305  0.00  0.00    +0.000 A 
ATOM     23  C   UNL     1       6.901   7.130  17.354  0.00  0.00    +0.000 A 
ATOM     24  C   UNL     1       5.566   6.701  17.316  0.00  0.00    +0.000 A 
ENDBRANCH  18  19
ENDBRANCH  15  18
ENDBRANCH  13  15
ENDBRANCH  12  13
ENDBRANCH   1  12
BRANCH   4  25
ATOM     25  O   UNL     1      -1.906  11.359  17.370  0.00  0.00    +0.000 OA
BRANCH  25  26
ATOM     26  C   UNL     1      -3.040  10.686  16.756  0.00  0.00    +0.000 C 
ATOM     27  C   UNL     1      -3.431   9.419  17.534  0.00  0.00    +0.000 C 
ATOM     28  C   UNL     1      -4.230  11.659  16.823  0.00  0.00    +0.000 C 
ATOM     29  C   UNL     1      -2.756  10.394  15.276  0.00  0.00    +0.000 C 
ENDBRANCH  25  26
ENDBRANCH   4  25
TORSDOF 7
ENDMDL
MODEL 6
REMARK VINA RESULT:      -7.8      3.421      8.026
REMARK  Name = 
REMARK  11 active torsions:
REMARK  status: ('A' for Active; 'I' for Inactive)
REMARK    1  A    between atoms: C_1  and  N_2
REMARK    2  A    between atoms: N_2  and  C_3
REMARK    3  A    between atoms: N_2  and  C_23
REMARK    4  A    between atoms: C_3  and  N_5
REMARK    5  A    between atoms: N_5  and  C_6
REMARK    6  A    between atoms: C_6  and  C_7
REMARK    7  A    between atoms: C_10  and  O_12
REMARK    8  A    between atoms: O_12  and  C_13
REMARK    9  A    between atoms: C_13  and  C_14
REMARK   10  A    between atoms: C_13  and  C_15
REMARK   11  A    between atoms: C_13  and  C_16
REMARK                            x       y       z     vdW  Elec       q    Type
REMARK                         _______ _______ _______ _____ _____    ______ ____
ROOT
ATOM      1  C   UNL     1       1.201   9.258  18.523  0.00  0.00    +0.000 A 
ATOM      2  C   UNL     1       0.102   9.903  17.978  0.00  0.00    +0.000 A 
ATOM      3  N   UNL     1      -0.682  10.452  18.972  0.00  0.00    +0.000 N 
ATOM      4  C   UNL     1      -1.803  11.295  18.791  0.00  0.00    +0.000 C 
ATOM      5  O   UNL     1      -2.426  11.727  19.748  0.00  0.00    +0.000 OA
ATOM      6  C   UNL     1      -0.162  10.028  20.196  0.00  0.00    +0.000 A 
ATOM      7  C   UNL     1      -0.621  10.244  21.509  0.00  0.00    +0.000 A 
ATOM      8  C   UNL     1       0.103   9.708  22.573  0.00  0.00    +0.000 A 
ATOM      9  C   UNL     1       1.263   8.983  22.343  0.00  0.00    +0.000 A 
ATOM     10  C   UNL     1       1.726   8.775  21.039  0.00  0.00    +0.000 A 
ATOM     11  C   UNL     1       1.007   9.295  19.940  0.00  0.00    +0.000 A 
ENDROOT
BRANCH   1  12
ATOM     12  C   UNL     1       2.353   8.633  17.781  0.00  0.00    +0.000 C 
BRANCH  12  13
ATOM     13  N   UNL     1       2.558   7.264  18.245  0.00  0.00    +0.000 N 
ATOM     14  H   UNL     1       1.932   6.937  18.967  0.00  0.00    +0.000 HD
BRANCH  13  15
ATOM     15  C   UNL     1       3.544   6.377  17.858  0.00  0.00    +0.000 C 
ATOM     16  S   UNL     1       5.073   6.914  17.375  0.00  0.00    +0.000 S 
BRANCH  15  18
ATOM     17  C   UNL     1       3.570   4.101  16.805  0.00  0.00    +0.000 C 
ATOM     18  N   UNL     1       3.132   5.016  17.875  0.00  0.00    +0.000 N 
BRANCH  18  19
ATOM     19  C   UNL     1       2.458   4.374  18.996  0.00  0.00    +0.000 A 
ATOM     20  C   UNL     1       1.380   3.492  18.819  0.00  0.00    +0.000 A 
ATOM     21  C   UNL     1       0.739   2.865  19.894  0.00  0.00    +0.000 A 
ATOM     22  C   UNL     1       1.154   3.123  21.191  0.00  0.00    +0.000 A 
ATOM     23  C   UNL     1       2.192   4.021  21.404  0.00  0.00    +0.000 A 
ATOM     24  C   UNL     1       2.830   4.644  20.321  0.00  0.00    +0.000 A 
ENDBRANCH  18  19
ENDBRANCH  15  18
ENDBRANCH  13  15
ENDBRANCH  12  13
ENDBRANCH   1  12
BRANCH   4  25
ATOM     25  O   UNL     1      -2.047  11.539  17.475  0.00  0.00    +0.000 OA
BRANCH  25  26
ATOM     26  C   UNL     1      -3.174  10.855  16.859  0.00  0.00    +0.000 C 
ATOM     27  C   UNL     1      -4.443  11.722  16.891  0.00  0.00    +0.000 C 
ATOM     28  C   UNL     1      -2.805  10.621  15.384  0.00  0.00    +0.000 C 
ATOM     29  C   UNL     1      -3.391   9.482  17.511  0.00  0.00    +0.000 C 
ENDBRANCH  25  26
ENDBRANCH   4  25
TORSDOF 7
ENDMDL
MODEL 7
REMARK VINA RESULT:      -7.7      3.144      7.883
REMARK  Name = 
REMARK  11 active torsions:
REMARK  status: ('A' for Active; 'I' for Inactive)
REMARK    1  A    between atoms: C_1  and  N_2
REMARK    2  A    between atoms: N_2  and  C_3
REMARK    3  A    between atoms: N_2  and  C_23
REMARK    4  A    between atoms: C_3  and  N_5
REMARK    5  A    between atoms: N_5  and  C_6
REMARK    6  A    between atoms: C_6  and  C_7
REMARK    7  A    between atoms: C_10  and  O_12
REMARK    8  A    between atoms: O_12  and  C_13
REMARK    9  A    between atoms: C_13  and  C_14
REMARK   10  A    between atoms: C_13  and  C_15
REMARK   11  A    between atoms: C_13  and  C_16
REMARK                            x       y       z     vdW  Elec       q    Type
REMARK                         _______ _______ _______ _____ _____    ______ ____
ROOT
ATOM      1  C   UNL     1       3.729   7.101  17.540  0.00  0.00    +0.000 A 
ATOM      2  C   UNL     1       3.684   6.084  18.480  0.00  0.00    +0.000 A 
ATOM      3  N   UNL     1       2.717   6.341  19.429  0.00  0.00    +0.000 N 
ATOM      4  C   UNL     1       2.294   5.466  20.458  0.00  0.00    +0.000 C 
ATOM      5  O   UNL     1       1.423   5.800  21.247  0.00  0.00    +0.000 OA
ATOM      6  C   UNL     1       2.224   7.624  19.186  0.00  0.00    +0.000 A 
ATOM      7  C   UNL     1       1.280   8.391  19.896  0.00  0.00    +0.000 A 
ATOM      8  C   UNL     1       0.953   9.662  19.426  0.00  0.00    +0.000 A 
ATOM      9  C   UNL     1       1.539  10.159  18.270  0.00  0.00    +0.000 A 
ATOM     10  C   UNL     1       2.470   9.394  17.559  0.00  0.00    +0.000 A 
ATOM     11  C   UNL     1       2.831   8.108  18.019  0.00  0.00    +0.000 A 
ENDROOT
BRANCH   1  12
ATOM     12  C   UNL     1       4.559   7.149  16.284  0.00  0.00    +0.000 C 
BRANCH  12  13
ATOM     13  N   UNL     1       5.945   6.811  16.593  0.00  0.00    +0.000 N 
ATOM     14  H   UNL     1       6.611   7.571  16.555  0.00  0.00    +0.000 HD
BRANCH  13  15
ATOM     15  C   UNL     1       6.472   5.565  16.873  0.00  0.00    +0.000 C 
ATOM     16  S   UNL     1       7.549   5.331  18.154  0.00  0.00    +0.000 S 
BRANCH  15  18
ATOM     17  C   UNL     1       4.984   3.609  16.370  0.00  0.00    +0.000 C 
ATOM     18  N   UNL     1       6.051   4.548  15.974  0.00  0.00    +0.000 N 
BRANCH  18  19
ATOM     19  C   UNL     1       6.449   4.469  14.574  0.00  0.00    +0.000 A 
ATOM     20  C   UNL     1       7.480   5.259  14.041  0.00  0.00    +0.000 A 
ATOM     21  C   UNL     1       7.871   5.177  12.699  0.00  0.00    +0.000 A 
ATOM     22  C   UNL     1       7.219   4.304  11.843  0.00  0.00    +0.000 A 
ATOM     23  C   UNL     1       6.169   3.536  12.328  0.00  0.00    +0.000 A 
ATOM     24  C   UNL     1       5.783   3.624  13.674  0.00  0.00    +0.000 A 
ENDBRANCH  18  19
ENDBRANCH  15  18
ENDBRANCH  13  15
ENDBRANCH  12  13
ENDBRANCH   1  12
BRANCH   4  25
ATOM     25  O   UNL     1       2.955   4.280  20.418  0.00  0.00    +0.000 OA
BRANCH  25  26
ATOM     26  C   UNL     1       2.174   3.079  20.162  0.00  0.00    +0.000 C 
ATOM     27  C   UNL     1       1.042   3.348  19.158  0.00  0.00    +0.000 C 
ATOM     28  C   UNL     1       3.126   2.051  19.527  0.00  0.00    +0.000 C 
ATOM     29  C   UNL     1       1.654   2.485  21.479  0.00  0.00    +0.000 C 
ENDBRANCH  25  26
ENDBRANCH   4  25
TORSDOF 7
ENDMDL
MODEL 8
REMARK VINA RESULT:      -7.7      1.180      1.783
REMARK  Name = 
REMARK  11 active torsions:
REMARK  status: ('A' for Active; 'I' for Inactive)
REMARK    1  A    between atoms: C_1  and  N_2
REMARK    2  A    between atoms: N_2  and  C_3
REMARK    3  A    between atoms: N_2  and  C_23
REMARK    4  A    between atoms: C_3  and  N_5
REMARK    5  A    between atoms: N_5  and  C_6
REMARK    6  A    between atoms: C_6  and  C_7
REMARK    7  A    between atoms: C_10  and  O_12
REMARK    8  A    between atoms: O_12  and  C_13
REMARK    9  A    between atoms: C_13  and  C_14
REMARK   10  A    between atoms: C_13  and  C_15
REMARK   11  A    between atoms: C_13  and  C_16
REMARK                            x       y       z     vdW  Elec       q    Type
REMARK                         _______ _______ _______ _____ _____    ______ ____
ROOT
ATOM      1  C   UNL     1       2.561   6.590  19.327  0.00  0.00    +0.000 A 
ATOM      2  C   UNL     1       3.592   6.435  18.413  0.00  0.00    +0.000 A 
ATOM      3  N   UNL     1       3.744   5.107  18.074  0.00  0.00    +0.000 N 
ATOM      4  C   UNL     1       4.599   4.586  17.074  0.00  0.00    +0.000 C 
ATOM      5  O   UNL     1       4.653   3.386  16.856  0.00  0.00    +0.000 OA
ATOM      6  C   UNL     1       2.893   4.366  18.895  0.00  0.00    +0.000 A 
ATOM      7  C   UNL     1       2.712   2.974  19.005  0.00  0.00    +0.000 A 
ATOM      8  C   UNL     1       1.774   2.485  19.914  0.00  0.00    +0.000 A 
ATOM      9  C   UNL     1       1.023   3.358  20.689  0.00  0.00    +0.000 A 
ATOM     10  C   UNL     1       1.195   4.741  20.574  0.00  0.00    +0.000 A 
ATOM     11  C   UNL     1       2.147   5.264  19.671  0.00  0.00    +0.000 A 
ENDROOT
BRANCH   1  12
ATOM     12  C   UNL     1       2.000   7.883  19.859  0.00  0.00    +0.000 C 
BRANCH  12  13
ATOM     13  N   UNL     1       1.357   8.626  18.779  0.00  0.00    +0.000 N 
ATOM     14  H   UNL     1       1.166   8.111  17.931  0.00  0.00    +0.000 HD
BRANCH  13  15
ATOM     15  C   UNL     1       1.029   9.968  18.752  0.00  0.00    +0.000 C 
ATOM     16  S   UNL     1       2.130  11.134  18.220  0.00  0.00    +0.000 S 
BRANCH  15  18
ATOM     17  C   UNL     1      -0.482  10.538  20.672  0.00  0.00    +0.000 C 
ATOM     18  N   UNL     1      -0.277  10.250  19.240  0.00  0.00    +0.000 N 
BRANCH  18  19
ATOM     19  C   UNL     1      -1.439  10.487  18.393  0.00  0.00    +0.000 A 
ATOM     20  C   UNL     1      -2.468  11.369  18.759  0.00  0.00    +0.000 A 
ATOM     21  C   UNL     1      -3.580  11.606  17.942  0.00  0.00    +0.000 A 
ATOM     22  C   UNL     1      -3.699  10.943  16.731  0.00  0.00    +0.000 A 
ATOM     23  C   UNL     1      -2.719  10.033  16.356  0.00  0.00    +0.000 A 
ATOM     24  C   UNL     1      -1.608   9.802  17.180  0.00  0.00    +0.000 A 
ENDBRANCH  18  19
ENDBRANCH  15  18
ENDBRANCH  13  15
ENDBRANCH  12  13
ENDBRANCH   1  12
BRANCH   4  25
ATOM     25  O   UNL     1       5.288   5.569  16.434  0.00  0.00    +0.000 OA
BRANCH  25  26
ATOM     26  C   UNL     1       6.739   5.559  16.546  0.00  0.00    +0.000 C 
ATOM     27  C   UNL     1       7.283   6.950  16.913  0.00  0.00    +0.000 C 
ATOM     28  C   UNL     1       7.093   4.601  17.696  0.00  0.00    +0.000 C 
ATOM     29  C   UNL     1       7.373   5.006  15.263  0.00  0.00    +0.000 C 
ENDBRANCH  25  26
ENDBRANCH   4  25
TORSDOF 7
ENDMDL
MODEL 9
REMARK VINA RESULT:      -7.7      1.125      1.947
REMARK  Name = 
REMARK  11 active torsions:
REMARK  status: ('A' for Active; 'I' for Inactive)
REMARK    1  A    between atoms: C_1  and  N_2
REMARK    2  A    between atoms: N_2  and  C_3
REMARK    3  A    between atoms: N_2  and  C_23
REMARK    4  A    between atoms: C_3  and  N_5
REMARK    5  A    between atoms: N_5  and  C_6
REMARK    6  A    between atoms: C_6  and  C_7
REMARK    7  A    between atoms: C_10  and  O_12
REMARK    8  A    between atoms: O_12  and  C_13
REMARK    9  A    between atoms: C_13  and  C_14
REMARK   10  A    between atoms: C_13  and  C_15
REMARK   11  A    between atoms: C_13  and  C_16
REMARK                            x       y       z     vdW  Elec       q    Type
REMARK                         _______ _______ _______ _____ _____    ______ ____
ROOT
ATOM      1  C   UNL     1       2.321   5.757  19.876  0.00  0.00    +0.000 A 
ATOM      2  C   UNL     1       3.424   6.013  19.077  0.00  0.00    +0.000 A 
ATOM      3  N   UNL     1       3.602   5.002  18.156  0.00  0.00    +0.000 N 
ATOM      4  C   UNL     1       4.536   4.986  17.093  0.00  0.00    +0.000 C 
ATOM      5  O   UNL     1       4.606   4.032  16.333  0.00  0.00    +0.000 OA
ATOM      6  C   UNL     1       2.685   3.994  18.459  0.00  0.00    +0.000 A 
ATOM      7  C   UNL     1       2.493   2.727  17.877  0.00  0.00    +0.000 A 
ATOM      8  C   UNL     1       1.482   1.903  18.372  0.00  0.00    +0.000 A 
ATOM      9  C   UNL     1       0.670   2.331  19.413  0.00  0.00    +0.000 A 
ATOM     10  C   UNL     1       0.853   3.595  19.985  0.00  0.00    +0.000 A 
ATOM     11  C   UNL     1       1.878   4.445  19.514  0.00  0.00    +0.000 A 
ENDROOT
BRANCH   1  12
ATOM     12  C   UNL     1       1.719   6.662  20.919  0.00  0.00    +0.000 C 
BRANCH  12  13
ATOM     13  N   UNL     1       1.977   8.057  20.573  0.00  0.00    +0.000 N 
ATOM     14  H   UNL     1       2.947   8.323  20.476  0.00  0.00    +0.000 HD
BRANCH  13  15
ATOM     15  C   UNL     1       1.057   9.076  20.422  0.00  0.00    +0.000 C 
ATOM     16  S   UNL     1      -0.094   9.410  21.614  0.00  0.00    +0.000 S 
BRANCH  15  18
ATOM     17  C   UNL     1       1.561   9.031  17.965  0.00  0.00    +0.000 C 
ATOM     18  N   UNL     1       1.160   9.763  19.181  0.00  0.00    +0.000 N 
BRANCH  18  19
ATOM     19  C   UNL     1       0.696  11.126  18.952  0.00  0.00    +0.000 A 
ATOM     20  C   UNL     1       1.512  12.245  19.182  0.00  0.00    +0.000 A 
ATOM     21  C   UNL     1       1.071  13.554  18.953  0.00  0.00    +0.000 A 
ATOM     22  C   UNL     1      -0.219  13.778  18.499  0.00  0.00    +0.000 A 
ATOM     23  C   UNL     1      -1.065  12.695  18.299  0.00  0.00    +0.000 A 
ATOM     24  C   UNL     1      -0.616  11.387  18.530  0.00  0.00    +0.000 A 
ENDBRANCH  18  19
ENDBRANCH  15  18
ENDBRANCH  13  15
ENDBRANCH  12  13
ENDBRANCH   1  12
BRANCH   4  25
ATOM     25  O   UNL     1       5.277   6.125  17.053  0.00  0.00    +0.000 OA
BRANCH  25  26
ATOM     26  C   UNL     1       6.724   5.992  17.131  0.00  0.00    +0.000 C 
ATOM     27  C   UNL     1       7.397   7.343  17.428  0.00  0.00    +0.000 C 
ATOM     28  C   UNL     1       7.026   5.052  18.311  0.00  0.00    +0.000 C 
ATOM     29  C   UNL     1       7.274   5.337  15.857  0.00  0.00    +0.000 C 
ENDBRANCH  25  26
ENDBRANCH   4  25
TORSDOF 7
ENDMDL
