MODEL 1
REMARK VINA RESULT:      -7.9      0.000      0.000
REMARK  Name = 
REMARK  10 active torsions:
REMARK  status: ('A' for Active; 'I' for Inactive)
REMARK    1  A    between atoms: C_1  and  C_2
REMARK    2  A    between atoms: C_4  and  C_5
REMARK    3  A    between atoms: C_7  and  O_8
REMARK    4  A    between atoms: O_8  and  C_9
REMARK    5  A    between atoms: C_9  and  C_10
REMARK    6  A    between atoms: C_10  and  O_11
REMARK    7  A    between atoms: C_10  and  C_12
REMARK    8  A    between atoms: C_12  and  C_13
REMARK    9  A    between atoms: C_13  and  N_14
REMARK   10  A    between atoms: N_17  and  C_18
REMARK                            x       y       z     vdW  Elec       q    Type
REMARK                         _______ _______ _______ _____ _____    ______ ____
ROOT
ATOM      1  C   UNL     1       6.902   7.339  17.524  0.00  0.00    +0.000 C 
ENDROOT
BRANCH   1   2
ATOM      2  C   UNL     1       8.296   7.843  17.927  0.00  0.00    +0.000 C 
BRANCH   2   3
ATOM      3  O   UNL     1       8.657   7.190  19.152  0.00  0.00    +0.000 OA
ATOM      4  H   UNL     1       9.428   7.646  19.527  0.00  0.00    +0.000 HD
ENDBRANCH   2   3
BRANCH   2   5
ATOM      5  C   UNL     1       8.282   9.373  18.074  0.00  0.00    +0.000 C 
BRANCH   5   6
ATOM      6  O   UNL     1       9.032   9.794  19.212  0.00  0.00    +0.000 OA
BRANCH   6  13
ATOM      7  C   UNL     1      11.532  13.230  16.623  0.00  0.00    +0.000 C 
ATOM      8  C   UNL     1      10.853  12.754  17.875  0.00  0.00    +0.000 A 
ATOM      9  C   UNL     1      10.810  13.557  19.021  0.00  0.00    +0.000 A 
ATOM     10  C   UNL     1      10.192  13.098  20.190  0.00  0.00    +0.000 A 
ATOM     11  C   UNL     1      10.142  13.947  21.425  0.00  0.00    +0.000 C 
ATOM     12  C   UNL     1       9.613  11.822  20.207  0.00  0.00    +0.000 A 
ATOM     13  C   UNL     1       9.630  11.021  19.066  0.00  0.00    +0.000 A 
ATOM     14  C   UNL     1      10.262  11.480  17.908  0.00  0.00    +0.000 A 
ENDBRANCH   6  13
ENDBRANCH   5   6
ENDBRANCH   2   5
ENDBRANCH   1   2
BRANCH   1  15
ATOM     15  C   UNL     1       6.913   6.044  16.689  0.00  0.00    +0.000 C 
BRANCH  15  16
ATOM     16  N   UNL     1       6.605   4.850  17.489  0.00  0.00    +0.000 NA
ATOM     17  C   UNL     1       5.873   5.182  18.732  0.00  0.00    +0.000 C 
ATOM     18  C   UNL     1       4.483   5.774  18.451  0.00  0.00    +0.000 C 
ATOM     19  N   UNL     1       3.651   4.780  17.764  0.00  0.00    +0.000 N 
ATOM     20  C   UNL     1       4.262   4.157  16.567  0.00  0.00    +0.000 C 
ATOM     21  C   UNL     1       5.784   3.859  16.742  0.00  0.00    +0.000 C 
BRANCH  19  22
ATOM     22  C   UNL     1       2.685   4.104  18.493  0.00  0.00    +0.000 A 
ATOM     23  C   UNL     1       1.872   4.787  19.405  0.00  0.00    +0.000 A 
ATOM     24  C   UNL     1       1.006   4.103  20.272  0.00  0.00    +0.000 A 
ATOM     25  C   UNL     1       0.923   2.715  20.230  0.00  0.00    +0.000 A 
ATOM     26  C   UNL     1       1.684   2.015  19.305  0.00  0.00    +0.000 A 
ATOM     27  C   UNL     1       2.547   2.704  18.447  0.00  0.00    +0.000 A 
ENDBRANCH  19  22
ENDBRANCH  15  16
ENDBRANCH   1  15
TORSDOF 8
ENDMDL
MODEL 2
REMARK VINA RESULT:      -7.9      0.824      2.288
REMARK  Name = 
REMARK  10 active torsions:
REMARK  status: ('A' for Active; 'I' for Inactive)
REMARK    1  A    between atoms: C_1  and  C_2
REMARK    2  A    between atoms: C_4  and  C_5
REMARK    3  A    between atoms: C_7  and  O_8
REMARK    4  A    between atoms: O_8  and  C_9
REMARK    5  A    between atoms: C_9  and  C_10
REMARK    6  A    between atoms: C_10  and  O_11
REMARK    7  A    between atoms: C_10  and  C_12
REMARK    8  A    between atoms: C_12  and  C_13
REMARK    9  A    between atoms: C_13  and  N_14
REMARK   10  A    between atoms: N_17  and  C_18
REMARK                            x       y       z     vdW  Elec       q    Type
REMARK                         _______ _______ _______ _____ _____    ______ ____
ROOT
ATOM      1  C   UNL     1       6.614   7.588  17.449  0.00  0.00    +0.000 C 
ENDROOT
BRANCH   1   2
ATOM      2  C   UNL     1       8.088   7.875  17.771  0.00  0.00    +0.000 C 
BRANCH   2   3
ATOM      3  O   UNL     1       8.448   7.082  18.910  0.00  0.00    +0.000 OA
ATOM      4  H   UNL     1       8.475   7.659  19.690  0.00  0.00    +0.000 HD
ENDBRANCH   2   3
BRANCH   2   5
ATOM      5  C   UNL     1       8.290   9.378  18.031  0.00  0.00    +0.000 C 
BRANCH   5   6
ATOM      6  O   UNL     1       9.107   9.603  19.178  0.00  0.00    +0.000 OA
BRANCH   6  13
ATOM      7  C   UNL     1       9.799  13.883  21.620  0.00  0.00    +0.000 C 
ATOM      8  C   UNL     1       9.956  13.015  20.405  0.00  0.00    +0.000 A 
ATOM      9  C   UNL     1      10.596  13.493  19.256  0.00  0.00    +0.000 A 
ATOM     10  C   UNL     1      10.722  12.684  18.120  0.00  0.00    +0.000 A 
ATOM     11  C   UNL     1      11.404  13.185  16.882  0.00  0.00    +0.000 C 
ATOM     12  C   UNL     1      10.199  11.384  18.141  0.00  0.00    +0.000 A 
ATOM     13  C   UNL     1       9.578  10.887  19.286  0.00  0.00    +0.000 A 
ATOM     14  C   UNL     1       9.443  11.707  20.410  0.00  0.00    +0.000 A 
ENDBRANCH   6  13
ENDBRANCH   5   6
ENDBRANCH   2   5
ENDBRANCH   1   2
BRANCH   1  15
ATOM     15  C   UNL     1       6.394   6.408  16.483  0.00  0.00    +0.000 C 
BRANCH  15  16
ATOM     16  N   UNL     1       4.971   6.099  16.281  0.00  0.00    +0.000 NA
ATOM     17  C   UNL     1       4.699   4.646  16.346  0.00  0.00    +0.000 C 
ATOM     18  C   UNL     1       4.982   4.061  17.739  0.00  0.00    +0.000 C 
ATOM     19  N   UNL     1       4.081   4.670  18.725  0.00  0.00    +0.000 N 
ATOM     20  C   UNL     1       4.043   6.151  18.721  0.00  0.00    +0.000 C 
ATOM     21  C   UNL     1       4.096   6.761  17.285  0.00  0.00    +0.000 C 
BRANCH  19  22
ATOM     22  C   UNL     1       2.990   3.940  19.169  0.00  0.00    +0.000 A 
ATOM     23  C   UNL     1       2.404   2.967  18.351  0.00  0.00    +0.000 A 
ATOM     24  C   UNL     1       1.203   2.334  18.709  0.00  0.00    +0.000 A 
ATOM     25  C   UNL     1       0.573   2.652  19.908  0.00  0.00    +0.000 A 
ATOM     26  C   UNL     1       1.156   3.580  20.759  0.00  0.00    +0.000 A 
ATOM     27  C   UNL     1       2.350   4.208  20.393  0.00  0.00    +0.000 A 
ENDBRANCH  19  22
ENDBRANCH  15  16
ENDBRANCH   1  15
TORSDOF 8
ENDMDL
MODEL 3
REMARK VINA RESULT:      -7.9      3.873      6.883
REMARK  Name = 
REMARK  10 active torsions:
REMARK  status: ('A' for Active; 'I' for Inactive)
REMARK    1  A    between atoms: C_1  and  C_2
REMARK    2  A    between atoms: C_4  and  C_5
REMARK    3  A    between atoms: C_7  and  O_8
REMARK    4  A    between atoms: O_8  and  C_9
REMARK    5  A    between atoms: C_9  and  C_10
REMARK    6  A    between atoms: C_10  and  O_11
REMARK    7  A    between atoms: C_10  and  C_12
REMARK    8  A    between atoms: C_12  and  C_13
REMARK    9  A    between atoms: C_13  and  N_14
REMARK   10  A    between atoms: N_17  and  C_18
REMARK                            x       y       z     vdW  Elec       q    Type
REMARK                         _______ _______ _______ _____ _____    ______ ____
ROOT
ATOM      1  C   UNL     1       2.648   1.869  18.541  0.00  0.00    +0.000 C 
ENDROOT
BRANCH   1   2
ATOM      2  C   UNL     1       4.180   1.975  18.577  0.00  0.00    +0.000 C 
BRANCH   2   3
ATOM      3  O   UNL     1       4.682   0.792  19.214  0.00  0.00    +0.000 OA
ATOM      4  H   UNL     1       5.039   1.040  20.084  0.00  0.00    +0.000 HD
ENDBRANCH   2   3
BRANCH   2   5
ATOM      5  C   UNL     1       4.604   3.252  19.320  0.00  0.00    +0.000 C 
BRANCH   5   6
ATOM      6  O   UNL     1       5.991   3.528  19.131  0.00  0.00    +0.000 OA
BRANCH   6  13
ATOM      7  C   UNL     1       7.693   7.965  17.656  0.00  0.00    +0.000 C 
ATOM      8  C   UNL     1       7.051   6.637  17.376  0.00  0.00    +0.000 A 
ATOM      9  C   UNL     1       6.635   6.295  16.084  0.00  0.00    +0.000 A 
ATOM     10  C   UNL     1       6.019   5.063  15.835  0.00  0.00    +0.000 A 
ATOM     11  C   UNL     1       5.567   4.686  14.456  0.00  0.00    +0.000 C 
ATOM     12  C   UNL     1       5.819   4.168  16.895  0.00  0.00    +0.000 A 
ATOM     13  C   UNL     1       6.247   4.486  18.183  0.00  0.00    +0.000 A 
ATOM     14  C   UNL     1       6.848   5.725  18.426  0.00  0.00    +0.000 A 
ENDBRANCH   6  13
ENDBRANCH   5   6
ENDBRANCH   2   5
ENDBRANCH   1   2
BRANCH   1  15
ATOM     15  C   UNL     1       1.938   2.542  19.732  0.00  0.00    +0.000 C 
BRANCH  15  16
ATOM     16  N   UNL     1       0.953   3.549  19.310  0.00  0.00    +0.000 NA
ATOM     17  C   UNL     1       0.752   4.600  20.332  0.00  0.00    +0.000 C 
ATOM     18  C   UNL     1       2.020   5.437  20.565  0.00  0.00    +0.000 C 
ATOM     19  N   UNL     1       2.373   6.155  19.335  0.00  0.00    +0.000 N 
ATOM     20  C   UNL     1       2.454   5.320  18.113  0.00  0.00    +0.000 C 
ATOM     21  C   UNL     1       1.340   4.228  18.044  0.00  0.00    +0.000 C 
BRANCH  19  22
ATOM     22  C   UNL     1       2.079   7.506  19.245  0.00  0.00    +0.000 A 
ATOM     23  C   UNL     1       1.473   8.176  20.315  0.00  0.00    +0.000 A 
ATOM     24  C   UNL     1       1.014   9.496  20.189  0.00  0.00    +0.000 A 
ATOM     25  C   UNL     1       1.172  10.182  18.989  0.00  0.00    +0.000 A 
ATOM     26  C   UNL     1       1.810   9.557  17.926  0.00  0.00    +0.000 A 
ATOM     27  C   UNL     1       2.260   8.241  18.059  0.00  0.00    +0.000 A 
ENDBRANCH  19  22
ENDBRANCH  15  16
ENDBRANCH   1  15
TORSDOF 8
ENDMDL
MODEL 4
REMARK VINA RESULT:      -7.5      5.242      7.877
REMARK  Name = 
REMARK  10 active torsions:
REMARK  status: ('A' for Active; 'I' for Inactive)
REMARK    1  A    between atoms: C_1  and  C_2
REMARK    2  A    between atoms: C_4  and  C_5
REMARK    3  A    between atoms: C_7  and  O_8
REMARK    4  A    between atoms: O_8  and  C_9
REMARK    5  A    between atoms: C_9  and  C_10
REMARK    6  A    between atoms: C_10  and  O_11
REMARK    7  A    between atoms: C_10  and  C_12
REMARK    8  A    between atoms: C_12  and  C_13
REMARK    9  A    between atoms: C_13  and  N_14
REMARK   10  A    between atoms: N_17  and  C_18
REMARK                            x       y       z     vdW  Elec       q    Type
REMARK                         _______ _______ _______ _____ _____    ______ ____
ROOT
ATOM      1  C   UNL     1       3.619   4.095  19.658  0.00  0.00    +0.000 C 
ENDROOT
BRANCH   1   2
ATOM      2  C   UNL     1       2.807   4.919  20.669  0.00  0.00    +0.000 C 
BRANCH   2   3
ATOM      3  O   UNL     1       2.025   4.004  21.448  0.00  0.00    +0.000 OA
ATOM      4  H   UNL     1       1.221   4.462  21.745  0.00  0.00    +0.000 HD
ENDBRANCH   2   3
BRANCH   2   5
ATOM      5  C   UNL     1       1.928   5.943  19.931  0.00  0.00    +0.000 C 
BRANCH   5   6
ATOM      6  O   UNL     1       2.494   7.251  19.986  0.00  0.00    +0.000 OA
BRANCH   6  13
ATOM      7  C   UNL     1      -0.381  11.018  18.467  0.00  0.00    +0.000 C 
ATOM      8  C   UNL     1       0.143  10.103  19.537  0.00  0.00    +0.000 A 
ATOM      9  C   UNL     1      -0.273  10.239  20.867  0.00  0.00    +0.000 A 
ATOM     10  C   UNL     1       0.234   9.395  21.862  0.00  0.00    +0.000 A 
ATOM     11  C   UNL     1      -0.201   9.531  23.290  0.00  0.00    +0.000 C 
ATOM     12  C   UNL     1       1.168   8.408  21.517  0.00  0.00    +0.000 A 
ATOM     13  C   UNL     1       1.575   8.249  20.193  0.00  0.00    +0.000 A 
ATOM     14  C   UNL     1       1.075   9.105  19.208  0.00  0.00    +0.000 A 
ENDBRANCH   6  13
ENDBRANCH   5   6
ENDBRANCH   2   5
ENDBRANCH   1   2
BRANCH   1  15
ATOM     15  C   UNL     1       4.986   4.705  19.295  0.00  0.00    +0.000 C 
BRANCH  15  16
ATOM     16  N   UNL     1       4.918   5.594  18.126  0.00  0.00    +0.000 NA
ATOM     17  C   UNL     1       6.242   5.796  17.497  0.00  0.00    +0.000 C 
ATOM     18  C   UNL     1       6.812   4.497  16.906  0.00  0.00    +0.000 C 
ATOM     19  N   UNL     1       5.939   4.018  15.828  0.00  0.00    +0.000 N 
ATOM     20  C   UNL     1       4.503   3.909  16.174  0.00  0.00    +0.000 C 
ATOM     21  C   UNL     1       4.000   5.081  17.073  0.00  0.00    +0.000 C 
BRANCH  19  22
ATOM     22  C   UNL     1       6.332   4.220  14.515  0.00  0.00    +0.000 A 
ATOM     23  C   UNL     1       5.797   3.441  13.482  0.00  0.00    +0.000 A 
ATOM     24  C   UNL     1       6.299   3.512  12.173  0.00  0.00    +0.000 A 
ATOM     25  C   UNL     1       7.339   4.383  11.867  0.00  0.00    +0.000 A 
ATOM     26  C   UNL     1       7.858   5.200  12.861  0.00  0.00    +0.000 A 
ATOM     27  C   UNL     1       7.355   5.121  14.163  0.00  0.00    +0.000 A 
ENDBRANCH  19  22
ENDBRANCH  15  16
ENDBRANCH   1  15
TORSDOF 8
ENDMDL
MODEL 5
REMARK VINA RESULT:      -7.5      5.541      7.520
REMARK  Name = 
REMARK  10 active torsions:
REMARK  status: ('A' for Active; 'I' for Inactive)
REMARK    1  A    between atoms: C_1  and  C_2
REMARK    2  A    between atoms: C_4  and  C_5
REMARK    3  A    between atoms: C_7  and  O_8
REMARK    4  A    between atoms: O_8  and  C_9
REMARK    5  A    between atoms: C_9  and  C_10
REMARK    6  A    between atoms: C_10  and  O_11
REMARK    7  A    between atoms: C_10  and  C_12
REMARK    8  A    between atoms: C_12  and  C_13
REMARK    9  A    between atoms: C_13  and  N_14
REMARK   10  A    between atoms: N_17  and  C_18
REMARK                            x       y       z     vdW  Elec       q    Type
REMARK                         _______ _______ _______ _____ _____    ______ ____
ROOT
ATOM      1  C   UNL     1       4.303   3.349  17.788  0.00  0.00    +0.000 C 
ENDROOT
BRANCH   1   2
ATOM      2  C   UNL     1       5.712   3.841  18.151  0.00  0.00    +0.000 C 
BRANCH   2   3
ATOM      3  O   UNL     1       5.599   4.655  19.326  0.00  0.00    +0.000 OA
ATOM      4  H   UNL     1       6.366   5.250  19.363  0.00  0.00    +0.000 HD
ENDBRANCH   2   3
BRANCH   2   5
ATOM      5  C   UNL     1       6.321   4.617  16.971  0.00  0.00    +0.000 C 
BRANCH   5   6
ATOM      6  O   UNL     1       5.374   4.795  15.920  0.00  0.00    +0.000 OA
BRANCH   6  13
ATOM      7  C   UNL     1       5.395   2.436  11.539  0.00  0.00    +0.000 C 
ATOM      8  C   UNL     1       5.961   3.440  12.502  0.00  0.00    +0.000 A 
ATOM      9  C   UNL     1       7.094   4.193  12.174  0.00  0.00    +0.000 A 
ATOM     10  C   UNL     1       7.627   5.113  13.084  0.00  0.00    +0.000 A 
ATOM     11  C   UNL     1       8.842   5.924  12.746  0.00  0.00    +0.000 C 
ATOM     12  C   UNL     1       7.016   5.275  14.335  0.00  0.00    +0.000 A 
ATOM     13  C   UNL     1       5.875   4.547  14.667  0.00  0.00    +0.000 A 
ATOM     14  C   UNL     1       5.358   3.620  13.758  0.00  0.00    +0.000 A 
ENDBRANCH   6  13
ENDBRANCH   5   6
ENDBRANCH   2   5
ENDBRANCH   1   2
BRANCH   1  15
ATOM     15  C   UNL     1       3.298   3.386  18.956  0.00  0.00    +0.000 C 
BRANCH  15  16
ATOM     16  N   UNL     1       2.079   4.142  18.631  0.00  0.00    +0.000 NA
ATOM     17  C   UNL     1       1.377   4.621  19.843  0.00  0.00    +0.000 C 
ATOM     18  C   UNL     1       2.211   5.639  20.637  0.00  0.00    +0.000 C 
ATOM     19  N   UNL     1       2.438   6.837  19.821  0.00  0.00    +0.000 N 
ATOM     20  C   UNL     1       2.977   6.589  18.463  0.00  0.00    +0.000 C 
ATOM     21  C   UNL     1       2.356   5.330  17.780  0.00  0.00    +0.000 C 
BRANCH  19  22
ATOM     22  C   UNL     1       1.687   7.972  20.083  0.00  0.00    +0.000 A 
ATOM     23  C   UNL     1       1.048   8.134  21.318  0.00  0.00    +0.000 A 
ATOM     24  C   UNL     1       0.150   9.188  21.546  0.00  0.00    +0.000 A 
ATOM     25  C   UNL     1      -0.112  10.117  20.544  0.00  0.00    +0.000 A 
ATOM     26  C   UNL     1       0.542  10.006  19.325  0.00  0.00    +0.000 A 
ATOM     27  C   UNL     1       1.432   8.951  19.104  0.00  0.00    +0.000 A 
ENDBRANCH  19  22
ENDBRANCH  15  16
ENDBRANCH   1  15
TORSDOF 8
ENDMDL
MODEL 6
REMARK VINA RESULT:      -7.5      1.987      2.759
REMARK  Name = 
REMARK  10 active torsions:
REMARK  status: ('A' for Active; 'I' for Inactive)
REMARK    1  A    between atoms: C_1  and  C_2
REMARK    2  A    between atoms: C_4  and  C_5
REMARK    3  A    between atoms: C_7  and  O_8
REMARK    4  A    between atoms: O_8  and  C_9
REMARK    5  A    between atoms: C_9  and  C_10
REMARK    6  A    between atoms: C_10  and  O_11
REMARK    7  A    between atoms: C_10  and  C_12
REMARK    8  A    between atoms: C_12  and  C_13
REMARK    9  A    between atoms: C_13  and  N_14
REMARK   10  A    between atoms: N_17  and  C_18
REMARK                            x       y       z     vdW  Elec       q    Type
REMARK                         _______ _______ _______ _____ _____    ______ ____
ROOT
ATOM      1  C   UNL     1       7.851   8.677  17.654  0.00  0.00    +0.000 C 
ENDROOT
BRANCH   1   2
ATOM      2  C   UNL     1       8.932   9.619  18.203  0.00  0.00    +0.000 C 
BRANCH   2   3
ATOM      3  O   UNL     1       9.040   9.382  19.613  0.00  0.00    +0.000 OA
ATOM      4  H   UNL     1       9.951   9.577  19.889  0.00  0.00    +0.000 HD
ENDBRANCH   2   3
BRANCH   2   5
ATOM      5  C   UNL     1       8.568  11.080  17.893  0.00  0.00    +0.000 C 
BRANCH   5   6
ATOM      6  O   UNL     1       9.703  11.936  18.005  0.00  0.00    +0.000 OA
BRANCH   6  13
ATOM      7  C   UNL     1       6.604  15.799  18.483  0.00  0.00    +0.000 C 
ATOM      8  C   UNL     1       7.954  15.219  18.174  0.00  0.00    +0.000 A 
ATOM      9  C   UNL     1       9.020  16.040  17.789  0.00  0.00    +0.000 A 
ATOM     10  C   UNL     1      10.270  15.489  17.484  0.00  0.00    +0.000 A 
ATOM     11  C   UNL     1      11.420  16.358  17.068  0.00  0.00    +0.000 C 
ATOM     12  C   UNL     1      10.449  14.101  17.566  0.00  0.00    +0.000 A 
ATOM     13  C   UNL     1       9.402  13.274  17.967  0.00  0.00    +0.000 A 
ATOM     14  C   UNL     1       8.152  13.830  18.256  0.00  0.00    +0.000 A 
ENDBRANCH   6  13
ENDBRANCH   5   6
ENDBRANCH   2   5
ENDBRANCH   1   2
BRANCH   1  15
ATOM     15  C   UNL     1       7.888   7.255  18.245  0.00  0.00    +0.000 C 
BRANCH  15  16
ATOM     16  N   UNL     1       7.337   6.245  17.329  0.00  0.00    +0.000 NA
ATOM     17  C   UNL     1       7.081   4.954  18.006  0.00  0.00    +0.000 C 
ATOM     18  C   UNL     1       5.994   5.067  19.086  0.00  0.00    +0.000 C 
ATOM     19  N   UNL     1       4.717   5.440  18.467  0.00  0.00    +0.000 N 
ATOM     20  C   UNL     1       4.765   6.623  17.575  0.00  0.00    +0.000 C 
ATOM     21  C   UNL     1       6.059   6.680  16.704  0.00  0.00    +0.000 C 
BRANCH  19  22
ATOM     22  C   UNL     1       3.755   4.460  18.283  0.00  0.00    +0.000 A 
ATOM     23  C   UNL     1       2.414   4.806  18.079  0.00  0.00    +0.000 A 
ATOM     24  C   UNL     1       1.401   3.836  18.058  0.00  0.00    +0.000 A 
ATOM     25  C   UNL     1       1.714   2.490  18.221  0.00  0.00    +0.000 A 
ATOM     26  C   UNL     1       3.041   2.114  18.379  0.00  0.00    +0.000 A 
ATOM     27  C   UNL     1       4.043   3.087  18.403  0.00  0.00    +0.000 A 
ENDBRANCH  19  22
ENDBRANCH  15  16
ENDBRANCH   1  15
TORSDOF 8
ENDMDL
MODEL 7
REMARK VINA RESULT:      -7.3      1.376      2.042
REMARK  Name = 
REMARK  10 active torsions:
REMARK  status: ('A' for Active; 'I' for Inactive)
REMARK    1  A    between atoms: C_1  and  C_2
REMARK    2  A    between atoms: C_4  and  C_5
REMARK    3  A    between atoms: C_7  and  O_8
REMARK    4  A    between atoms: O_8  and  C_9
REMARK    5  A    between atoms: C_9  and  C_10
REMARK    6  A    between atoms: C_10  and  O_11
REMARK    7  A    between atoms: C_10  and  C_12
REMARK    8  A    between atoms: C_12  and  C_13
REMARK    9  A    between atoms: C_13  and  N_14
REMARK   10  A    between atoms: N_17  and  C_18
REMARK                            x       y       z     vdW  Elec       q    Type
REMARK                         _______ _______ _______ _____ _____    ______ ____
ROOT
ATOM      1  C   UNL     1       7.038   7.675  17.327  0.00  0.00    +0.000 C 
ENDROOT
BRANCH   1   2
ATOM      2  C   UNL     1       8.364   7.944  18.052  0.00  0.00    +0.000 C 
BRANCH   2   3
ATOM      3  O   UNL     1       8.457   7.022  19.146  0.00  0.00    +0.000 OA
ATOM      4  H   UNL     1       8.319   7.511  19.974  0.00  0.00    +0.000 HD
ENDBRANCH   2   3
BRANCH   2   5
ATOM      5  C   UNL     1       8.420   9.406  18.527  0.00  0.00    +0.000 C 
BRANCH   5   6
ATOM      6  O   UNL     1       9.180  10.215  17.633  0.00  0.00    +0.000 OA
BRANCH   6  13
ATOM      7  C   UNL     1       7.320  14.831  17.676  0.00  0.00    +0.000 C 
ATOM      8  C   UNL     1       8.379  13.829  18.038  0.00  0.00    +0.000 A 
ATOM      9  C   UNL     1       9.521  14.215  18.749  0.00  0.00    +0.000 A 
ATOM     10  C   UNL     1      10.514  13.280  19.066  0.00  0.00    +0.000 A 
ATOM     11  C   UNL     1      11.743  13.680  19.825  0.00  0.00    +0.000 C 
ATOM     12  C   UNL     1      10.356  11.946  18.663  0.00  0.00    +0.000 A 
ATOM     13  C   UNL     1       9.214  11.545  17.972  0.00  0.00    +0.000 A 
ATOM     14  C   UNL     1       8.235  12.488  17.647  0.00  0.00    +0.000 A 
ENDBRANCH   6  13
ENDBRANCH   5   6
ENDBRANCH   2   5
ENDBRANCH   1   2
BRANCH   1  15
ATOM     15  C   UNL     1       6.863   6.223  16.842  0.00  0.00    +0.000 C 
BRANCH  15  16
ATOM     16  N   UNL     1       5.469   5.903  16.499  0.00  0.00    +0.000 NA
ATOM     17  C   UNL     1       5.167   4.464  16.663  0.00  0.00    +0.000 C 
ATOM     18  C   UNL     1       5.272   4.008  18.127  0.00  0.00    +0.000 C 
ATOM     19  N   UNL     1       4.270   4.710  18.937  0.00  0.00    +0.000 N 
ATOM     20  C   UNL     1       4.257   6.185  18.795  0.00  0.00    +0.000 C 
ATOM     21  C   UNL     1       4.491   6.659  17.327  0.00  0.00    +0.000 C 
BRANCH  19  22
ATOM     22  C   UNL     1       3.123   4.029  19.311  0.00  0.00    +0.000 A 
ATOM     23  C   UNL     1       2.865   2.743  18.821  0.00  0.00    +0.000 A 
ATOM     24  C   UNL     1       1.637   2.103  19.049  0.00  0.00    +0.000 A 
ATOM     25  C   UNL     1       0.645   2.733  19.794  0.00  0.00    +0.000 A 
ATOM     26  C   UNL     1       0.891   3.989  20.331  0.00  0.00    +0.000 A 
ATOM     27  C   UNL     1       2.115   4.621  20.095  0.00  0.00    +0.000 A 
ENDBRANCH  19  22
ENDBRANCH  15  16
ENDBRANCH   1  15
TORSDOF 8
ENDMDL
MODEL 8
REMARK VINA RESULT:      -7.2      5.872      8.751
REMARK  Name = 
REMARK  10 active torsions:
REMARK  status: ('A' for Active; 'I' for Inactive)
REMARK    1  A    between atoms: C_1  and  C_2
REMARK    2  A    between atoms: C_4  and  C_5
REMARK    3  A    between atoms: C_7  and  O_8
REMARK    4  A    between atoms: O_8  and  C_9
REMARK    5  A    between atoms: C_9  and  C_10
REMARK    6  A    between atoms: C_10  and  O_11
REMARK    7  A    between atoms: C_10  and  C_12
REMARK    8  A    between atoms: C_12  and  C_13
REMARK    9  A    between atoms: C_13  and  N_14
REMARK   10  A    between atoms: N_17  and  C_18
REMARK                            x       y       z     vdW  Elec       q    Type
REMARK                         _______ _______ _______ _____ _____    ______ ____
ROOT
ATOM      1  C   UNL     1       2.389   7.239  19.304  0.00  0.00    +0.000 C 
ENDROOT
BRANCH   1   2
ATOM      2  C   UNL     1       2.339   5.733  19.601  0.00  0.00    +0.000 C 
BRANCH   2   3
ATOM      3  O   UNL     1       1.610   5.555  20.823  0.00  0.00    +0.000 OA
ATOM      4  H   UNL     1       2.200   5.763  21.566  0.00  0.00    +0.000 HD
ENDBRANCH   2   3
BRANCH   2   5
ATOM      5  C   UNL     1       3.765   5.165  19.695  0.00  0.00    +0.000 C 
BRANCH   5   6
ATOM      6  O   UNL     1       4.009   4.201  18.674  0.00  0.00    +0.000 OA
BRANCH   6  13
ATOM      7  C   UNL     1       6.117   3.929  14.174  0.00  0.00    +0.000 C 
ATOM      8  C   UNL     1       5.978   4.554  15.532  0.00  0.00    +0.000 A 
ATOM      9  C   UNL     1       6.790   5.627  15.918  0.00  0.00    +0.000 A 
ATOM     10  C   UNL     1       6.667   6.192  17.193  0.00  0.00    +0.000 A 
ATOM     11  C   UNL     1       7.532   7.340  17.619  0.00  0.00    +0.000 C 
ATOM     12  C   UNL     1       5.720   5.673  18.087  0.00  0.00    +0.000 A 
ATOM     13  C   UNL     1       4.891   4.618  17.708  0.00  0.00    +0.000 A 
ATOM     14  C   UNL     1       5.030   4.050  16.439  0.00  0.00    +0.000 A 
ENDBRANCH   6  13
ENDBRANCH   5   6
ENDBRANCH   2   5
ENDBRANCH   1   2
BRANCH   1  15
ATOM     15  C   UNL     1       1.892   8.131  20.459  0.00  0.00    +0.000 C 
BRANCH  15  16
ATOM     16  N   UNL     1       0.529   8.637  20.238  0.00  0.00    +0.000 NA
ATOM     17  C   UNL     1      -0.261   8.682  21.488  0.00  0.00    +0.000 C 
ATOM     18  C   UNL     1       0.314   9.680  22.507  0.00  0.00    +0.000 C 
ATOM     19  N   UNL     1       0.252  11.039  21.959  0.00  0.00    +0.000 N 
ATOM     20  C   UNL     1       0.829  11.206  20.604  0.00  0.00    +0.000 C 
ATOM     21  C   UNL     1       0.517  10.006  19.655  0.00  0.00    +0.000 C 
BRANCH  19  22
ATOM     22  C   UNL     1      -0.743  11.893  22.408  0.00  0.00    +0.000 A 
ATOM     23  C   UNL     1      -0.553  13.279  22.393  0.00  0.00    +0.000 A 
ATOM     24  C   UNL     1      -1.472  14.153  22.995  0.00  0.00    +0.000 A 
ATOM     25  C   UNL     1      -2.615  13.653  23.610  0.00  0.00    +0.000 A 
ATOM     26  C   UNL     1      -2.852  12.286  23.600  0.00  0.00    +0.000 A 
ATOM     27  C   UNL     1      -1.930  11.423  23.002  0.00  0.00    +0.000 A 
ENDBRANCH  19  22
ENDBRANCH  15  16
ENDBRANCH   1  15
TORSDOF 8
ENDMDL
MODEL 9
REMARK VINA RESULT:      -7.2      7.653     10.786
REMARK  Name = 
REMARK  10 active torsions:
REMARK  status: ('A' for Active; 'I' for Inactive)
REMARK    1  A    between atoms: C_1  and  C_2
REMARK    2  A    between atoms: C_4  and  C_5
REMARK    3  A    between atoms: C_7  and  O_8
REMARK    4  A    between atoms: O_8  and  C_9
REMARK    5  A    between atoms: C_9  and  C_10
REMARK    6  A    between atoms: C_10  and  O_11
REMARK    7  A    between atoms: C_10  and  C_12
REMARK    8  A    between atoms: C_12  and  C_13
REMARK    9  A    between atoms: C_13  and  N_14
REMARK   10  A    between atoms: N_17  and  C_18
REMARK                            x       y       z     vdW  Elec       q    Type
REMARK                         _______ _______ _______ _____ _____    ______ ____
ROOT
ATOM      1  C   UNL     1       0.257   9.610  17.871  0.00  0.00    +0.000 C 
ENDROOT
BRANCH   1   2
ATOM      2  C   UNL     1       1.757   9.784  18.150  0.00  0.00    +0.000 C 
BRANCH   2   3
ATOM      3  O   UNL     1       2.209  10.923  17.406  0.00  0.00    +0.000 OA
ATOM      4  H   UNL     1       1.514  11.174  16.775  0.00  0.00    +0.000 HD
ENDBRANCH   2   3
BRANCH   2   5
ATOM      5  C   UNL     1       2.518   8.505  17.762  0.00  0.00    +0.000 C 
BRANCH   5   6
ATOM      6  O   UNL     1       2.354   7.483  18.743  0.00  0.00    +0.000 OA
BRANCH   6  13
ATOM      7  C   UNL     1       1.508   2.592  18.403  0.00  0.00    +0.000 C 
ATOM      8  C   UNL     1       2.305   3.821  18.073  0.00  0.00    +0.000 A 
ATOM      9  C   UNL     1       3.450   3.743  17.271  0.00  0.00    +0.000 A 
ATOM     10  C   UNL     1       4.198   4.890  16.984  0.00  0.00    +0.000 A 
ATOM     11  C   UNL     1       5.428   4.819  16.129  0.00  0.00    +0.000 C 
ATOM     12  C   UNL     1       3.792   6.125  17.507  0.00  0.00    +0.000 A 
ATOM     13  C   UNL     1       2.643   6.221  18.290  0.00  0.00    +0.000 A 
ATOM     14  C   UNL     1       1.909   5.068  18.584  0.00  0.00    +0.000 A 
ENDBRANCH   6  13
ENDBRANCH   5   6
ENDBRANCH   2   5
ENDBRANCH   1   2
BRANCH   1  15
ATOM     15  C   UNL     1      -0.661  10.398  18.826  0.00  0.00    +0.000 C 
BRANCH  15  16
ATOM     16  N   UNL     1      -1.170  11.640  18.228  0.00  0.00    +0.000 NA
ATOM     17  C   UNL     1      -2.273  11.393  17.273  0.00  0.00    +0.000 C 
ATOM     18  C   UNL     1      -3.518  10.808  17.959  0.00  0.00    +0.000 C 
ATOM     19  N   UNL     1      -4.051  11.775  18.926  0.00  0.00    +0.000 N 
ATOM     20  C   UNL     1      -3.066  12.318  19.891  0.00  0.00    +0.000 C 
ATOM     21  C   UNL     1      -1.672  12.600  19.248  0.00  0.00    +0.000 C 
BRANCH  19  22
ATOM     22  C   UNL     1      -5.176  12.508  18.583  0.00  0.00    +0.000 A 
ATOM     23  C   UNL     1      -5.785  13.357  19.515  0.00  0.00    +0.000 A 
ATOM     24  C   UNL     1      -7.015  13.978  19.247  0.00  0.00    +0.000 A 
ATOM     25  C   UNL     1      -7.653  13.775  18.028  0.00  0.00    +0.000 A 
ATOM     26  C   UNL     1      -7.049  12.974  17.068  0.00  0.00    +0.000 A 
ATOM     27  C   UNL     1      -5.826  12.357  17.344  0.00  0.00    +0.000 A 
ENDBRANCH  19  22
ENDBRANCH  15  16
ENDBRANCH   1  15
TORSDOF 8
ENDMDL
