MODEL 1
REMARK VINA RESULT:      -7.1      0.000      0.000
REMARK  Name = 
REMARK  15 active torsions:
REMARK  status: ('A' for Active; 'I' for Inactive)
REMARK    1  A    between atoms: C_1  and  C_2
REMARK    2  A    between atoms: C_2  and  C_3
REMARK    3  A    between atoms: C_2  and  C_4
REMARK    4  A    between atoms: C_4  and  C_5
REMARK    5  A    between atoms: C_4  and  C_26
REMARK    6  A    between atoms: C_5  and  C_6
REMARK    7  A    between atoms: C_6  and  O_8
REMARK    8  A    between atoms: O_8  and  C_9
REMARK    9  A    between atoms: C_9  and  C_10
REMARK   10  A    between atoms: C_10  and  C_11
REMARK   11  A    between atoms: C_11  and  O_12
REMARK   12  A    between atoms: C_15  and  C_16
REMARK   13  A    between atoms: C_19  and  O_20
REMARK   14  A    between atoms: C_26  and  C_27
REMARK   15  A    between atoms: C_26  and  C_28
REMARK                            x       y       z     vdW  Elec       q    Type
REMARK                         _______ _______ _______ _____ _____    ______ ____
ROOT
ATOM      1  C   UNL     1       0.244   9.642  21.555  0.00  0.00    +0.000 C 
ATOM      2  C   UNL     1      -0.723  10.008  20.420  0.00  0.00    +0.000 C 
ATOM      3  C   UNL     1      -0.347  11.412  20.126  0.00  0.00    +0.000 C 
ATOM      4  C   UNL     1      -1.025  12.373  19.468  0.00  0.00    +0.000 C 
ATOM      5  C   UNL     1       0.971  11.682  20.719  0.00  0.00    +0.000 C 
ATOM      6  O   UNL     1       1.639  12.691  20.596  0.00  0.00    +0.000 OA
ATOM      7  O   UNL     1       1.329  10.591  21.455  0.00  0.00    +0.000 OA
ENDROOT
BRANCH   4   8
ATOM      8  C   UNL     1      -2.354  12.146  18.907  0.00  0.00    +0.000 A 
ATOM      9  C   UNL     1      -3.496  12.407  19.675  0.00  0.00    +0.000 A 
ATOM     10  C   UNL     1      -4.767  12.119  19.167  0.00  0.00    +0.000 A 
ATOM     11  C   UNL     1      -4.885  11.584  17.888  0.00  0.00    +0.000 A 
ATOM     12  C   UNL     1      -3.760  11.345  17.107  0.00  0.00    +0.000 A 
ATOM     13  C   UNL     1      -2.491  11.622  17.617  0.00  0.00    +0.000 A 
BRANCH  11  14
ATOM     14  O   UNL     1      -6.102  11.272  17.360  0.00  0.00    +0.000 OA
ATOM     15  H   UNL     1      -6.765  11.877  17.732  0.00  0.00    +0.000 HD
ENDBRANCH  11  14
ENDBRANCH   4   8
BRANCH   1  16
ATOM     16  C   UNL     1       0.812   8.215  21.408  0.00  0.00    +0.000 C 
BRANCH  16  17
ATOM     17  O   UNL     1       2.033   8.211  20.640  0.00  0.00    +0.000 OA
BRANCH  17  18
ATOM     18  C   UNL     1       2.149   7.262  19.672  0.00  0.00    +0.000 C 
ATOM     19  O   UNL     1       2.163   7.492  18.464  0.00  0.00    +0.000 OA
BRANCH  18  20
ATOM     20  C   UNL     1       2.245   5.875  20.263  0.00  0.00    +0.000 C 
BRANCH  20  21
ATOM     21  C   UNL     1       1.981   4.732  19.240  0.00  0.00    +0.000 C 
BRANCH  21  23
ATOM     22  C   UNL     1       0.746   2.449  18.938  0.00  0.00    +0.000 C 
ATOM     23  C   UNL     1       0.986   3.667  19.852  0.00  0.00    +0.000 C 
ATOM     24  C   UNL     1       1.403   3.086  21.205  0.00  0.00    +0.000 C 
ENDBRANCH  21  23
BRANCH  21  25
ATOM     25  C   UNL     1       3.352   4.152  18.699  0.00  0.00    +0.000 C 
ATOM     26  C   UNL     1       3.660   4.467  17.230  0.00  0.00    +0.000 C 
ATOM     27  C   UNL     1       4.583   4.649  19.485  0.00  0.00    +0.000 C 
ENDBRANCH  21  25
ENDBRANCH  20  21
ENDBRANCH  18  20
ENDBRANCH  17  18
ENDBRANCH  16  17
ENDBRANCH   1  16
BRANCH   1  28
ATOM     28  C   UNL     1      -0.413   9.773  22.942  0.00  0.00    +0.000 C 
BRANCH  28  29
ATOM     29  O   UNL     1       0.507   9.525  24.002  0.00  0.00    +0.000 OA
ATOM     30  H   UNL     1       0.790   8.596  23.918  0.00  0.00    +0.000 HD
ENDBRANCH  28  29
ENDBRANCH   1  28
TORSDOF 11
ENDMDL
MODEL 2
REMARK VINA RESULT:      -7.1      3.437      6.511
REMARK  Name = 
REMARK  15 active torsions:
REMARK  status: ('A' for Active; 'I' for Inactive)
REMARK    1  A    between atoms: C_1  and  C_2
REMARK    2  A    between atoms: C_2  and  C_3
REMARK    3  A    between atoms: C_2  and  C_4
REMARK    4  A    between atoms: C_4  and  C_5
REMARK    5  A    between atoms: C_4  and  C_26
REMARK    6  A    between atoms: C_5  and  C_6
REMARK    7  A    between atoms: C_6  and  O_8
REMARK    8  A    between atoms: O_8  and  C_9
REMARK    9  A    between atoms: C_9  and  C_10
REMARK   10  A    between atoms: C_10  and  C_11
REMARK   11  A    between atoms: C_11  and  O_12
REMARK   12  A    between atoms: C_15  and  C_16
REMARK   13  A    between atoms: C_19  and  O_20
REMARK   14  A    between atoms: C_26  and  C_27
REMARK   15  A    between atoms: C_26  and  C_28
REMARK                            x       y       z     vdW  Elec       q    Type
REMARK                         _______ _______ _______ _____ _____    ______ ____
ROOT
ATOM      1  C   UNL     1       5.911   5.211  18.220  0.00  0.00    +0.000 C 
ATOM      2  C   UNL     1       4.540   5.827  18.532  0.00  0.00    +0.000 C 
ATOM      3  C   UNL     1       4.289   6.662  17.332  0.00  0.00    +0.000 C 
ATOM      4  C   UNL     1       3.424   7.680  17.149  0.00  0.00    +0.000 C 
ATOM      5  C   UNL     1       5.202   6.237  16.262  0.00  0.00    +0.000 C 
ATOM      6  O   UNL     1       5.216   6.627  15.110  0.00  0.00    +0.000 OA
ATOM      7  O   UNL     1       6.062   5.317  16.787  0.00  0.00    +0.000 OA
ENDROOT
BRANCH   4   8
ATOM      8  C   UNL     1       2.536   8.151  18.208  0.00  0.00    +0.000 A 
ATOM      9  C   UNL     1       1.848   9.362  18.063  0.00  0.00    +0.000 A 
ATOM     10  C   UNL     1       1.057   9.851  19.106  0.00  0.00    +0.000 A 
ATOM     11  C   UNL     1       0.949   9.116  20.283  0.00  0.00    +0.000 A 
ATOM     12  C   UNL     1       1.607   7.901  20.428  0.00  0.00    +0.000 A 
ATOM     13  C   UNL     1       2.405   7.417  19.392  0.00  0.00    +0.000 A 
BRANCH  11  14
ATOM     14  O   UNL     1       0.202   9.565  21.332  0.00  0.00    +0.000 OA
ATOM     15  H   UNL     1       0.556  10.422  21.619  0.00  0.00    +0.000 HD
ENDBRANCH  11  14
ENDBRANCH   4   8
BRANCH   1  16
ATOM     16  C   UNL     1       5.995   3.725  18.624  0.00  0.00    +0.000 C 
BRANCH  16  17
ATOM     17  O   UNL     1       5.334   3.484  19.884  0.00  0.00    +0.000 OA
BRANCH  17  18
ATOM     18  C   UNL     1       4.922   2.211  20.130  0.00  0.00    +0.000 C 
ATOM     19  O   UNL     1       5.400   1.474  20.989  0.00  0.00    +0.000 OA
BRANCH  18  20
ATOM     20  C   UNL     1       3.802   1.801  19.202  0.00  0.00    +0.000 C 
BRANCH  20  21
ATOM     21  C   UNL     1       2.417   2.403  19.577  0.00  0.00    +0.000 C 
BRANCH  21  23
ATOM     22  C   UNL     1       2.617   3.241  17.110  0.00  0.00    +0.000 C 
ATOM     23  C   UNL     1       1.963   3.455  18.489  0.00  0.00    +0.000 C 
ATOM     24  C   UNL     1       0.457   3.509  18.222  0.00  0.00    +0.000 C 
ENDBRANCH  21  23
BRANCH  21  25
ATOM     25  C   UNL     1       2.433   2.928  21.070  0.00  0.00    +0.000 C 
ATOM     26  C   UNL     1       2.272   4.445  21.231  0.00  0.00    +0.000 C 
ATOM     27  C   UNL     1       1.328   2.310  21.951  0.00  0.00    +0.000 C 
ENDBRANCH  21  25
ENDBRANCH  20  21
ENDBRANCH  18  20
ENDBRANCH  17  18
ENDBRANCH  16  17
ENDBRANCH   1  16
BRANCH   1  28
ATOM     28  C   UNL     1       7.060   5.976  18.906  0.00  0.00    +0.000 C 
BRANCH  28  29
ATOM     29  O   UNL     1       7.468   5.358  20.123  0.00  0.00    +0.000 OA
ATOM     30  H   UNL     1       8.252   4.817  19.915  0.00  0.00    +0.000 HD
ENDBRANCH  28  29
ENDBRANCH   1  28
TORSDOF 11
ENDMDL
MODEL 3
REMARK VINA RESULT:      -7.0      3.395      6.374
REMARK  Name = 
REMARK  15 active torsions:
REMARK  status: ('A' for Active; 'I' for Inactive)
REMARK    1  A    between atoms: C_1  and  C_2
REMARK    2  A    between atoms: C_2  and  C_3
REMARK    3  A    between atoms: C_2  and  C_4
REMARK    4  A    between atoms: C_4  and  C_5
REMARK    5  A    between atoms: C_4  and  C_26
REMARK    6  A    between atoms: C_5  and  C_6
REMARK    7  A    between atoms: C_6  and  O_8
REMARK    8  A    between atoms: O_8  and  C_9
REMARK    9  A    between atoms: C_9  and  C_10
REMARK   10  A    between atoms: C_10  and  C_11
REMARK   11  A    between atoms: C_11  and  O_12
REMARK   12  A    between atoms: C_15  and  C_16
REMARK   13  A    between atoms: C_19  and  O_20
REMARK   14  A    between atoms: C_26  and  C_27
REMARK   15  A    between atoms: C_26  and  C_28
REMARK                            x       y       z     vdW  Elec       q    Type
REMARK                         _______ _______ _______ _____ _____    ______ ____
ROOT
ATOM      1  C   UNL     1       5.940   5.264  18.347  0.00  0.00    +0.000 C 
ATOM      2  C   UNL     1       4.580   5.919  18.627  0.00  0.00    +0.000 C 
ATOM      3  C   UNL     1       4.329   6.672  17.374  0.00  0.00    +0.000 C 
ATOM      4  C   UNL     1       3.477   7.687  17.126  0.00  0.00    +0.000 C 
ATOM      5  C   UNL     1       5.227   6.161  16.328  0.00  0.00    +0.000 C 
ATOM      6  O   UNL     1       5.235   6.469  15.151  0.00  0.00    +0.000 OA
ATOM      7  O   UNL     1       6.079   5.267  16.909  0.00  0.00    +0.000 OA
ENDROOT
BRANCH   4   8
ATOM      8  C   UNL     1       2.606   8.243  18.157  0.00  0.00    +0.000 A 
ATOM      9  C   UNL     1       2.414   7.557  19.363  0.00  0.00    +0.000 A 
ATOM     10  C   UNL     1       1.523   8.050  20.320  0.00  0.00    +0.000 A 
ATOM     11  C   UNL     1       0.839   9.236  20.068  0.00  0.00    +0.000 A 
ATOM     12  C   UNL     1       1.040   9.939  18.886  0.00  0.00    +0.000 A 
ATOM     13  C   UNL     1       1.922   9.442  17.926  0.00  0.00    +0.000 A 
BRANCH  11  14
ATOM     14  O   UNL     1      -0.053   9.744  20.966  0.00  0.00    +0.000 OA
ATOM     15  H   UNL     1      -0.641  10.361  20.502  0.00  0.00    +0.000 HD
ENDBRANCH  11  14
ENDBRANCH   4   8
BRANCH   1  16
ATOM     16  C   UNL     1       6.008   3.809  18.853  0.00  0.00    +0.000 C 
BRANCH  16  17
ATOM     17  O   UNL     1       4.994   3.550  19.847  0.00  0.00    +0.000 OA
BRANCH  17  18
ATOM     18  C   UNL     1       4.654   2.249  20.056  0.00  0.00    +0.000 C 
ATOM     19  O   UNL     1       5.364   1.422  20.626  0.00  0.00    +0.000 OA
BRANCH  18  20
ATOM     20  C   UNL     1       3.291   1.933  19.486  0.00  0.00    +0.000 C 
BRANCH  20  21
ATOM     21  C   UNL     1       2.391   3.184  19.267  0.00  0.00    +0.000 C 
BRANCH  21  23
ATOM     22  C   UNL     1       1.570   2.528  21.660  0.00  0.00    +0.000 C 
ATOM     23  C   UNL     1       1.214   3.205  20.322  0.00  0.00    +0.000 C 
ATOM     24  C   UNL     1       0.697   4.596  20.694  0.00  0.00    +0.000 C 
ENDBRANCH  21  23
BRANCH  21  25
ATOM     25  C   UNL     1       1.950   3.284  17.750  0.00  0.00    +0.000 C 
ATOM     26  C   UNL     1       1.283   4.605  17.348  0.00  0.00    +0.000 C 
ATOM     27  C   UNL     1       3.116   3.102  16.757  0.00  0.00    +0.000 C 
ENDBRANCH  21  25
ENDBRANCH  20  21
ENDBRANCH  18  20
ENDBRANCH  17  18
ENDBRANCH  16  17
ENDBRANCH   1  16
BRANCH   1  28
ATOM     28  C   UNL     1       7.106   6.058  18.968  0.00  0.00    +0.000 C 
BRANCH  28  29
ATOM     29  O   UNL     1       7.841   6.790  17.991  0.00  0.00    +0.000 OA
ATOM     30  H   UNL     1       8.080   7.643  18.399  0.00  0.00    +0.000 HD
ENDBRANCH  28  29
ENDBRANCH   1  28
TORSDOF 11
ENDMDL
MODEL 4
REMARK VINA RESULT:      -6.8      3.596      6.855
REMARK  Name = 
REMARK  15 active torsions:
REMARK  status: ('A' for Active; 'I' for Inactive)
REMARK    1  A    between atoms: C_1  and  C_2
REMARK    2  A    between atoms: C_2  and  C_3
REMARK    3  A    between atoms: C_2  and  C_4
REMARK    4  A    between atoms: C_4  and  C_5
REMARK    5  A    between atoms: C_4  and  C_26
REMARK    6  A    between atoms: C_5  and  C_6
REMARK    7  A    between atoms: C_6  and  O_8
REMARK    8  A    between atoms: O_8  and  C_9
REMARK    9  A    between atoms: C_9  and  C_10
REMARK   10  A    between atoms: C_10  and  C_11
REMARK   11  A    between atoms: C_11  and  O_12
REMARK   12  A    between atoms: C_15  and  C_16
REMARK   13  A    between atoms: C_19  and  O_20
REMARK   14  A    between atoms: C_26  and  C_27
REMARK   15  A    between atoms: C_26  and  C_28
REMARK                            x       y       z     vdW  Elec       q    Type
REMARK                         _______ _______ _______ _____ _____    ______ ____
ROOT
ATOM      1  C   UNL     1       3.042   3.457  18.916  0.00  0.00    +0.000 C 
ATOM      2  C   UNL     1       3.004   4.983  19.074  0.00  0.00    +0.000 C 
ATOM      3  C   UNL     1       2.310   5.148  20.374  0.00  0.00    +0.000 C 
ATOM      4  C   UNL     1       1.698   6.228  20.901  0.00  0.00    +0.000 C 
ATOM      5  C   UNL     1       2.334   3.864  21.088  0.00  0.00    +0.000 C 
ATOM      6  O   UNL     1       1.950   3.646  22.222  0.00  0.00    +0.000 OA
ATOM      7  O   UNL     1       2.863   2.928  20.247  0.00  0.00    +0.000 OA
ENDROOT
BRANCH   4   8
ATOM      8  C   UNL     1       1.622   7.504  20.195  0.00  0.00    +0.000 A 
ATOM      9  C   UNL     1       0.962   8.593  20.779  0.00  0.00    +0.000 A 
ATOM     10  C   UNL     1       0.822   9.791  20.074  0.00  0.00    +0.000 A 
ATOM     11  C   UNL     1       1.357   9.896  18.793  0.00  0.00    +0.000 A 
ATOM     12  C   UNL     1       2.035   8.830  18.213  0.00  0.00    +0.000 A 
ATOM     13  C   UNL     1       2.166   7.630  18.913  0.00  0.00    +0.000 A 
BRANCH  11  14
ATOM     14  O   UNL     1       1.228  11.039  18.062  0.00  0.00    +0.000 OA
ATOM     15  H   UNL     1       1.630  10.897  17.190  0.00  0.00    +0.000 HD
ENDBRANCH  11  14
ENDBRANCH   4   8
BRANCH   1  16
ATOM     16  C   UNL     1       4.389   2.956  18.355  0.00  0.00    +0.000 C 
BRANCH  16  17
ATOM     17  O   UNL     1       5.503   3.582  19.025  0.00  0.00    +0.000 OA
BRANCH  17  18
ATOM     18  C   UNL     1       6.480   4.106  18.235  0.00  0.00    +0.000 C 
ATOM     19  O   UNL     1       7.568   4.508  18.643  0.00  0.00    +0.000 OA
BRANCH  18  20
ATOM     20  C   UNL     1       6.060   4.148  16.785  0.00  0.00    +0.000 C 
BRANCH  20  21
ATOM     21  C   UNL     1       6.912   5.109  15.907  0.00  0.00    +0.000 C 
BRANCH  21  23
ATOM     22  C   UNL     1       4.844   6.662  16.279  0.00  0.00    +0.000 C 
ATOM     23  C   UNL     1       6.360   6.586  16.015  0.00  0.00    +0.000 C 
ATOM     24  C   UNL     1       7.007   7.445  17.103  0.00  0.00    +0.000 C 
ENDBRANCH  21  23
BRANCH  21  25
ATOM     25  C   UNL     1       7.045   4.536  14.436  0.00  0.00    +0.000 C 
ATOM     26  C   UNL     1       5.726   4.108  13.780  0.00  0.00    +0.000 C 
ATOM     27  C   UNL     1       7.685   5.529  13.445  0.00  0.00    +0.000 C 
ENDBRANCH  21  25
ENDBRANCH  20  21
ENDBRANCH  18  20
ENDBRANCH  17  18
ENDBRANCH  16  17
ENDBRANCH   1  16
BRANCH   1  28
ATOM     28  C   UNL     1       1.906   2.940  18.011  0.00  0.00    +0.000 C 
BRANCH  28  29
ATOM     29  O   UNL     1       1.250   3.994  17.311  0.00  0.00    +0.000 OA
ATOM     30  H   UNL     1       0.302   3.929  17.528  0.00  0.00    +0.000 HD
ENDBRANCH  28  29
ENDBRANCH   1  28
TORSDOF 11
ENDMDL
MODEL 5
REMARK VINA RESULT:      -6.7      3.651      6.946
REMARK  Name = 
REMARK  15 active torsions:
REMARK  status: ('A' for Active; 'I' for Inactive)
REMARK    1  A    between atoms: C_1  and  C_2
REMARK    2  A    between atoms: C_2  and  C_3
REMARK    3  A    between atoms: C_2  and  C_4
REMARK    4  A    between atoms: C_4  and  C_5
REMARK    5  A    between atoms: C_4  and  C_26
REMARK    6  A    between atoms: C_5  and  C_6
REMARK    7  A    between atoms: C_6  and  O_8
REMARK    8  A    between atoms: O_8  and  C_9
REMARK    9  A    between atoms: C_9  and  C_10
REMARK   10  A    between atoms: C_10  and  C_11
REMARK   11  A    between atoms: C_11  and  O_12
REMARK   12  A    between atoms: C_15  and  C_16
REMARK   13  A    between atoms: C_19  and  O_20
REMARK   14  A    between atoms: C_26  and  C_27
REMARK   15  A    between atoms: C_26  and  C_28
REMARK                            x       y       z     vdW  Elec       q    Type
REMARK                         _______ _______ _______ _____ _____    ______ ____
ROOT
ATOM      1  C   UNL     1       1.848   3.017  19.090  0.00  0.00    +0.000 C 
ATOM      2  C   UNL     1       2.103   4.526  18.975  0.00  0.00    +0.000 C 
ATOM      3  C   UNL     1       2.134   4.950  20.396  0.00  0.00    +0.000 C 
ATOM      4  C   UNL     1       2.001   6.176  20.939  0.00  0.00    +0.000 C 
ATOM      5  C   UNL     1       2.312   3.759  21.239  0.00  0.00    +0.000 C 
ATOM      6  O   UNL     1       2.482   3.731  22.443  0.00  0.00    +0.000 OA
ATOM      7  O   UNL     1       2.246   2.661  20.431  0.00  0.00    +0.000 OA
ENDROOT
BRANCH   4   8
ATOM      8  C   UNL     1       1.780   7.369  20.128  0.00  0.00    +0.000 A 
ATOM      9  C   UNL     1       2.351   7.471  18.853  0.00  0.00    +0.000 A 
ATOM     10  C   UNL     1       2.202   8.642  18.106  0.00  0.00    +0.000 A 
ATOM     11  C   UNL     1       1.470   9.700  18.635  0.00  0.00    +0.000 A 
ATOM     12  C   UNL     1       0.877   9.602  19.889  0.00  0.00    +0.000 A 
ATOM     13  C   UNL     1       1.034   8.437  20.640  0.00  0.00    +0.000 A 
BRANCH  11  14
ATOM     14  O   UNL     1       1.315  10.868  17.949  0.00  0.00    +0.000 OA
ATOM     15  H   UNL     1       0.384  11.138  18.003  0.00  0.00    +0.000 HD
ENDBRANCH  11  14
ENDBRANCH   4   8
BRANCH   1  16
ATOM     16  C   UNL     1       2.686   2.199  18.085  0.00  0.00    +0.000 C 
BRANCH  16  17
ATOM     17  O   UNL     1       3.165   3.027  17.004  0.00  0.00    +0.000 OA
BRANCH  17  18
ATOM     18  C   UNL     1       4.426   3.525  17.122  0.00  0.00    +0.000 C 
ATOM     19  O   UNL     1       5.129   3.419  18.124  0.00  0.00    +0.000 OA
BRANCH  18  20
ATOM     20  C   UNL     1       4.859   4.243  15.865  0.00  0.00    +0.000 C 
BRANCH  20  21
ATOM     21  C   UNL     1       6.381   4.562  15.811  0.00  0.00    +0.000 C 
BRANCH  21  23
ATOM     22  C   UNL     1       5.378   6.869  16.517  0.00  0.00    +0.000 C 
ATOM     23  C   UNL     1       6.655   6.023  16.346  0.00  0.00    +0.000 C 
ATOM     24  C   UNL     1       7.378   6.100  17.693  0.00  0.00    +0.000 C 
ENDBRANCH  21  23
BRANCH  21  25
ATOM     25  C   UNL     1       6.957   4.243  14.371  0.00  0.00    +0.000 C 
ATOM     26  C   UNL     1       5.933   3.718  13.358  0.00  0.00    +0.000 C 
ATOM     27  C   UNL     1       7.613   5.461  13.688  0.00  0.00    +0.000 C 
ENDBRANCH  21  25
ENDBRANCH  20  21
ENDBRANCH  18  20
ENDBRANCH  17  18
ENDBRANCH  16  17
ENDBRANCH   1  16
BRANCH   1  28
ATOM     28  C   UNL     1       0.360   2.664  18.895  0.00  0.00    +0.000 C 
BRANCH  28  29
ATOM     29  O   UNL     1       0.184   1.462  18.149  0.00  0.00    +0.000 OA
ATOM     30  H   UNL     1       1.056   1.229  17.780  0.00  0.00    +0.000 HD
ENDBRANCH  28  29
ENDBRANCH   1  28
TORSDOF 11
ENDMDL
MODEL 6
REMARK VINA RESULT:      -6.7      2.603      8.744
REMARK  Name = 
REMARK  15 active torsions:
REMARK  status: ('A' for Active; 'I' for Inactive)
REMARK    1  A    between atoms: C_1  and  C_2
REMARK    2  A    between atoms: C_2  and  C_3
REMARK    3  A    between atoms: C_2  and  C_4
REMARK    4  A    between atoms: C_4  and  C_5
REMARK    5  A    between atoms: C_4  and  C_26
REMARK    6  A    between atoms: C_5  and  C_6
REMARK    7  A    between atoms: C_6  and  O_8
REMARK    8  A    between atoms: O_8  and  C_9
REMARK    9  A    between atoms: C_9  and  C_10
REMARK   10  A    between atoms: C_10  and  C_11
REMARK   11  A    between atoms: C_11  and  O_12
REMARK   12  A    between atoms: C_15  and  C_16
REMARK   13  A    between atoms: C_19  and  O_20
REMARK   14  A    between atoms: C_26  and  C_27
REMARK   15  A    between atoms: C_26  and  C_28
REMARK                            x       y       z     vdW  Elec       q    Type
REMARK                         _______ _______ _______ _____ _____    ______ ____
ROOT
ATOM      1  C   UNL     1       1.904   4.971  20.369  0.00  0.00    +0.000 C 
ATOM      2  C   UNL     1       2.758   5.246  19.123  0.00  0.00    +0.000 C 
ATOM      3  C   UNL     1       2.389   4.118  18.233  0.00  0.00    +0.000 C 
ATOM      4  C   UNL     1       3.021   3.626  17.149  0.00  0.00    +0.000 C 
ATOM      5  C   UNL     1       1.147   3.511  18.731  0.00  0.00    +0.000 C 
ATOM      6  O   UNL     1       0.496   2.631  18.201  0.00  0.00    +0.000 OA
ATOM      7  O   UNL     1       0.839   4.105  19.920  0.00  0.00    +0.000 OA
ENDROOT
BRANCH   4   8
ATOM      8  C   UNL     1       4.279   4.182  16.658  0.00  0.00    +0.000 A 
ATOM      9  C   UNL     1       4.501   5.564  16.699  0.00  0.00    +0.000 A 
ATOM     10  C   UNL     1       5.672   6.106  16.162  0.00  0.00    +0.000 A 
ATOM     11  C   UNL     1       6.620   5.256  15.599  0.00  0.00    +0.000 A 
ATOM     12  C   UNL     1       6.422   3.881  15.575  0.00  0.00    +0.000 A 
ATOM     13  C   UNL     1       5.248   3.341  16.102  0.00  0.00    +0.000 A 
BRANCH  11  14
ATOM     14  O   UNL     1       7.768   5.742  15.048  0.00  0.00    +0.000 OA
ATOM     15  H   UNL     1       7.577   6.605  14.645  0.00  0.00    +0.000 HD
ENDBRANCH  11  14
ENDBRANCH   4   8
BRANCH   1  16
ATOM     16  C   UNL     1       1.289   6.258  20.957  0.00  0.00    +0.000 C 
BRANCH  16  17
ATOM     17  O   UNL     1       1.659   7.419  20.183  0.00  0.00    +0.000 OA
BRANCH  17  18
ATOM     18  C   UNL     1       1.183   8.620  20.611  0.00  0.00    +0.000 C 
ATOM     19  O   UNL     1       0.915   8.891  21.780  0.00  0.00    +0.000 OA
BRANCH  18  20
ATOM     20  C   UNL     1       1.011   9.589  19.465  0.00  0.00    +0.000 C 
BRANCH  20  21
ATOM     21  C   UNL     1       0.040  10.766  19.772  0.00  0.00    +0.000 C 
BRANCH  21  23
ATOM     22  C   UNL     1      -2.143  11.857  18.838  0.00  0.00    +0.000 C 
ATOM     23  C   UNL     1      -1.330  10.559  19.011  0.00  0.00    +0.000 C 
ATOM     24  C   UNL     1      -1.213   9.961  17.608  0.00  0.00    +0.000 C 
ENDBRANCH  21  23
BRANCH  21  25
ATOM     25  C   UNL     1       0.760  12.153  19.516  0.00  0.00    +0.000 C 
ATOM     26  C   UNL     1       1.340  12.828  20.765  0.00  0.00    +0.000 C 
ATOM     27  C   UNL     1       1.937  12.061  18.523  0.00  0.00    +0.000 C 
ENDBRANCH  21  25
ENDBRANCH  20  21
ENDBRANCH  18  20
ENDBRANCH  17  18
ENDBRANCH  16  17
ENDBRANCH   1  16
BRANCH   1  28
ATOM     28  C   UNL     1       2.704   4.256  21.475  0.00  0.00    +0.000 C 
BRANCH  28  29
ATOM     29  O   UNL     1       1.957   3.212  22.093  0.00  0.00    +0.000 OA
ATOM     30  H   UNL     1       1.032   3.319  21.804  0.00  0.00    +0.000 HD
ENDBRANCH  28  29
ENDBRANCH   1  28
TORSDOF 11
ENDMDL
MODEL 7
REMARK VINA RESULT:      -6.7      3.671      7.167
REMARK  Name = 
REMARK  15 active torsions:
REMARK  status: ('A' for Active; 'I' for Inactive)
REMARK    1  A    between atoms: C_1  and  C_2
REMARK    2  A    between atoms: C_2  and  C_3
REMARK    3  A    between atoms: C_2  and  C_4
REMARK    4  A    between atoms: C_4  and  C_5
REMARK    5  A    between atoms: C_4  and  C_26
REMARK    6  A    between atoms: C_5  and  C_6
REMARK    7  A    between atoms: C_6  and  O_8
REMARK    8  A    between atoms: O_8  and  C_9
REMARK    9  A    between atoms: C_9  and  C_10
REMARK   10  A    between atoms: C_10  and  C_11
REMARK   11  A    between atoms: C_11  and  O_12
REMARK   12  A    between atoms: C_15  and  C_16
REMARK   13  A    between atoms: C_19  and  O_20
REMARK   14  A    between atoms: C_26  and  C_27
REMARK   15  A    between atoms: C_26  and  C_28
REMARK                            x       y       z     vdW  Elec       q    Type
REMARK                         _______ _______ _______ _____ _____    ______ ____
ROOT
ATOM      1  C   UNL     1       3.486   3.253  19.144  0.00  0.00    +0.000 C 
ATOM      2  C   UNL     1       3.278   4.759  19.356  0.00  0.00    +0.000 C 
ATOM      3  C   UNL     1       2.386   4.791  20.540  0.00  0.00    +0.000 C 
ATOM      4  C   UNL     1       1.603   5.781  21.011  0.00  0.00    +0.000 C 
ATOM      5  C   UNL     1       2.429   3.477  21.198  0.00  0.00    +0.000 C 
ATOM      6  O   UNL     1       1.904   3.165  22.250  0.00  0.00    +0.000 OA
ATOM      7  O   UNL     1       3.163   2.639  20.411  0.00  0.00    +0.000 OA
ENDROOT
BRANCH   4   8
ATOM      8  C   UNL     1       1.509   7.081  20.353  0.00  0.00    +0.000 A 
ATOM      9  C   UNL     1       2.014   7.254  19.058  0.00  0.00    +0.000 A 
ATOM     10  C   UNL     1       1.993   8.515  18.456  0.00  0.00    +0.000 A 
ATOM     11  C   UNL     1       1.452   9.593  19.150  0.00  0.00    +0.000 A 
ATOM     12  C   UNL     1       0.924   9.429  20.425  0.00  0.00    +0.000 A 
ATOM     13  C   UNL     1       0.955   8.173  21.031  0.00  0.00    +0.000 A 
BRANCH  11  14
ATOM     14  O   UNL     1       1.427  10.843  18.608  0.00  0.00    +0.000 OA
ATOM     15  H   UNL     1       2.340  11.159  18.515  0.00  0.00    +0.000 HD
ENDBRANCH  11  14
ENDBRANCH   4   8
BRANCH   1  16
ATOM     16  C   UNL     1       4.943   2.905  18.775  0.00  0.00    +0.000 C 
BRANCH  16  17
ATOM     17  O   UNL     1       5.831   4.010  19.044  0.00  0.00    +0.000 OA
BRANCH  17  18
ATOM     18  C   UNL     1       6.791   4.269  18.113  0.00  0.00    +0.000 C 
ATOM     19  O   UNL     1       7.985   4.419  18.363  0.00  0.00    +0.000 OA
BRANCH  18  20
ATOM     20  C   UNL     1       6.205   4.362  16.724  0.00  0.00    +0.000 C 
BRANCH  20  21
ATOM     21  C   UNL     1       6.845   5.473  15.841  0.00  0.00    +0.000 C 
BRANCH  21  23
ATOM     22  C   UNL     1       5.044   6.923  17.059  0.00  0.00    +0.000 C 
ATOM     23  C   UNL     1       6.420   6.903  16.365  0.00  0.00    +0.000 C 
ATOM     24  C   UNL     1       7.388   7.547  17.360  0.00  0.00    +0.000 C 
ENDBRANCH  21  23
BRANCH  21  25
ATOM     25  C   UNL     1       6.554   5.193  14.310  0.00  0.00    +0.000 C 
ATOM     26  C   UNL     1       7.791   5.175  13.403  0.00  0.00    +0.000 C 
ATOM     27  C   UNL     1       5.847   3.847  14.055  0.00  0.00    +0.000 C 
ENDBRANCH  21  25
ENDBRANCH  20  21
ENDBRANCH  18  20
ENDBRANCH  17  18
ENDBRANCH  16  17
ENDBRANCH   1  16
BRANCH   1  28
ATOM     28  C   UNL     1       2.552   2.686  18.057  0.00  0.00    +0.000 C 
BRANCH  28  29
ATOM     29  O   UNL     1       1.780   1.585  18.529  0.00  0.00    +0.000 OA
ATOM     30  H   UNL     1       1.938   0.846  17.914  0.00  0.00    +0.000 HD
ENDBRANCH  28  29
ENDBRANCH   1  28
TORSDOF 11
ENDMDL
MODEL 8
REMARK VINA RESULT:      -6.7      1.414      2.462
REMARK  Name = 
REMARK  15 active torsions:
REMARK  status: ('A' for Active; 'I' for Inactive)
REMARK    1  A    between atoms: C_1  and  C_2
REMARK    2  A    between atoms: C_2  and  C_3
REMARK    3  A    between atoms: C_2  and  C_4
REMARK    4  A    between atoms: C_4  and  C_5
REMARK    5  A    between atoms: C_4  and  C_26
REMARK    6  A    between atoms: C_5  and  C_6
REMARK    7  A    between atoms: C_6  and  O_8
REMARK    8  A    between atoms: O_8  and  C_9
REMARK    9  A    between atoms: C_9  and  C_10
REMARK   10  A    between atoms: C_10  and  C_11
REMARK   11  A    between atoms: C_11  and  O_12
REMARK   12  A    between atoms: C_15  and  C_16
REMARK   13  A    between atoms: C_19  and  O_20
REMARK   14  A    between atoms: C_26  and  C_27
REMARK   15  A    between atoms: C_26  and  C_28
REMARK                            x       y       z     vdW  Elec       q    Type
REMARK                         _______ _______ _______ _____ _____    ______ ____
ROOT
ATOM      1  C   UNL     1       0.525   9.253  20.964  0.00  0.00    +0.000 C 
ATOM      2  C   UNL     1      -0.217   9.803  19.739  0.00  0.00    +0.000 C 
ATOM      3  C   UNL     1      -0.346  11.244  20.069  0.00  0.00    +0.000 C 
ATOM      4  C   UNL     1      -1.166  12.182  19.556  0.00  0.00    +0.000 C 
ATOM      5  C   UNL     1       0.594  11.565  21.153  0.00  0.00    +0.000 C 
ATOM      6  O   UNL     1       0.836  12.664  21.613  0.00  0.00    +0.000 OA
ATOM      7  O   UNL     1       1.158  10.397  21.576  0.00  0.00    +0.000 OA
ENDROOT
BRANCH   4   8
ATOM      8  C   UNL     1      -2.139  11.881  18.510  0.00  0.00    +0.000 A 
ATOM      9  C   UNL     1      -3.508  11.861  18.806  0.00  0.00    +0.000 A 
ATOM     10  C   UNL     1      -4.436  11.500  17.825  0.00  0.00    +0.000 A 
ATOM     11  C   UNL     1      -3.987  11.174  16.549  0.00  0.00    +0.000 A 
ATOM     12  C   UNL     1      -2.633  11.214  16.237  0.00  0.00    +0.000 A 
ATOM     13  C   UNL     1      -1.705  11.564  17.218  0.00  0.00    +0.000 A 
BRANCH  11  14
ATOM     14  O   UNL     1      -4.854  10.798  15.567  0.00  0.00    +0.000 OA
ATOM     15  H   UNL     1      -5.761  10.901  15.899  0.00  0.00    +0.000 HD
ENDBRANCH  11  14
ENDBRANCH   4   8
BRANCH   1  16
ATOM     16  C   UNL     1       1.609   8.224  20.584  0.00  0.00    +0.000 C 
BRANCH  16  17
ATOM     17  O   UNL     1       1.338   6.933  21.171  0.00  0.00    +0.000 OA
BRANCH  17  18
ATOM     18  C   UNL     1       1.923   5.854  20.581  0.00  0.00    +0.000 C 
ATOM     19  O   UNL     1       2.007   4.739  21.091  0.00  0.00    +0.000 OA
BRANCH  18  20
ATOM     20  C   UNL     1       2.472   6.197  19.216  0.00  0.00    +0.000 C 
BRANCH  20  21
ATOM     21  C   UNL     1       3.578   5.223  18.717  0.00  0.00    +0.000 C 
BRANCH  21  23
ATOM     22  C   UNL     1       6.177   5.485  18.654  0.00  0.00    +0.000 C 
ATOM     23  C   UNL     1       4.820   6.035  18.173  0.00  0.00    +0.000 C 
ATOM     24  C   UNL     1       4.929   6.116  16.649  0.00  0.00    +0.000 C 
ENDBRANCH  21  23
BRANCH  21  25
ATOM     25  C   UNL     1       2.964   4.163  17.714  0.00  0.00    +0.000 C 
ATOM     26  C   UNL     1       3.250   2.695  18.057  0.00  0.00    +0.000 C 
ATOM     27  C   UNL     1       1.430   4.255  17.584  0.00  0.00    +0.000 C 
ENDBRANCH  21  25
ENDBRANCH  20  21
ENDBRANCH  18  20
ENDBRANCH  17  18
ENDBRANCH  16  17
ENDBRANCH   1  16
BRANCH   1  28
ATOM     28  C   UNL     1      -0.436   8.605  21.981  0.00  0.00    +0.000 C 
BRANCH  28  29
ATOM     29  O   UNL     1      -0.204   9.062  23.311  0.00  0.00    +0.000 OA
ATOM     30  H   UNL     1       0.721   9.368  23.346  0.00  0.00    +0.000 HD
ENDBRANCH  28  29
ENDBRANCH   1  28
TORSDOF 11
ENDMDL
MODEL 9
REMARK VINA RESULT:      -6.6      1.325      2.228
REMARK  Name = 
REMARK  15 active torsions:
REMARK  status: ('A' for Active; 'I' for Inactive)
REMARK    1  A    between atoms: C_1  and  C_2
REMARK    2  A    between atoms: C_2  and  C_3
REMARK    3  A    between atoms: C_2  and  C_4
REMARK    4  A    between atoms: C_4  and  C_5
REMARK    5  A    between atoms: C_4  and  C_26
REMARK    6  A    between atoms: C_5  and  C_6
REMARK    7  A    between atoms: C_6  and  O_8
REMARK    8  A    between atoms: O_8  and  C_9
REMARK    9  A    between atoms: C_9  and  C_10
REMARK   10  A    between atoms: C_10  and  C_11
REMARK   11  A    between atoms: C_11  and  O_12
REMARK   12  A    between atoms: C_15  and  C_16
REMARK   13  A    between atoms: C_19  and  O_20
REMARK   14  A    between atoms: C_26  and  C_27
REMARK   15  A    between atoms: C_26  and  C_28
REMARK                            x       y       z     vdW  Elec       q    Type
REMARK                         _______ _______ _______ _____ _____    ______ ____
ROOT
ATOM      1  C   UNL     1       0.546   9.269  21.480  0.00  0.00    +0.000 C 
ATOM      2  C   UNL     1      -0.283   9.642  20.243  0.00  0.00    +0.000 C 
ATOM      3  C   UNL     1       0.003  11.090  20.096  0.00  0.00    +0.000 C 
ATOM      4  C   UNL     1      -0.662  12.040  19.409  0.00  0.00    +0.000 C 
ATOM      5  C   UNL     1       1.196  11.418  20.888  0.00  0.00    +0.000 C 
ATOM      6  O   UNL     1       1.781  12.484  20.928  0.00  0.00    +0.000 OA
ATOM      7  O   UNL     1       1.545  10.306  21.598  0.00  0.00    +0.000 OA
ENDROOT
BRANCH   4   8
ATOM      8  C   UNL     1      -1.874  11.750  18.649  0.00  0.00    +0.000 A 
ATOM      9  C   UNL     1      -1.785  11.280  17.332  0.00  0.00    +0.000 A 
ATOM     10  C   UNL     1      -2.943  11.074  16.578  0.00  0.00    +0.000 A 
ATOM     11  C   UNL     1      -4.185  11.326  17.153  0.00  0.00    +0.000 A 
ATOM     12  C   UNL     1      -4.287  11.769  18.466  0.00  0.00    +0.000 A 
ATOM     13  C   UNL     1      -3.131  11.985  19.216  0.00  0.00    +0.000 A 
BRANCH  11  14
ATOM     14  O   UNL     1      -5.339  11.156  16.448  0.00  0.00    +0.000 OA
ATOM     15  H   UNL     1      -5.657  10.249  16.588  0.00  0.00    +0.000 HD
ENDBRANCH  11  14
ENDBRANCH   4   8
BRANCH   1  16
ATOM     16  C   UNL     1       1.254   7.907  21.326  0.00  0.00    +0.000 C 
BRANCH  16  17
ATOM     17  O   UNL     1       1.885   7.785  20.034  0.00  0.00    +0.000 OA
BRANCH  17  18
ATOM     18  C   UNL     1       2.238   6.531  19.638  0.00  0.00    +0.000 C 
ATOM     19  O   UNL     1       1.520   5.538  19.735  0.00  0.00    +0.000 OA
BRANCH  18  20
ATOM     20  C   UNL     1       3.637   6.502  19.071  0.00  0.00    +0.000 C 
BRANCH  20  21
ATOM     21  C   UNL     1       3.725   5.913  17.633  0.00  0.00    +0.000 C 
BRANCH  21  23
ATOM     22  C   UNL     1       4.506   3.861  19.050  0.00  0.00    +0.000 C 
ATOM     23  C   UNL     1       3.964   4.352  17.693  0.00  0.00    +0.000 C 
ATOM     24  C   UNL     1       2.730   3.492  17.411  0.00  0.00    +0.000 C 
ENDBRANCH  21  23
BRANCH  21  25
ATOM     25  C   UNL     1       4.770   6.730  16.768  0.00  0.00    +0.000 C 
ATOM     26  C   UNL     1       6.070   7.101  17.491  0.00  0.00    +0.000 C 
ATOM     27  C   UNL     1       5.216   5.995  15.487  0.00  0.00    +0.000 C 
ENDBRANCH  21  25
ENDBRANCH  20  21
ENDBRANCH  18  20
ENDBRANCH  17  18
ENDBRANCH  16  17
ENDBRANCH   1  16
BRANCH   1  28
ATOM     28  C   UNL     1      -0.306   9.242  22.763  0.00  0.00    +0.000 C 
BRANCH  28  29
ATOM     29  O   UNL     1       0.423   9.683  23.905  0.00  0.00    +0.000 OA
ATOM     30  H   UNL     1      -0.077  10.427  24.288  0.00  0.00    +0.000 HD
ENDBRANCH  28  29
ENDBRANCH   1  28
TORSDOF 11
ENDMDL
