MODEL 1
REMARK VINA RESULT:      -7.4      0.000      0.000
REMARK  Name = 
REMARK  5 active torsions:
REMARK  status: ('A' for Active; 'I' for Inactive)
REMARK    1  A    between atoms: C_1  and  C_2
REMARK    2  A    between atoms: C_2  and  C_3
REMARK    3  A    between atoms: N_13  and  N_14
REMARK    4  A    between atoms: N_17  and  C_18
REMARK    5  A    between atoms: C_21  and  C_22
REMARK                            x       y       z     vdW  Elec       q    Type
REMARK                         _______ _______ _______ _____ _____    ______ ____
ROOT
ATOM      1  C   UNL     1       2.566   6.830  18.523  0.00  0.00    +0.000 A 
ATOM      2  N   UNL     1       2.748   5.859  17.680  0.00  0.00    +0.000 NA
ATOM      3  C   UNL     1       2.588   4.535  18.103  0.00  0.00    +0.000 A 
ATOM      4  C   UNL     1       2.775   3.515  17.168  0.00  0.00    +0.000 A 
ATOM      5  C   UNL     1       2.635   2.176  17.540  0.00  0.00    +0.000 A 
ATOM      6  C   UNL     1       2.308   1.850  18.854  0.00  0.00    +0.000 A 
ATOM      7  C   UNL     1       2.123   2.867  19.801  0.00  0.00    +0.000 A 
ATOM      8  C   UNL     1       2.258   4.205  19.415  0.00  0.00    +0.000 A 
ATOM      9  C   UNL     1       2.088   5.318  20.375  0.00  0.00    +0.000 A 
ATOM     10  O   UNL     1       1.919   5.100  21.576  0.00  0.00    +0.000 OA
ATOM     11  N   UNL     1       2.198   6.606  19.845  0.00  0.00    +0.000 N 
ENDROOT
BRANCH  11  12
ATOM     12  N   UNL     1       2.195   7.658  20.832  0.00  0.00    +0.000 N 
ATOM     13  C   UNL     1       0.976   8.187  21.245  0.00  0.00    +0.000 C 
ATOM     14  O   UNL     1      -0.095   7.745  20.849  0.00  0.00    +0.000 OA
ATOM     15  N   UNL     1       1.162   9.335  22.010  0.00  0.00    +0.000 N 
ATOM     16  H   UNL     1       2.806   7.412  21.612  0.00  0.00    +0.000 HD
ATOM     17  H   UNL     1       2.117   9.550  22.272  0.00  0.00    +0.000 HD
BRANCH  15  18
ATOM     18  C   UNL     1       0.217  10.378  22.177  0.00  0.00    +0.000 A 
ATOM     19  C   UNL     1      -0.742  10.380  23.192  0.00  0.00    +0.000 A 
ATOM     20  C   UNL     1      -1.789  11.303  23.185  0.00  0.00    +0.000 A 
ATOM     21  C   UNL     1      -1.896  12.258  22.175  0.00  0.00    +0.000 A 
ATOM     22  C   UNL     1      -3.094  13.161  22.113  0.00  0.00    +0.000 C 
ATOM     23  C   UNL     1      -0.880  12.335  21.216  0.00  0.00    +0.000 A 
ATOM     24  C   UNL     1       0.170  11.402  21.219  0.00  0.00    +0.000 A 
ENDBRANCH  15  18
ENDBRANCH  11  12
BRANCH   1  26
ATOM     25  C   UNL     1       1.378   8.925  17.678  0.00  0.00    +0.000 C 
ATOM     26  C   UNL     1       2.707   8.250  17.992  0.00  0.00    +0.000 C 
ENDBRANCH   1  26
TORSDOF 3
ENDMDL
MODEL 2
REMARK VINA RESULT:      -7.3      0.388      1.045
REMARK  Name = 
REMARK  5 active torsions:
REMARK  status: ('A' for Active; 'I' for Inactive)
REMARK    1  A    between atoms: C_1  and  C_2
REMARK    2  A    between atoms: C_2  and  C_3
REMARK    3  A    between atoms: N_13  and  N_14
REMARK    4  A    between atoms: N_17  and  C_18
REMARK    5  A    between atoms: C_21  and  C_22
REMARK                            x       y       z     vdW  Elec       q    Type
REMARK                         _______ _______ _______ _____ _____    ______ ____
ROOT
ATOM      1  C   UNL     1       2.613   6.816  18.514  0.00  0.00    +0.000 A 
ATOM      2  N   UNL     1       2.818   5.846  17.674  0.00  0.00    +0.000 NA
ATOM      3  C   UNL     1       2.660   4.521  18.094  0.00  0.00    +0.000 A 
ATOM      4  C   UNL     1       2.872   3.502  17.162  0.00  0.00    +0.000 A 
ATOM      5  C   UNL     1       2.734   2.163  17.530  0.00  0.00    +0.000 A 
ATOM      6  C   UNL     1       2.384   1.834  18.837  0.00  0.00    +0.000 A 
ATOM      7  C   UNL     1       2.173   2.848  19.781  0.00  0.00    +0.000 A 
ATOM      8  C   UNL     1       2.306   4.188  19.399  0.00  0.00    +0.000 A 
ATOM      9  C   UNL     1       2.109   5.298  20.355  0.00  0.00    +0.000 A 
ATOM     10  O   UNL     1       1.918   5.079  21.553  0.00  0.00    +0.000 OA
ATOM     11  N   UNL     1       2.220   6.588  19.829  0.00  0.00    +0.000 N 
ENDROOT
BRANCH  11  12
ATOM     12  N   UNL     1       2.191   7.639  20.816  0.00  0.00    +0.000 N 
ATOM     13  C   UNL     1       0.963   8.193  21.169  0.00  0.00    +0.000 C 
ATOM     14  O   UNL     1      -0.096   7.773  20.720  0.00  0.00    +0.000 OA
ATOM     15  N   UNL     1       1.135   9.337  21.944  0.00  0.00    +0.000 N 
ATOM     16  H   UNL     1       2.757   7.380  21.625  0.00  0.00    +0.000 HD
ATOM     17  H   UNL     1       2.080   9.532  22.254  0.00  0.00    +0.000 HD
BRANCH  15  18
ATOM     18  C   UNL     1       0.204  10.399  22.065  0.00  0.00    +0.000 A 
ATOM     19  C   UNL     1       0.319  11.594  21.354  0.00  0.00    +0.000 A 
ATOM     20  C   UNL     1      -0.483  12.693  21.667  0.00  0.00    +0.000 A 
ATOM     21  C   UNL     1      -1.431  12.621  22.686  0.00  0.00    +0.000 A 
ATOM     22  C   UNL     1      -2.197  13.846  23.094  0.00  0.00    +0.000 C 
ATOM     23  C   UNL     1      -1.631  11.394  23.329  0.00  0.00    +0.000 A 
ATOM     24  C   UNL     1      -0.819  10.291  23.019  0.00  0.00    +0.000 A 
ENDBRANCH  15  18
ENDBRANCH  11  12
BRANCH   1  26
ATOM     25  C   UNL     1       1.427   8.901  17.643  0.00  0.00    +0.000 C 
ATOM     26  C   UNL     1       2.754   8.237  17.987  0.00  0.00    +0.000 C 
ENDBRANCH   1  26
TORSDOF 3
ENDMDL
MODEL 3
REMARK VINA RESULT:      -7.3      5.350      7.369
REMARK  Name = 
REMARK  5 active torsions:
REMARK  status: ('A' for Active; 'I' for Inactive)
REMARK    1  A    between atoms: C_1  and  C_2
REMARK    2  A    between atoms: C_2  and  C_3
REMARK    3  A    between atoms: N_13  and  N_14
REMARK    4  A    between atoms: N_17  and  C_18
REMARK    5  A    between atoms: C_21  and  C_22
REMARK                            x       y       z     vdW  Elec       q    Type
REMARK                         _______ _______ _______ _____ _____    ______ ____
ROOT
ATOM      1  C   UNL     1       5.629   4.564  16.320  0.00  0.00    +0.000 A 
ATOM      2  N   UNL     1       4.927   3.553  16.738  0.00  0.00    +0.000 NA
ATOM      3  C   UNL     1       3.772   3.777  17.494  0.00  0.00    +0.000 A 
ATOM      4  C   UNL     1       3.031   2.670  17.915  0.00  0.00    +0.000 A 
ATOM      5  C   UNL     1       1.874   2.838  18.677  0.00  0.00    +0.000 A 
ATOM      6  C   UNL     1       1.451   4.118  19.027  0.00  0.00    +0.000 A 
ATOM      7  C   UNL     1       2.190   5.235  18.615  0.00  0.00    +0.000 A 
ATOM      8  C   UNL     1       3.343   5.056  17.843  0.00  0.00    +0.000 A 
ATOM      9  C   UNL     1       4.170   6.197  17.392  0.00  0.00    +0.000 A 
ATOM     10  O   UNL     1       3.925   7.346  17.766  0.00  0.00    +0.000 OA
ATOM     11  N   UNL     1       5.264   5.880  16.584  0.00  0.00    +0.000 N 
ENDROOT
BRANCH  11  12
ATOM     12  N   UNL     1       6.140   6.991  16.303  0.00  0.00    +0.000 N 
ATOM     13  C   UNL     1       7.044   7.397  17.281  0.00  0.00    +0.000 C 
ATOM     14  O   UNL     1       7.166   6.802  18.344  0.00  0.00    +0.000 OA
ATOM     15  N   UNL     1       7.636   8.611  16.942  0.00  0.00    +0.000 N 
ATOM     16  H   UNL     1       6.573   6.876  15.386  0.00  0.00    +0.000 HD
ATOM     17  H   UNL     1       7.447   8.957  16.009  0.00  0.00    +0.000 HD
BRANCH  15  18
ATOM     18  C   UNL     1       8.191   9.541  17.855  0.00  0.00    +0.000 A 
ATOM     19  C   UNL     1       8.214  10.917  17.618  0.00  0.00    +0.000 A 
ATOM     20  C   UNL     1       8.965  11.770  18.429  0.00  0.00    +0.000 A 
ATOM     21  C   UNL     1       9.698  11.274  19.506  0.00  0.00    +0.000 A 
ATOM     22  C   UNL     1      10.599  12.184  20.291  0.00  0.00    +0.000 C 
ATOM     23  C   UNL     1       9.592   9.914  19.818  0.00  0.00    +0.000 A 
ATOM     24  C   UNL     1       8.842   9.055  18.999  0.00  0.00    +0.000 A 
ENDBRANCH  15  18
ENDBRANCH  11  12
BRANCH   1  26
ATOM     25  C   UNL     1       6.525   4.036  13.990  0.00  0.00    +0.000 C 
ATOM     26  C   UNL     1       6.848   4.258  15.461  0.00  0.00    +0.000 C 
ENDBRANCH   1  26
TORSDOF 3
ENDMDL
MODEL 4
REMARK VINA RESULT:      -7.2      4.220      8.617
REMARK  Name = 
REMARK  5 active torsions:
REMARK  status: ('A' for Active; 'I' for Inactive)
REMARK    1  A    between atoms: C_1  and  C_2
REMARK    2  A    between atoms: C_2  and  C_3
REMARK    3  A    between atoms: N_13  and  N_14
REMARK    4  A    between atoms: N_17  and  C_18
REMARK    5  A    between atoms: C_21  and  C_22
REMARK                            x       y       z     vdW  Elec       q    Type
REMARK                         _______ _______ _______ _____ _____    ______ ____
ROOT
ATOM      1  C   UNL     1      -3.681  11.520  16.832  0.00  0.00    +0.000 A 
ATOM      2  N   UNL     1      -4.973  11.508  16.967  0.00  0.00    +0.000 NA
ATOM      3  C   UNL     1      -5.542  11.809  18.209  0.00  0.00    +0.000 A 
ATOM      4  C   UNL     1      -6.934  11.804  18.318  0.00  0.00    +0.000 A 
ATOM      5  C   UNL     1      -7.554  12.089  19.536  0.00  0.00    +0.000 A 
ATOM      6  C   UNL     1      -6.780  12.380  20.657  0.00  0.00    +0.000 A 
ATOM      7  C   UNL     1      -5.382  12.383  20.560  0.00  0.00    +0.000 A 
ATOM      8  C   UNL     1      -4.772  12.104  19.333  0.00  0.00    +0.000 A 
ATOM      9  C   UNL     1      -3.302  12.079  19.175  0.00  0.00    +0.000 A 
ATOM     10  O   UNL     1      -2.557  12.207  20.149  0.00  0.00    +0.000 OA
ATOM     11  N   UNL     1      -2.828  11.839  17.884  0.00  0.00    +0.000 N 
ENDROOT
BRANCH  11  12
ATOM     12  N   UNL     1      -1.399  11.655  17.798  0.00  0.00    +0.000 N 
ATOM     13  C   UNL     1      -0.887  10.360  17.814  0.00  0.00    +0.000 C 
ATOM     14  O   UNL     1      -1.611   9.372  17.831  0.00  0.00    +0.000 OA
ATOM     15  N   UNL     1       0.497  10.371  17.961  0.00  0.00    +0.000 N 
ATOM     16  H   UNL     1      -1.015  12.224  17.043  0.00  0.00    +0.000 HD
ATOM     17  H   UNL     1       0.948  11.276  17.900  0.00  0.00    +0.000 HD
BRANCH  15  18
ATOM     18  C   UNL     1       1.278   9.317  18.495  0.00  0.00    +0.000 A 
ATOM     19  C   UNL     1       2.115   8.519  17.713  0.00  0.00    +0.000 A 
ATOM     20  C   UNL     1       2.690   7.358  18.235  0.00  0.00    +0.000 A 
ATOM     21  C   UNL     1       2.456   6.973  19.554  0.00  0.00    +0.000 A 
ATOM     22  C   UNL     1       2.977   5.660  20.062  0.00  0.00    +0.000 C 
ATOM     23  C   UNL     1       1.709   7.824  20.377  0.00  0.00    +0.000 A 
ATOM     24  C   UNL     1       1.127   8.988  19.851  0.00  0.00    +0.000 A 
ENDBRANCH  15  18
ENDBRANCH  11  12
BRANCH   1  26
ATOM     25  C   UNL     1      -3.401   9.820  14.950  0.00  0.00    +0.000 C 
ATOM     26  C   UNL     1      -3.122  11.233  15.446  0.00  0.00    +0.000 C 
ENDBRANCH   1  26
TORSDOF 3
ENDMDL
MODEL 5
REMARK VINA RESULT:      -7.1      2.686      4.136
REMARK  Name = 
REMARK  5 active torsions:
REMARK  status: ('A' for Active; 'I' for Inactive)
REMARK    1  A    between atoms: C_1  and  C_2
REMARK    2  A    between atoms: C_2  and  C_3
REMARK    3  A    between atoms: N_13  and  N_14
REMARK    4  A    between atoms: N_17  and  C_18
REMARK    5  A    between atoms: C_21  and  C_22
REMARK                            x       y       z     vdW  Elec       q    Type
REMARK                         _______ _______ _______ _____ _____    ______ ____
ROOT
ATOM      1  C   UNL     1       3.879   3.764  18.363  0.00  0.00    +0.000 A 
ATOM      2  N   UNL     1       4.264   3.179  17.269  0.00  0.00    +0.000 NA
ATOM      3  C   UNL     1       5.099   3.860  16.377  0.00  0.00    +0.000 A 
ATOM      4  C   UNL     1       5.509   3.197  15.218  0.00  0.00    +0.000 A 
ATOM      5  C   UNL     1       6.336   3.833  14.290  0.00  0.00    +0.000 A 
ATOM      6  C   UNL     1       6.757   5.141  14.517  0.00  0.00    +0.000 A 
ATOM      7  C   UNL     1       6.348   5.817  15.675  0.00  0.00    +0.000 A 
ATOM      8  C   UNL     1       5.526   5.167  16.602  0.00  0.00    +0.000 A 
ATOM      9  C   UNL     1       5.051   5.835  17.833  0.00  0.00    +0.000 A 
ATOM     10  O   UNL     1       5.284   7.028  18.038  0.00  0.00    +0.000 OA
ATOM     11  N   UNL     1       4.280   5.053  18.696  0.00  0.00    +0.000 N 
ENDROOT
BRANCH  11  12
ATOM     12  N   UNL     1       3.697   5.780  19.798  0.00  0.00    +0.000 N 
ATOM     13  C   UNL     1       2.457   6.387  19.619  0.00  0.00    +0.000 C 
ATOM     14  O   UNL     1       1.816   6.269  18.582  0.00  0.00    +0.000 OA
ATOM     15  N   UNL     1       2.155   7.231  20.684  0.00  0.00    +0.000 N 
ATOM     16  H   UNL     1       3.748   5.225  20.653  0.00  0.00    +0.000 HD
ATOM     17  H   UNL     1       2.781   7.191  21.480  0.00  0.00    +0.000 HD
BRANCH  15  18
ATOM     18  C   UNL     1       1.276   8.341  20.634  0.00  0.00    +0.000 A 
ATOM     19  C   UNL     1       1.254   9.245  19.570  0.00  0.00    +0.000 A 
ATOM     20  C   UNL     1       0.539  10.441  19.662  0.00  0.00    +0.000 A 
ATOM     21  C   UNL     1      -0.185  10.756  20.811  0.00  0.00    +0.000 A 
ATOM     22  C   UNL     1      -0.844  12.099  20.943  0.00  0.00    +0.000 C 
ATOM     23  C   UNL     1      -0.259   9.808  21.837  0.00  0.00    +0.000 A 
ATOM     24  C   UNL     1       0.464   8.608  21.747  0.00  0.00    +0.000 A 
ENDBRANCH  15  18
ENDBRANCH  11  12
BRANCH   1  26
ATOM     25  C   UNL     1       1.613   2.668  18.786  0.00  0.00    +0.000 C 
ATOM     26  C   UNL     1       3.011   2.955  19.318  0.00  0.00    +0.000 C 
ENDBRANCH   1  26
TORSDOF 3
ENDMDL
MODEL 6
REMARK VINA RESULT:      -7.0      2.776      4.070
REMARK  Name = 
REMARK  5 active torsions:
REMARK  status: ('A' for Active; 'I' for Inactive)
REMARK    1  A    between atoms: C_1  and  C_2
REMARK    2  A    between atoms: C_2  and  C_3
REMARK    3  A    between atoms: N_13  and  N_14
REMARK    4  A    between atoms: N_17  and  C_18
REMARK    5  A    between atoms: C_21  and  C_22
REMARK                            x       y       z     vdW  Elec       q    Type
REMARK                         _______ _______ _______ _____ _____    ______ ____
ROOT
ATOM      1  C   UNL     1       3.827   3.777  18.234  0.00  0.00    +0.000 A 
ATOM      2  N   UNL     1       4.243   3.225  17.134  0.00  0.00    +0.000 NA
ATOM      3  C   UNL     1       5.152   3.906  16.318  0.00  0.00    +0.000 A 
ATOM      4  C   UNL     1       5.593   3.278  15.150  0.00  0.00    +0.000 A 
ATOM      5  C   UNL     1       6.494   3.917  14.296  0.00  0.00    +0.000 A 
ATOM      6  C   UNL     1       6.958   5.194  14.605  0.00  0.00    +0.000 A 
ATOM      7  C   UNL     1       6.519   5.834  15.772  0.00  0.00    +0.000 A 
ATOM      8  C   UNL     1       5.622   5.181  16.624  0.00  0.00    +0.000 A 
ATOM      9  C   UNL     1       5.114   5.814  17.860  0.00  0.00    +0.000 A 
ATOM     10  O   UNL     1       5.386   6.985  18.133  0.00  0.00    +0.000 OA
ATOM     11  N   UNL     1       4.266   5.031  18.647  0.00  0.00    +0.000 N 
ENDROOT
BRANCH  11  12
ATOM     12  N   UNL     1       3.658   5.733  19.750  0.00  0.00    +0.000 N 
ATOM     13  C   UNL     1       2.493   6.461  19.523  0.00  0.00    +0.000 C 
ATOM     14  O   UNL     1       1.932   6.470  18.434  0.00  0.00    +0.000 OA
ATOM     15  N   UNL     1       2.177   7.257  20.620  0.00  0.00    +0.000 N 
ATOM     16  H   UNL     1       3.591   5.121  20.564  0.00  0.00    +0.000 HD
ATOM     17  H   UNL     1       2.729   7.108  21.456  0.00  0.00    +0.000 HD
BRANCH  15  18
ATOM     18  C   UNL     1       1.403   8.443  20.584  0.00  0.00    +0.000 A 
ATOM     19  C   UNL     1       0.529   8.811  21.609  0.00  0.00    +0.000 A 
ATOM     20  C   UNL     1      -0.375   9.861  21.435  0.00  0.00    +0.000 A 
ATOM     21  C   UNL     1      -0.418  10.579  20.241  0.00  0.00    +0.000 A 
ATOM     22  C   UNL     1      -1.478  11.620  20.023  0.00  0.00    +0.000 C 
ATOM     23  C   UNL     1       0.528  10.290  19.251  0.00  0.00    +0.000 A 
ATOM     24  C   UNL     1       1.433   9.230  19.423  0.00  0.00    +0.000 A 
ENDBRANCH  15  18
ENDBRANCH  11  12
BRANCH   1  26
ATOM     25  C   UNL     1       1.463   2.867  18.546  0.00  0.00    +0.000 C 
ATOM     26  C   UNL     1       2.877   2.967  19.104  0.00  0.00    +0.000 C 
ENDBRANCH   1  26
TORSDOF 3
ENDMDL
MODEL 7
REMARK VINA RESULT:      -7.0      5.228      7.271
REMARK  Name = 
REMARK  5 active torsions:
REMARK  status: ('A' for Active; 'I' for Inactive)
REMARK    1  A    between atoms: C_1  and  C_2
REMARK    2  A    between atoms: C_2  and  C_3
REMARK    3  A    between atoms: N_13  and  N_14
REMARK    4  A    between atoms: N_17  and  C_18
REMARK    5  A    between atoms: C_21  and  C_22
REMARK                            x       y       z     vdW  Elec       q    Type
REMARK                         _______ _______ _______ _____ _____    ______ ____
ROOT
ATOM      1  C   UNL     1       5.876   4.917  16.579  0.00  0.00    +0.000 A 
ATOM      2  N   UNL     1       5.201   3.887  16.993  0.00  0.00    +0.000 NA
ATOM      3  C   UNL     1       4.020   4.078  17.717  0.00  0.00    +0.000 A 
ATOM      4  C   UNL     1       3.309   2.951  18.134  0.00  0.00    +0.000 A 
ATOM      5  C   UNL     1       2.128   3.085  18.867  0.00  0.00    +0.000 A 
ATOM      6  C   UNL     1       1.652   4.354  19.189  0.00  0.00    +0.000 A 
ATOM      7  C   UNL     1       2.360   5.492  18.779  0.00  0.00    +0.000 A 
ATOM      8  C   UNL     1       3.537   5.345  18.039  0.00  0.00    +0.000 A 
ATOM      9  C   UNL     1       4.333   6.509  17.593  0.00  0.00    +0.000 A 
ATOM     10  O   UNL     1       4.037   7.653  17.945  0.00  0.00    +0.000 OA
ATOM     11  N   UNL     1       5.458   6.222  16.816  0.00  0.00    +0.000 N 
ENDROOT
BRANCH  11  12
ATOM     12  N   UNL     1       6.300   7.361  16.541  0.00  0.00    +0.000 N 
ATOM     13  C   UNL     1       7.326   7.667  17.431  0.00  0.00    +0.000 C 
ATOM     14  O   UNL     1       7.580   6.964  18.401  0.00  0.00    +0.000 OA
ATOM     15  N   UNL     1       7.880   8.912  17.147  0.00  0.00    +0.000 N 
ATOM     16  H   UNL     1       6.609   7.345  15.569  0.00  0.00    +0.000 HD
ATOM     17  H   UNL     1       7.575   9.353  16.288  0.00  0.00    +0.000 HD
BRANCH  15  18
ATOM     18  C   UNL     1       8.557   9.744  18.072  0.00  0.00    +0.000 A 
ATOM     19  C   UNL     1       8.922   9.319  19.351  0.00  0.00    +0.000 A 
ATOM     20  C   UNL     1       9.382  10.230  20.304  0.00  0.00    +0.000 A 
ATOM     21  C   UNL     1       9.504  11.585  20.000  0.00  0.00    +0.000 A 
ATOM     22  C   UNL     1       9.878  12.569  21.070  0.00  0.00    +0.000 C 
ATOM     23  C   UNL     1       9.247  12.002  18.689  0.00  0.00    +0.000 A 
ATOM     24  C   UNL     1       8.779  11.087  17.732  0.00  0.00    +0.000 A 
ENDBRANCH  15  18
ENDBRANCH  11  12
BRANCH   1  26
ATOM     25  C   UNL     1       6.846   4.363  14.284  0.00  0.00    +0.000 C 
ATOM     26  C   UNL     1       7.127   4.645  15.754  0.00  0.00    +0.000 C 
ENDBRANCH   1  26
TORSDOF 3
ENDMDL
MODEL 8
REMARK VINA RESULT:      -6.6      3.893      5.168
REMARK  Name = 
REMARK  5 active torsions:
REMARK  status: ('A' for Active; 'I' for Inactive)
REMARK    1  A    between atoms: C_1  and  C_2
REMARK    2  A    between atoms: C_2  and  C_3
REMARK    3  A    between atoms: N_13  and  N_14
REMARK    4  A    between atoms: N_17  and  C_18
REMARK    5  A    between atoms: C_21  and  C_22
REMARK                            x       y       z     vdW  Elec       q    Type
REMARK                         _______ _______ _______ _____ _____    ______ ____
ROOT
ATOM      1  C   UNL     1       6.617   6.061  16.816  0.00  0.00    +0.000 A 
ATOM      2  N   UNL     1       7.401   5.872  15.797  0.00  0.00    +0.000 NA
ATOM      3  C   UNL     1       6.961   5.097  14.719  0.00  0.00    +0.000 A 
ATOM      4  C   UNL     1       7.821   4.926  13.632  0.00  0.00    +0.000 A 
ATOM      5  C   UNL     1       7.434   4.156  12.533  0.00  0.00    +0.000 A 
ATOM      6  C   UNL     1       6.180   3.549  12.518  0.00  0.00    +0.000 A 
ATOM      7  C   UNL     1       5.311   3.711  13.605  0.00  0.00    +0.000 A 
ATOM      8  C   UNL     1       5.706   4.491  14.697  0.00  0.00    +0.000 A 
ATOM      9  C   UNL     1       4.837   4.684  15.878  0.00  0.00    +0.000 A 
ATOM     10  O   UNL     1       3.768   4.080  15.985  0.00  0.00    +0.000 OA
ATOM     11  N   UNL     1       5.333   5.530  16.873  0.00  0.00    +0.000 N 
ENDROOT
BRANCH  11  12
ATOM     12  N   UNL     1       4.540   5.562  18.078  0.00  0.00    +0.000 N 
ATOM     13  C   UNL     1       3.420   6.387  18.121  0.00  0.00    +0.000 C 
ATOM     14  O   UNL     1       3.047   7.034  17.150  0.00  0.00    +0.000 OA
ATOM     15  N   UNL     1       2.915   6.477  19.415  0.00  0.00    +0.000 N 
ATOM     16  H   UNL     1       4.348   4.613  18.399  0.00  0.00    +0.000 HD
ATOM     17  H   UNL     1       3.323   5.852  20.101  0.00  0.00    +0.000 HD
BRANCH  15  18
ATOM     18  C   UNL     1       2.141   7.548  19.926  0.00  0.00    +0.000 A 
ATOM     19  C   UNL     1       1.466   7.483  21.147  0.00  0.00    +0.000 A 
ATOM     20  C   UNL     1       0.540   8.465  21.505  0.00  0.00    +0.000 A 
ATOM     21  C   UNL     1       0.277   9.544  20.663  0.00  0.00    +0.000 A 
ATOM     22  C   UNL     1      -0.810  10.522  21.004  0.00  0.00    +0.000 C 
ATOM     23  C   UNL     1       1.030   9.677  19.490  0.00  0.00    +0.000 A 
ATOM     24  C   UNL     1       1.956   8.686  19.126  0.00  0.00    +0.000 A 
ENDBRANCH  15  18
ENDBRANCH  11  12
BRANCH   1  26
ATOM     25  C   UNL     1       7.756   8.255  17.450  0.00  0.00    +0.000 C 
ATOM     26  C   UNL     1       7.134   6.953  17.936  0.00  0.00    +0.000 C 
ENDBRANCH   1  26
TORSDOF 3
ENDMDL
MODEL 9
REMARK VINA RESULT:      -6.6      3.918      5.331
REMARK  Name = 
REMARK  5 active torsions:
REMARK  status: ('A' for Active; 'I' for Inactive)
REMARK    1  A    between atoms: C_1  and  C_2
REMARK    2  A    between atoms: C_2  and  C_3
REMARK    3  A    between atoms: N_13  and  N_14
REMARK    4  A    between atoms: N_17  and  C_18
REMARK    5  A    between atoms: C_21  and  C_22
REMARK                            x       y       z     vdW  Elec       q    Type
REMARK                         _______ _______ _______ _____ _____    ______ ____
ROOT
ATOM      1  C   UNL     1       6.666   6.127  16.669  0.00  0.00    +0.000 A 
ATOM      2  N   UNL     1       7.404   5.915  15.621  0.00  0.00    +0.000 NA
ATOM      3  C   UNL     1       6.933   5.084  14.600  0.00  0.00    +0.000 A 
ATOM      4  C   UNL     1       7.744   4.889  13.479  0.00  0.00    +0.000 A 
ATOM      5  C   UNL     1       7.324   4.063  12.434  0.00  0.00    +0.000 A 
ATOM      6  C   UNL     1       6.089   3.424  12.506  0.00  0.00    +0.000 A 
ATOM      7  C   UNL     1       5.270   3.610  13.628  0.00  0.00    +0.000 A 
ATOM      8  C   UNL     1       5.696   4.446  14.665  0.00  0.00    +0.000 A 
ATOM      9  C   UNL     1       4.881   4.667  15.879  0.00  0.00    +0.000 A 
ATOM     10  O   UNL     1       3.835   4.041  16.065  0.00  0.00    +0.000 OA
ATOM     11  N   UNL     1       5.401   5.567  16.812  0.00  0.00    +0.000 N 
ENDROOT
BRANCH  11  12
ATOM     12  N   UNL     1       4.667   5.631  18.053  0.00  0.00    +0.000 N 
ATOM     13  C   UNL     1       3.450   6.305  18.078  0.00  0.00    +0.000 C 
ATOM     14  O   UNL     1       2.951   6.788  17.070  0.00  0.00    +0.000 OA
ATOM     15  N   UNL     1       2.998   6.472  19.384  0.00  0.00    +0.000 N 
ATOM     16  H   UNL     1       4.618   4.705  18.481  0.00  0.00    +0.000 HD
ATOM     17  H   UNL     1       3.516   5.984  20.105  0.00  0.00    +0.000 HD
BRANCH  15  18
ATOM     18  C   UNL     1       2.113   7.486  19.827  0.00  0.00    +0.000 A 
ATOM     19  C   UNL     1       1.809   8.616  19.066  0.00  0.00    +0.000 A 
ATOM     20  C   UNL     1       1.117   9.692  19.625  0.00  0.00    +0.000 A 
ATOM     21  C   UNL     1       0.696   9.660  20.954  0.00  0.00    +0.000 A 
ATOM     22  C   UNL     1       0.066  10.872  21.576  0.00  0.00    +0.000 C 
ATOM     23  C   UNL     1       0.898   8.488  21.692  0.00  0.00    +0.000 A 
ATOM     24  C   UNL     1       1.600   7.408  21.131  0.00  0.00    +0.000 A 
ENDBRANCH  15  18
ENDBRANCH  11  12
BRANCH   1  26
ATOM     25  C   UNL     1       7.961   6.383  18.854  0.00  0.00    +0.000 C 
ATOM     26  C   UNL     1       7.212   7.079  17.725  0.00  0.00    +0.000 C 
ENDBRANCH   1  26
TORSDOF 3
ENDMDL
