MODEL 1
REMARK VINA RESULT:      -9.4      0.000      0.000
REMARK  Name = 
REMARK  7 active torsions:
REMARK  status: ('A' for Active; 'I' for Inactive)
REMARK    1  A    between atoms: C_1  and  N_2
REMARK    2  A    between atoms: N_2  and  C_3
REMARK    3  A    between atoms: C_3  and  C_4
REMARK    4  A    between atoms: C_14  and  O_15
REMARK    5  A    between atoms: O_15  and  C_16
REMARK    6  A    between atoms: C_16  and  C_17
REMARK    7  A    between atoms: C_27  and  C_28
REMARK                            x       y       z     vdW  Elec       q    Type
REMARK                         _______ _______ _______ _____ _____    ______ ____
ROOT
ATOM      1  C   UNL     1       2.270   7.957  17.992  0.00  0.00    +0.000 C 
ENDROOT
BRANCH   1   2
ATOM      2  C   UNL     1       3.491   7.035  17.816  0.00  0.00    +0.000 C 
ATOM      3  O   UNL     1       4.331   7.292  16.954  0.00  0.00    +0.000 OA
ATOM      4  N   UNL     1       3.563   5.927  18.656  0.00  0.00    +0.000 N 
ATOM      5  C   UNL     1       2.685   5.775  19.847  0.00  0.00    +0.000 C 
ATOM      6  C   UNL     1       1.720   4.591  19.670  0.00  0.00    +0.000 C 
ATOM      7  C   UNL     1       2.521   3.426  19.235  0.00  0.00    +0.000 A 
ATOM      8  N   UNL     1       2.121   2.124  19.289  0.00  0.00    +0.000 NA
ATOM      9  C   UNL     1       3.133   1.445  18.795  0.00  0.00    +0.000 A 
ATOM     10  N   UNL     1       4.179   2.259  18.443  0.00  0.00    +0.000 N 
ATOM     11  C   UNL     1       3.787   3.543  18.705  0.00  0.00    +0.000 A 
ATOM     12  C   UNL     1       4.561   4.817  18.473  0.00  0.00    +0.000 C 
ATOM     13  H   UNL     1       5.060   1.964  18.040  0.00  0.00    +0.000 HD
BRANCH  12  14
ATOM     14  C   UNL     1       5.389   4.755  17.194  0.00  0.00    +0.000 A 
ATOM     15  C   UNL     1       4.842   4.293  15.994  0.00  0.00    +0.000 A 
ATOM     16  C   UNL     1       5.635   4.277  14.851  0.00  0.00    +0.000 A 
ATOM     17  C   UNL     1       6.957   4.696  14.932  0.00  0.00    +0.000 A 
ATOM     18  C   UNL     1       7.441   5.092  16.166  0.00  0.00    +0.000 A 
ATOM     19  N   UNL     1       6.704   5.105  17.296  0.00  0.00    +0.000 NA
ENDBRANCH  12  14
ENDBRANCH   1   2
BRANCH   1  20
ATOM     20  O   UNL     1       2.530   9.304  17.620  0.00  0.00    +0.000 OA
BRANCH  20  26
ATOM     21  C   UNL     1      -0.499  14.366  19.755  0.00  0.00    +0.000 C 
ATOM     22  N   UNL     1      -0.905  12.976  19.916  0.00  0.00    +0.000 N 
ATOM     23  C   UNL     1      -0.023  12.032  19.378  0.00  0.00    +0.000 A 
ATOM     24  C   UNL     1      -0.278  10.662  19.450  0.00  0.00    +0.000 A 
ATOM     25  C   UNL     1       0.598   9.742  18.880  0.00  0.00    +0.000 A 
ATOM     26  C   UNL     1       1.737  10.216  18.276  0.00  0.00    +0.000 A 
ATOM     27  N   UNL     1       2.008  11.530  18.217  0.00  0.00    +0.000 NA
ATOM     28  N   UNL     1       1.126  12.433  18.784  0.00  0.00    +0.000 NA
BRANCH  22  29
ATOM     29  C   UNL     1      -2.342  12.693  19.906  0.00  0.00    +0.000 C 
BRANCH  29  30
ATOM     30  C   UNL     1      -2.906  12.642  21.314  0.00  0.00    +0.000 A 
ATOM     31  C   UNL     1      -2.156  12.117  22.382  0.00  0.00    +0.000 A 
ATOM     32  C   UNL     1      -2.701  12.038  23.663  0.00  0.00    +0.000 A 
ATOM     33  C   UNL     1      -3.991  12.499  23.887  0.00  0.00    +0.000 A 
ATOM     34  F   UNL     1      -4.522  12.406  25.113  0.00  0.00    +0.000 F 
ATOM     35  C   UNL     1      -4.741  13.051  22.856  0.00  0.00    +0.000 A 
ATOM     36  C   UNL     1      -4.199  13.132  21.572  0.00  0.00    +0.000 A 
ENDBRANCH  29  30
ENDBRANCH  22  29
ENDBRANCH  20  26
ENDBRANCH   1  20
TORSDOF 6
ENDMDL
MODEL 2
REMARK VINA RESULT:      -9.3      0.797      1.322
REMARK  Name = 
REMARK  7 active torsions:
REMARK  status: ('A' for Active; 'I' for Inactive)
REMARK    1  A    between atoms: C_1  and  N_2
REMARK    2  A    between atoms: N_2  and  C_3
REMARK    3  A    between atoms: C_3  and  C_4
REMARK    4  A    between atoms: C_14  and  O_15
REMARK    5  A    between atoms: O_15  and  C_16
REMARK    6  A    between atoms: C_16  and  C_17
REMARK    7  A    between atoms: C_27  and  C_28
REMARK                            x       y       z     vdW  Elec       q    Type
REMARK                         _______ _______ _______ _____ _____    ______ ____
ROOT
ATOM      1  C   UNL     1       2.201   7.824  18.114  0.00  0.00    +0.000 C 
ENDROOT
BRANCH   1   2
ATOM      2  C   UNL     1       3.451   6.951  17.895  0.00  0.00    +0.000 C 
ATOM      3  O   UNL     1       4.277   7.270  17.040  0.00  0.00    +0.000 OA
ATOM      4  N   UNL     1       3.565   5.814  18.691  0.00  0.00    +0.000 N 
ATOM      5  C   UNL     1       2.699   5.585  19.878  0.00  0.00    +0.000 C 
ATOM      6  C   UNL     1       1.774   4.378  19.659  0.00  0.00    +0.000 C 
ATOM      7  C   UNL     1       2.611   3.258  19.174  0.00  0.00    +0.000 A 
ATOM      8  N   UNL     1       2.254   1.942  19.178  0.00  0.00    +0.000 NA
ATOM      9  C   UNL     1       3.286   1.317  18.652  0.00  0.00    +0.000 A 
ATOM     10  N   UNL     1       4.302   2.180  18.329  0.00  0.00    +0.000 N 
ATOM     11  C   UNL     1       3.869   3.438  18.643  0.00  0.00    +0.000 A 
ATOM     12  C   UNL     1       4.599   4.746  18.459  0.00  0.00    +0.000 C 
ATOM     13  H   UNL     1       5.190   1.931  17.910  0.00  0.00    +0.000 HD
BRANCH  12  14
ATOM     14  C   UNL     1       5.421   4.763  17.174  0.00  0.00    +0.000 A 
ATOM     15  C   UNL     1       6.704   5.314  17.138  0.00  0.00    +0.000 A 
ATOM     16  C   UNL     1       7.419   5.284  15.945  0.00  0.00    +0.000 A 
ATOM     17  C   UNL     1       6.835   4.732  14.813  0.00  0.00    +0.000 A 
ATOM     18  C   UNL     1       5.541   4.251  14.916  0.00  0.00    +0.000 A 
ATOM     19  N   UNL     1       4.815   4.279  16.052  0.00  0.00    +0.000 NA
ENDBRANCH  12  14
ENDBRANCH   1   2
BRANCH   1  20
ATOM     20  O   UNL     1       2.215   9.021  17.347  0.00  0.00    +0.000 OA
BRANCH  20  26
ATOM     21  C   UNL     1       0.995  14.713  19.687  0.00  0.00    +0.000 C 
ATOM     22  N   UNL     1       0.141  13.535  19.770  0.00  0.00    +0.000 N 
ATOM     23  C   UNL     1       0.671  12.372  19.199  0.00  0.00    +0.000 A 
ATOM     24  C   UNL     1      -0.032  11.168  19.196  0.00  0.00    +0.000 A 
ATOM     25  C   UNL     1       0.503  10.031  18.595  0.00  0.00    +0.000 A 
ATOM     26  C   UNL     1       1.754  10.118  18.036  0.00  0.00    +0.000 A 
ATOM     27  N   UNL     1       2.452  11.265  18.048  0.00  0.00    +0.000 NA
ATOM     28  N   UNL     1       1.907  12.387  18.645  0.00  0.00    +0.000 NA
BRANCH  22  29
ATOM     29  C   UNL     1      -1.306  13.754  19.721  0.00  0.00    +0.000 C 
BRANCH  29  30
ATOM     30  C   UNL     1      -1.982  13.284  20.997  0.00  0.00    +0.000 A 
ATOM     31  C   UNL     1      -3.366  13.041  21.041  0.00  0.00    +0.000 A 
ATOM     32  C   UNL     1      -3.981  12.648  22.230  0.00  0.00    +0.000 A 
ATOM     33  C   UNL     1      -3.213  12.479  23.374  0.00  0.00    +0.000 A 
ATOM     34  F   UNL     1      -3.806  12.120  24.520  0.00  0.00    +0.000 F 
ATOM     35  C   UNL     1      -1.839  12.681  23.348  0.00  0.00    +0.000 A 
ATOM     36  C   UNL     1      -1.220  13.075  22.160  0.00  0.00    +0.000 A 
ENDBRANCH  29  30
ENDBRANCH  22  29
ENDBRANCH  20  26
ENDBRANCH   1  20
TORSDOF 6
ENDMDL
MODEL 3
REMARK VINA RESULT:      -9.2      0.997      1.592
REMARK  Name = 
REMARK  7 active torsions:
REMARK  status: ('A' for Active; 'I' for Inactive)
REMARK    1  A    between atoms: C_1  and  N_2
REMARK    2  A    between atoms: N_2  and  C_3
REMARK    3  A    between atoms: C_3  and  C_4
REMARK    4  A    between atoms: C_14  and  O_15
REMARK    5  A    between atoms: O_15  and  C_16
REMARK    6  A    between atoms: C_16  and  C_17
REMARK    7  A    between atoms: C_27  and  C_28
REMARK                            x       y       z     vdW  Elec       q    Type
REMARK                         _______ _______ _______ _____ _____    ______ ____
ROOT
ATOM      1  C   UNL     1       2.304   7.904  18.001  0.00  0.00    +0.000 C 
ENDROOT
BRANCH   1   2
ATOM      2  C   UNL     1       3.529   6.993  17.796  0.00  0.00    +0.000 C 
ATOM      3  O   UNL     1       4.358   7.270  16.930  0.00  0.00    +0.000 OA
ATOM      4  N   UNL     1       3.615   5.871  18.616  0.00  0.00    +0.000 N 
ATOM      5  C   UNL     1       2.750   5.692  19.813  0.00  0.00    +0.000 C 
ATOM      6  C   UNL     1       1.790   4.507  19.625  0.00  0.00    +0.000 C 
ATOM      7  C   UNL     1       2.593   3.354  19.161  0.00  0.00    +0.000 A 
ATOM      8  N   UNL     1       2.200   2.049  19.196  0.00  0.00    +0.000 NA
ATOM      9  C   UNL     1       3.211   1.384  18.679  0.00  0.00    +0.000 A 
ATOM     10  N   UNL     1       4.249   2.210  18.331  0.00  0.00    +0.000 N 
ATOM     11  C   UNL     1       3.853   3.487  18.620  0.00  0.00    +0.000 A 
ATOM     12  C   UNL     1       4.618   4.770  18.403  0.00  0.00    +0.000 C 
ATOM     13  H   UNL     1       5.128   1.928  17.914  0.00  0.00    +0.000 HD
BRANCH  12  14
ATOM     14  C   UNL     1       5.433   4.735  17.114  0.00  0.00    +0.000 A 
ATOM     15  C   UNL     1       6.735   5.236  17.063  0.00  0.00    +0.000 A 
ATOM     16  C   UNL     1       7.442   5.161  15.867  0.00  0.00    +0.000 A 
ATOM     17  C   UNL     1       6.832   4.614  14.746  0.00  0.00    +0.000 A 
ATOM     18  C   UNL     1       5.522   4.184  14.863  0.00  0.00    +0.000 A 
ATOM     19  N   UNL     1       4.803   4.257  16.003  0.00  0.00    +0.000 NA
ENDBRANCH  12  14
ENDBRANCH   1   2
BRANCH   1  20
ATOM     20  O   UNL     1       2.636   9.286  18.027  0.00  0.00    +0.000 OA
BRANCH  20  26
ATOM     21  C   UNL     1      -3.031  11.858  18.827  0.00  0.00    +0.000 C 
ATOM     22  N   UNL     1      -1.743  12.522  18.981  0.00  0.00    +0.000 N 
ATOM     23  C   UNL     1      -0.625  11.728  18.701  0.00  0.00    +0.000 A 
ATOM     24  C   UNL     1       0.674  12.222  18.810  0.00  0.00    +0.000 A 
ATOM     25  C   UNL     1       1.773  11.404  18.555  0.00  0.00    +0.000 A 
ATOM     26  C   UNL     1       1.543  10.109  18.161  0.00  0.00    +0.000 A 
ATOM     27  N   UNL     1       0.297   9.624  18.032  0.00  0.00    +0.000 NA
ATOM     28  N   UNL     1      -0.785  10.446  18.292  0.00  0.00    +0.000 NA
BRANCH  22  29
ATOM     29  C   UNL     1      -1.641  13.551  20.019  0.00  0.00    +0.000 C 
BRANCH  29  30
ATOM     30  C   UNL     1      -2.330  13.116  21.300  0.00  0.00    +0.000 A 
ATOM     31  C   UNL     1      -3.576  13.651  21.674  0.00  0.00    +0.000 A 
ATOM     32  C   UNL     1      -4.180  13.274  22.874  0.00  0.00    +0.000 A 
ATOM     33  C   UNL     1      -3.550  12.349  23.695  0.00  0.00    +0.000 A 
ATOM     34  F   UNL     1      -4.121  12.001  24.856  0.00  0.00    +0.000 F 
ATOM     35  C   UNL     1      -2.335  11.781  23.332  0.00  0.00    +0.000 A 
ATOM     36  C   UNL     1      -1.728  12.156  22.132  0.00  0.00    +0.000 A 
ENDBRANCH  29  30
ENDBRANCH  22  29
ENDBRANCH  20  26
ENDBRANCH   1  20
TORSDOF 6
ENDMDL
MODEL 4
REMARK VINA RESULT:      -9.1      2.877      4.227
REMARK  Name = 
REMARK  7 active torsions:
REMARK  status: ('A' for Active; 'I' for Inactive)
REMARK    1  A    between atoms: C_1  and  N_2
REMARK    2  A    between atoms: N_2  and  C_3
REMARK    3  A    between atoms: C_3  and  C_4
REMARK    4  A    between atoms: C_14  and  O_15
REMARK    5  A    between atoms: O_15  and  C_16
REMARK    6  A    between atoms: C_16  and  C_17
REMARK    7  A    between atoms: C_27  and  C_28
REMARK                            x       y       z     vdW  Elec       q    Type
REMARK                         _______ _______ _______ _____ _____    ______ ____
ROOT
ATOM      1  C   UNL     1       2.261   7.876  18.254  0.00  0.00    +0.000 C 
ENDROOT
BRANCH   1   2
ATOM      2  C   UNL     1       3.486   6.976  18.008  0.00  0.00    +0.000 C 
ATOM      3  O   UNL     1       4.314   7.292  17.154  0.00  0.00    +0.000 OA
ATOM      4  N   UNL     1       3.575   5.819  18.778  0.00  0.00    +0.000 N 
ATOM      5  C   UNL     1       2.712   5.587  19.967  0.00  0.00    +0.000 C 
ATOM      6  C   UNL     1       1.753   4.410  19.728  0.00  0.00    +0.000 C 
ATOM      7  C   UNL     1       2.557   3.279  19.213  0.00  0.00    +0.000 A 
ATOM      8  N   UNL     1       2.165   1.973  19.191  0.00  0.00    +0.000 NA
ATOM      9  C   UNL     1       3.176   1.333  18.645  0.00  0.00    +0.000 A 
ATOM     10  N   UNL     1       4.213   2.175  18.332  0.00  0.00    +0.000 N 
ATOM     11  C   UNL     1       3.815   3.438  18.677  0.00  0.00    +0.000 A 
ATOM     12  C   UNL     1       4.579   4.729  18.516  0.00  0.00    +0.000 C 
ATOM     13  H   UNL     1       5.091   1.913  17.902  0.00  0.00    +0.000 HD
BRANCH  12  14
ATOM     14  C   UNL     1       5.392   4.752  17.226  0.00  0.00    +0.000 A 
ATOM     15  C   UNL     1       6.691   5.264  17.193  0.00  0.00    +0.000 A 
ATOM     16  C   UNL     1       7.397   5.241  15.995  0.00  0.00    +0.000 A 
ATOM     17  C   UNL     1       6.789   4.736  14.853  0.00  0.00    +0.000 A 
ATOM     18  C   UNL     1       5.481   4.294  14.954  0.00  0.00    +0.000 A 
ATOM     19  N   UNL     1       4.763   4.316  16.097  0.00  0.00    +0.000 NA
ENDBRANCH  12  14
ENDBRANCH   1   2
BRANCH   1  20
ATOM     20  O   UNL     1       2.256   9.045  17.446  0.00  0.00    +0.000 OA
BRANCH  20  26
ATOM     21  C   UNL     1       0.190  13.320  21.547  0.00  0.00    +0.000 C 
ATOM     22  N   UNL     1       1.024  13.566  20.377  0.00  0.00    +0.000 N 
ATOM     23  C   UNL     1       1.309  12.438  19.600  0.00  0.00    +0.000 A 
ATOM     24  C   UNL     1       2.100  12.515  18.453  0.00  0.00    +0.000 A 
ATOM     25  C   UNL     1       2.395  11.373  17.713  0.00  0.00    +0.000 A 
ATOM     26  C   UNL     1       1.860  10.176  18.120  0.00  0.00    +0.000 A 
ATOM     27  N   UNL     1       1.081  10.088  19.211  0.00  0.00    +0.000 NA
ATOM     28  N   UNL     1       0.798  11.230  19.939  0.00  0.00    +0.000 NA
BRANCH  22  29
ATOM     29  C   UNL     1       2.028  14.628  20.483  0.00  0.00    +0.000 C 
BRANCH  29  30
ATOM     30  C   UNL     1       1.807  15.705  19.437  0.00  0.00    +0.000 A 
ATOM     31  C   UNL     1       0.541  16.288  19.246  0.00  0.00    +0.000 A 
ATOM     32  C   UNL     1       0.343  17.248  18.254  0.00  0.00    +0.000 A 
ATOM     33  C   UNL     1       1.411  17.643  17.461  0.00  0.00    +0.000 A 
ATOM     34  F   UNL     1       1.216  18.551  16.496  0.00  0.00    +0.000 F 
ATOM     35  C   UNL     1       2.679  17.106  17.651  0.00  0.00    +0.000 A 
ATOM     36  C   UNL     1       2.881  16.145  18.643  0.00  0.00    +0.000 A 
ENDBRANCH  29  30
ENDBRANCH  22  29
ENDBRANCH  20  26
ENDBRANCH   1  20
TORSDOF 6
ENDMDL
MODEL 5
REMARK VINA RESULT:      -9.0      1.716      2.163
REMARK  Name = 
REMARK  7 active torsions:
REMARK  status: ('A' for Active; 'I' for Inactive)
REMARK    1  A    between atoms: C_1  and  N_2
REMARK    2  A    between atoms: N_2  and  C_3
REMARK    3  A    between atoms: C_3  and  C_4
REMARK    4  A    between atoms: C_14  and  O_15
REMARK    5  A    between atoms: O_15  and  C_16
REMARK    6  A    between atoms: C_16  and  C_17
REMARK    7  A    between atoms: C_27  and  C_28
REMARK                            x       y       z     vdW  Elec       q    Type
REMARK                         _______ _______ _______ _____ _____    ______ ____
ROOT
ATOM      1  C   UNL     1       1.820   7.856  18.135  0.00  0.00    +0.000 C 
ENDROOT
BRANCH   1   2
ATOM      2  C   UNL     1       3.124   7.046  18.010  0.00  0.00    +0.000 C 
ATOM      3  O   UNL     1       3.979   7.388  17.193  0.00  0.00    +0.000 OA
ATOM      4  N   UNL     1       3.252   5.937  18.841  0.00  0.00    +0.000 N 
ATOM      5  C   UNL     1       2.334   5.690  19.985  0.00  0.00    +0.000 C 
ATOM      6  C   UNL     1       1.486   4.430  19.748  0.00  0.00    +0.000 C 
ATOM      7  C   UNL     1       2.406   3.346  19.341  0.00  0.00    +0.000 A 
ATOM      8  N   UNL     1       2.119   2.013  19.361  0.00  0.00    +0.000 NA
ATOM      9  C   UNL     1       3.210   1.432  18.910  0.00  0.00    +0.000 A 
ATOM     10  N   UNL     1       4.196   2.339  18.619  0.00  0.00    +0.000 N 
ATOM     11  C   UNL     1       3.681   3.580  18.874  0.00  0.00    +0.000 A 
ATOM     12  C   UNL     1       4.351   4.920  18.695  0.00  0.00    +0.000 C 
ATOM     13  H   UNL     1       5.118   2.128  18.257  0.00  0.00    +0.000 HD
BRANCH  12  14
ATOM     14  C   UNL     1       5.242   4.949  17.457  0.00  0.00    +0.000 A 
ATOM     15  C   UNL     1       4.832   4.377  16.251  0.00  0.00    +0.000 A 
ATOM     16  C   UNL     1       5.674   4.450  15.147  0.00  0.00    +0.000 A 
ATOM     17  C   UNL     1       6.912   5.067  15.272  0.00  0.00    +0.000 A 
ATOM     18  C   UNL     1       7.268   5.566  16.512  0.00  0.00    +0.000 A 
ATOM     19  N   UNL     1       6.482   5.498  17.607  0.00  0.00    +0.000 NA
ENDBRANCH  12  14
ENDBRANCH   1   2
BRANCH   1  20
ATOM     20  O   UNL     1       2.042   9.237  18.384  0.00  0.00    +0.000 OA
BRANCH  20  26
ATOM     21  C   UNL     1      -1.474  12.208  22.647  0.00  0.00    +0.000 C 
ATOM     22  N   UNL     1      -1.807  11.984  21.245  0.00  0.00    +0.000 N 
ATOM     23  C   UNL     1      -0.862  11.253  20.518  0.00  0.00    +0.000 A 
ATOM     24  C   UNL     1      -1.038  10.963  19.165  0.00  0.00    +0.000 A 
ATOM     25  C   UNL     1      -0.069  10.259  18.454  0.00  0.00    +0.000 A 
ATOM     26  C   UNL     1       1.047   9.827  19.126  0.00  0.00    +0.000 A 
ATOM     27  N   UNL     1       1.222  10.081  20.434  0.00  0.00    +0.000 NA
ATOM     28  N   UNL     1       0.254  10.784  21.127  0.00  0.00    +0.000 NA
BRANCH  22  29
ATOM     29  C   UNL     1      -2.572  13.031  20.565  0.00  0.00    +0.000 C 
BRANCH  29  30
ATOM     30  C   UNL     1      -4.016  12.614  20.354  0.00  0.00    +0.000 A 
ATOM     31  C   UNL     1      -4.971  12.749  21.379  0.00  0.00    +0.000 A 
ATOM     32  C   UNL     1      -6.285  12.324  21.186  0.00  0.00    +0.000 A 
ATOM     33  C   UNL     1      -6.655  11.779  19.964  0.00  0.00    +0.000 A 
ATOM     34  F   UNL     1      -7.913  11.354  19.785  0.00  0.00    +0.000 F 
ATOM     35  C   UNL     1      -5.740  11.665  18.926  0.00  0.00    +0.000 A 
ATOM     36  C   UNL     1      -4.423  12.089  19.115  0.00  0.00    +0.000 A 
ENDBRANCH  29  30
ENDBRANCH  22  29
ENDBRANCH  20  26
ENDBRANCH   1  20
TORSDOF 6
ENDMDL
MODEL 6
REMARK VINA RESULT:      -9.0      3.929     11.241
REMARK  Name = 
REMARK  7 active torsions:
REMARK  status: ('A' for Active; 'I' for Inactive)
REMARK    1  A    between atoms: C_1  and  N_2
REMARK    2  A    between atoms: N_2  and  C_3
REMARK    3  A    between atoms: C_3  and  C_4
REMARK    4  A    between atoms: C_14  and  O_15
REMARK    5  A    between atoms: O_15  and  C_16
REMARK    6  A    between atoms: C_16  and  C_17
REMARK    7  A    between atoms: C_27  and  C_28
REMARK                            x       y       z     vdW  Elec       q    Type
REMARK                         _______ _______ _______ _____ _____    ______ ____
ROOT
ATOM      1  C   UNL     1      -0.837  10.550  19.134  0.00  0.00    +0.000 C 
ENDROOT
BRANCH   1   2
ATOM      2  C   UNL     1      -1.656  11.657  19.826  0.00  0.00    +0.000 C 
ATOM      3  O   UNL     1      -1.237  12.168  20.863  0.00  0.00    +0.000 OA
ATOM      4  N   UNL     1      -2.861  12.009  19.225  0.00  0.00    +0.000 N 
ATOM      5  C   UNL     1      -3.224  11.567  17.852  0.00  0.00    +0.000 C 
ATOM      6  C   UNL     1      -4.426  10.608  17.882  0.00  0.00    +0.000 C 
ATOM      7  C   UNL     1      -5.474  11.236  18.717  0.00  0.00    +0.000 A 
ATOM      8  N   UNL     1      -6.791  10.887  18.730  0.00  0.00    +0.000 NA
ATOM      9  C   UNL     1      -7.339  11.690  19.617  0.00  0.00    +0.000 A 
ATOM     10  N   UNL     1      -6.426  12.557  20.161  0.00  0.00    +0.000 N 
ATOM     11  C   UNL     1      -5.214  12.259  19.602  0.00  0.00    +0.000 A 
ATOM     12  C   UNL     1      -3.878  12.904  19.879  0.00  0.00    +0.000 C 
ATOM     13  H   UNL     1      -6.612  13.262  20.864  0.00  0.00    +0.000 HD
BRANCH  12  14
ATOM     14  C   UNL     1      -3.718  13.271  21.351  0.00  0.00    +0.000 A 
ATOM     15  C   UNL     1      -3.107  14.465  21.741  0.00  0.00    +0.000 A 
ATOM     16  C   UNL     1      -3.006  14.762  23.096  0.00  0.00    +0.000 A 
ATOM     17  C   UNL     1      -3.491  13.857  24.031  0.00  0.00    +0.000 A 
ATOM     18  C   UNL     1      -4.038  12.673  23.568  0.00  0.00    +0.000 A 
ATOM     19  N   UNL     1      -4.137  12.347  22.262  0.00  0.00    +0.000 NA
ENDBRANCH  12  14
ENDBRANCH   1   2
BRANCH   1  20
ATOM     20  O   UNL     1       0.553  10.622  19.422  0.00  0.00    +0.000 OA
BRANCH  20  26
ATOM     21  C   UNL     1       2.322   4.825  21.043  0.00  0.00    +0.000 C 
ATOM     22  N   UNL     1       2.608   5.504  19.786  0.00  0.00    +0.000 N 
ATOM     23  C   UNL     1       2.132   6.817  19.695  0.00  0.00    +0.000 A 
ATOM     24  C   UNL     1       2.324   7.592  18.552  0.00  0.00    +0.000 A 
ATOM     25  C   UNL     1       1.814   8.886  18.472  0.00  0.00    +0.000 A 
ATOM     26  C   UNL     1       1.148   9.390  19.561  0.00  0.00    +0.000 A 
ATOM     27  N   UNL     1       0.971   8.664  20.677  0.00  0.00    +0.000 NA
ATOM     28  N   UNL     1       1.480   7.379  20.741  0.00  0.00    +0.000 NA
BRANCH  22  29
ATOM     29  C   UNL     1       2.655   4.680  18.576  0.00  0.00    +0.000 C 
BRANCH  29  30
ATOM     30  C   UNL     1       4.066   4.584  18.025  0.00  0.00    +0.000 A 
ATOM     31  C   UNL     1       5.181   4.928  18.810  0.00  0.00    +0.000 A 
ATOM     32  C   UNL     1       6.469   4.874  18.279  0.00  0.00    +0.000 A 
ATOM     33  C   UNL     1       6.650   4.459  16.967  0.00  0.00    +0.000 A 
ATOM     34  F   UNL     1       7.886   4.426  16.450  0.00  0.00    +0.000 F 
ATOM     35  C   UNL     1       5.568   4.083  16.180  0.00  0.00    +0.000 A 
ATOM     36  C   UNL     1       4.277   4.136  16.709  0.00  0.00    +0.000 A 
ENDBRANCH  29  30
ENDBRANCH  22  29
ENDBRANCH  20  26
ENDBRANCH   1  20
TORSDOF 6
ENDMDL
MODEL 7
REMARK VINA RESULT:      -9.0      1.663      2.218
REMARK  Name = 
REMARK  7 active torsions:
REMARK  status: ('A' for Active; 'I' for Inactive)
REMARK    1  A    between atoms: C_1  and  N_2
REMARK    2  A    between atoms: N_2  and  C_3
REMARK    3  A    between atoms: C_3  and  C_4
REMARK    4  A    between atoms: C_14  and  O_15
REMARK    5  A    between atoms: O_15  and  C_16
REMARK    6  A    between atoms: C_16  and  C_17
REMARK    7  A    between atoms: C_27  and  C_28
REMARK                            x       y       z     vdW  Elec       q    Type
REMARK                         _______ _______ _______ _____ _____    ______ ____
ROOT
ATOM      1  C   UNL     1       1.771   7.785  18.189  0.00  0.00    +0.000 C 
ENDROOT
BRANCH   1   2
ATOM      2  C   UNL     1       3.100   7.015  18.079  0.00  0.00    +0.000 C 
ATOM      3  O   UNL     1       3.962   7.394  17.287  0.00  0.00    +0.000 OA
ATOM      4  N   UNL     1       3.241   5.896  18.895  0.00  0.00    +0.000 N 
ATOM      5  C   UNL     1       2.307   5.605  20.015  0.00  0.00    +0.000 C 
ATOM      6  C   UNL     1       1.500   4.325  19.739  0.00  0.00    +0.000 C 
ATOM      7  C   UNL     1       2.459   3.274  19.334  0.00  0.00    +0.000 A 
ATOM      8  N   UNL     1       2.210   1.934  19.326  0.00  0.00    +0.000 NA
ATOM      9  C   UNL     1       3.326   1.391  18.890  0.00  0.00    +0.000 A 
ATOM     10  N   UNL     1       4.292   2.330  18.636  0.00  0.00    +0.000 N 
ATOM     11  C   UNL     1       3.737   3.551  18.900  0.00  0.00    +0.000 A 
ATOM     12  C   UNL     1       4.372   4.913  18.757  0.00  0.00    +0.000 C 
ATOM     13  H   UNL     1       5.227   2.151  18.291  0.00  0.00    +0.000 HD
BRANCH  12  14
ATOM     14  C   UNL     1       5.288   4.988  17.540  0.00  0.00    +0.000 A 
ATOM     15  C   UNL     1       6.499   5.684  17.582  0.00  0.00    +0.000 A 
ATOM     16  C   UNL     1       7.307   5.703  16.450  0.00  0.00    +0.000 A 
ATOM     17  C   UNL     1       6.884   5.054  15.298  0.00  0.00    +0.000 A 
ATOM     18  C   UNL     1       5.650   4.429  15.319  0.00  0.00    +0.000 A 
ATOM     19  N   UNL     1       4.834   4.404  16.394  0.00  0.00    +0.000 NA
ENDBRANCH  12  14
ENDBRANCH   1   2
BRANCH   1  20
ATOM     20  O   UNL     1       1.950   9.184  18.369  0.00  0.00    +0.000 OA
BRANCH  20  26
ATOM     21  C   UNL     1      -1.348  11.879  22.975  0.00  0.00    +0.000 C 
ATOM     22  N   UNL     1      -1.684  11.863  21.557  0.00  0.00    +0.000 N 
ATOM     23  C   UNL     1      -0.796  11.152  20.742  0.00  0.00    +0.000 A 
ATOM     24  C   UNL     1      -0.982  11.052  19.364  0.00  0.00    +0.000 A 
ATOM     25  C   UNL     1      -0.069  10.364  18.568  0.00  0.00    +0.000 A 
ATOM     26  C   UNL     1       1.000   9.758  19.180  0.00  0.00    +0.000 A 
ATOM     27  N   UNL     1       1.183   9.828  20.510  0.00  0.00    +0.000 NA
ATOM     28  N   UNL     1       0.269  10.517  21.287  0.00  0.00    +0.000 NA
BRANCH  22  29
ATOM     29  C   UNL     1      -2.351  13.049  21.015  0.00  0.00    +0.000 C 
BRANCH  29  30
ATOM     30  C   UNL     1      -3.841  12.815  20.840  0.00  0.00    +0.000 A 
ATOM     31  C   UNL     1      -4.370  12.370  19.615  0.00  0.00    +0.000 A 
ATOM     32  C   UNL     1      -5.745  12.198  19.455  0.00  0.00    +0.000 A 
ATOM     33  C   UNL     1      -6.594  12.453  20.523  0.00  0.00    +0.000 A 
ATOM     34  F   UNL     1      -7.916  12.306  20.363  0.00  0.00    +0.000 F 
ATOM     35  C   UNL     1      -6.094  12.863  21.752  0.00  0.00    +0.000 A 
ATOM     36  C   UNL     1      -4.719  13.036  21.916  0.00  0.00    +0.000 A 
ENDBRANCH  29  30
ENDBRANCH  22  29
ENDBRANCH  20  26
ENDBRANCH   1  20
TORSDOF 6
ENDMDL
MODEL 8
REMARK VINA RESULT:      -8.9      2.528      3.760
REMARK  Name = 
REMARK  7 active torsions:
REMARK  status: ('A' for Active; 'I' for Inactive)
REMARK    1  A    between atoms: C_1  and  N_2
REMARK    2  A    between atoms: N_2  and  C_3
REMARK    3  A    between atoms: C_3  and  C_4
REMARK    4  A    between atoms: C_14  and  O_15
REMARK    5  A    between atoms: O_15  and  C_16
REMARK    6  A    between atoms: C_16  and  C_17
REMARK    7  A    between atoms: C_27  and  C_28
REMARK                            x       y       z     vdW  Elec       q    Type
REMARK                         _______ _______ _______ _____ _____    ______ ____
ROOT
ATOM      1  C   UNL     1       2.289   7.861  18.130  0.00  0.00    +0.000 C 
ENDROOT
BRANCH   1   2
ATOM      2  C   UNL     1       3.500   6.935  17.909  0.00  0.00    +0.000 C 
ATOM      3  O   UNL     1       4.330   7.212  17.043  0.00  0.00    +0.000 OA
ATOM      4  N   UNL     1       3.575   5.803  18.715  0.00  0.00    +0.000 N 
ATOM      5  C   UNL     1       2.713   5.621  19.913  0.00  0.00    +0.000 C 
ATOM      6  C   UNL     1       1.736   4.450  19.714  0.00  0.00    +0.000 C 
ATOM      7  C   UNL     1       2.522   3.293  19.233  0.00  0.00    +0.000 A 
ATOM      8  N   UNL     1       2.112   1.993  19.254  0.00  0.00    +0.000 NA
ATOM      9  C   UNL     1       3.112   1.321  18.725  0.00  0.00    +0.000 A 
ATOM     10  N   UNL     1       4.160   2.138  18.383  0.00  0.00    +0.000 N 
ATOM     11  C   UNL     1       3.781   3.416  18.688  0.00  0.00    +0.000 A 
ATOM     12  C   UNL     1       4.562   4.691  18.484  0.00  0.00    +0.000 C 
ATOM     13  H   UNL     1       5.033   1.849  17.959  0.00  0.00    +0.000 HD
BRANCH  12  14
ATOM     14  C   UNL     1       5.371   4.661  17.192  0.00  0.00    +0.000 A 
ATOM     15  C   UNL     1       4.787   4.304  15.975  0.00  0.00    +0.000 A 
ATOM     16  C   UNL     1       5.566   4.313  14.822  0.00  0.00    +0.000 A 
ATOM     17  C   UNL     1       6.909   4.654  14.908  0.00  0.00    +0.000 A 
ATOM     18  C   UNL     1       7.427   4.948  16.157  0.00  0.00    +0.000 A 
ATOM     19  N   UNL     1       6.704   4.932  17.297  0.00  0.00    +0.000 NA
ENDBRANCH  12  14
ENDBRANCH   1   2
BRANCH   1  20
ATOM     20  O   UNL     1       2.406   9.105  17.453  0.00  0.00    +0.000 OA
BRANCH  20  26
ATOM     21  C   UNL     1      -0.652  12.898  21.405  0.00  0.00    +0.000 C 
ATOM     22  N   UNL     1       0.288  13.297  20.366  0.00  0.00    +0.000 N 
ATOM     23  C   UNL     1       0.800  12.251  19.591  0.00  0.00    +0.000 A 
ATOM     24  C   UNL     1       1.714  12.477  18.562  0.00  0.00    +0.000 A 
ATOM     25  C   UNL     1       2.234  11.416  17.824  0.00  0.00    +0.000 A 
ATOM     26  C   UNL     1       1.797  10.147  18.111  0.00  0.00    +0.000 A 
ATOM     27  N   UNL     1       0.902   9.914  19.086  0.00  0.00    +0.000 NA
ATOM     28  N   UNL     1       0.397  10.977  19.813  0.00  0.00    +0.000 NA
BRANCH  22  29
ATOM     29  C   UNL     1       1.137  14.458  20.643  0.00  0.00    +0.000 C 
BRANCH  29  30
ATOM     30  C   UNL     1       0.950  15.544  19.600  0.00  0.00    +0.000 A 
ATOM     31  C   UNL     1       2.054  16.184  19.008  0.00  0.00    +0.000 A 
ATOM     32  C   UNL     1       1.868  17.209  18.080  0.00  0.00    +0.000 A 
ATOM     33  C   UNL     1       0.579  17.586  17.728  0.00  0.00    +0.000 A 
ATOM     34  F   UNL     1       0.401  18.583  16.851  0.00  0.00    +0.000 F 
ATOM     35  C   UNL     1      -0.527  16.948  18.274  0.00  0.00    +0.000 A 
ATOM     36  C   UNL     1      -0.345  15.922  19.203  0.00  0.00    +0.000 A 
ENDBRANCH  29  30
ENDBRANCH  22  29
ENDBRANCH  20  26
ENDBRANCH   1  20
TORSDOF 6
ENDMDL
MODEL 9
REMARK VINA RESULT:      -8.9      4.031     10.961
REMARK  Name = 
REMARK  7 active torsions:
REMARK  status: ('A' for Active; 'I' for Inactive)
REMARK    1  A    between atoms: C_1  and  N_2
REMARK    2  A    between atoms: N_2  and  C_3
REMARK    3  A    between atoms: C_3  and  C_4
REMARK    4  A    between atoms: C_14  and  O_15
REMARK    5  A    between atoms: O_15  and  C_16
REMARK    6  A    between atoms: C_16  and  C_17
REMARK    7  A    between atoms: C_27  and  C_28
REMARK                            x       y       z     vdW  Elec       q    Type
REMARK                         _______ _______ _______ _____ _____    ______ ____
ROOT
ATOM      1  C   UNL     1      -0.591  12.472  21.952  0.00  0.00    +0.000 C 
ENDROOT
BRANCH   1   2
ATOM      2  C   UNL     1      -1.994  13.108  21.953  0.00  0.00    +0.000 C 
ATOM      3  O   UNL     1      -2.475  13.521  23.008  0.00  0.00    +0.000 OA
ATOM      4  N   UNL     1      -2.654  13.163  20.729  0.00  0.00    +0.000 N 
ATOM      5  C   UNL     1      -1.963  12.896  19.440  0.00  0.00    +0.000 C 
ATOM      6  C   UNL     1      -2.504  11.616  18.781  0.00  0.00    +0.000 C 
ATOM      7  C   UNL     1      -3.981  11.707  18.780  0.00  0.00    +0.000 A 
ATOM      8  N   UNL     1      -4.820  10.960  18.008  0.00  0.00    +0.000 NA
ATOM      9  C   UNL     1      -6.027  11.364  18.343  0.00  0.00    +0.000 A 
ATOM     10  N   UNL     1      -5.995  12.358  19.288  0.00  0.00    +0.000 N 
ATOM     11  C   UNL     1      -4.679  12.573  19.592  0.00  0.00    +0.000 A 
ATOM     12  C   UNL     1      -4.103  13.546  20.591  0.00  0.00    +0.000 C 
ATOM     13  H   UNL     1      -6.796  12.820  19.700  0.00  0.00    +0.000 HD
BRANCH  12  14
ATOM     14  C   UNL     1      -4.971  13.661  21.840  0.00  0.00    +0.000 A 
ATOM     15  C   UNL     1      -5.190  14.891  22.464  0.00  0.00    +0.000 A 
ATOM     16  C   UNL     1      -6.008  14.943  23.588  0.00  0.00    +0.000 A 
ATOM     17  C   UNL     1      -6.569  13.771  24.079  0.00  0.00    +0.000 A 
ATOM     18  C   UNL     1      -6.265  12.584  23.435  0.00  0.00    +0.000 A 
ATOM     19  N   UNL     1      -5.463  12.497  22.353  0.00  0.00    +0.000 NA
ENDBRANCH  12  14
ENDBRANCH   1   2
BRANCH   1  20
ATOM     20  O   UNL     1      -0.591  11.117  22.380  0.00  0.00    +0.000 OA
BRANCH  20  26
ATOM     21  C   UNL     1       2.719   8.352  17.824  0.00  0.00    +0.000 C 
ATOM     22  N   UNL     1       2.159   7.711  19.007  0.00  0.00    +0.000 N 
ATOM     23  C   UNL     1       1.423   8.551  19.849  0.00  0.00    +0.000 A 
ATOM     24  C   UNL     1       0.831   8.082  21.021  0.00  0.00    +0.000 A 
ATOM     25  C   UNL     1       0.129   8.944  21.860  0.00  0.00    +0.000 A 
ATOM     26  C   UNL     1       0.004  10.259  21.486  0.00  0.00    +0.000 A 
ATOM     27  N   UNL     1       0.551  10.722  20.349  0.00  0.00    +0.000 NA
ATOM     28  N   UNL     1       1.249   9.855  19.528  0.00  0.00    +0.000 NA
BRANCH  22  29
ATOM     29  C   UNL     1       2.925   6.609  19.594  0.00  0.00    +0.000 C 
BRANCH  29  30
ATOM     30  C   UNL     1       2.251   5.272  19.347  0.00  0.00    +0.000 A 
ATOM     31  C   UNL     1       2.168   4.725  18.053  0.00  0.00    +0.000 A 
ATOM     32  C   UNL     1       1.510   3.515  17.833  0.00  0.00    +0.000 A 
ATOM     33  C   UNL     1       0.949   2.838  18.906  0.00  0.00    +0.000 A 
ATOM     34  F   UNL     1       0.301   1.685  18.692  0.00  0.00    +0.000 F 
ATOM     35  C   UNL     1       1.045   3.340  20.198  0.00  0.00    +0.000 A 
ATOM     36  C   UNL     1       1.702   4.551  20.422  0.00  0.00    +0.000 A 
ENDBRANCH  29  30
ENDBRANCH  22  29
ENDBRANCH  20  26
ENDBRANCH   1  20
TORSDOF 6
ENDMDL
