MODEL 1
REMARK VINA RESULT:      -8.4      0.000      0.000
REMARK  Name = 
REMARK  8 active torsions:
REMARK  status: ('A' for Active; 'I' for Inactive)
REMARK    1  A    between atoms: C_1  and  C_2
REMARK    2  A    between atoms: N_4  and  C_5
REMARK    3  A    between atoms: C_5  and  C_6
REMARK    4  A    between atoms: C_14  and  C_15
REMARK    5  A    between atoms: C_15  and  O_17
REMARK    6  A    between atoms: O_17  and  C_18
REMARK    7  A    between atoms: C_18  and  C_19
REMARK    8  A    between atoms: C_22  and  C_23
REMARK                            x       y       z     vdW  Elec       q    Type
REMARK                         _______ _______ _______ _____ _____    ______ ____
ROOT
ATOM      1  C   UNL     1       2.661   6.755  18.514  0.00  0.00    +0.000 C 
ATOM      2  O   UNL     1       2.456   6.727  19.721  0.00  0.00    +0.000 OA
ENDROOT
BRANCH   1   9
ATOM      3  C   UNL     1       1.609   3.670  17.960  0.00  0.00    +0.000 C 
ATOM      4  C   UNL     1       2.892   4.322  17.586  0.00  0.00    +0.000 A 
ATOM      5  N   UNL     1       3.847   3.592  16.992  0.00  0.00    +0.000 NA
ATOM      6  N   UNL     1       4.829   4.486  16.713  0.00  0.00    +0.000 N 
ATOM      7  C   UNL     1       4.496   5.749  17.111  0.00  0.00    +0.000 A 
ATOM      8 CL   UNL     1       5.540   7.057  16.792  0.00  0.00    +0.000 Cl
ATOM      9  C   UNL     1       3.292   5.678  17.776  0.00  0.00    +0.000 A 
BRANCH   6  10
ATOM     10  C   UNL     1       6.124   4.005  16.247  0.00  0.00    +0.000 C 
BRANCH  10  11
ATOM     11  C   UNL     1       6.354   4.203  14.771  0.00  0.00    +0.000 A 
ATOM     12  C   UNL     1       7.376   5.054  14.320  0.00  0.00    +0.000 A 
ATOM     13  C   UNL     1       7.698   5.119  12.963  0.00  0.00    +0.000 A 
ATOM     14  C   UNL     1       7.001   4.339  12.043  0.00  0.00    +0.000 A 
ATOM     15  C   UNL     1       5.959   3.519  12.473  0.00  0.00    +0.000 A 
ATOM     16  C   UNL     1       5.634   3.455  13.828  0.00  0.00    +0.000 A 
ENDBRANCH  10  11
ENDBRANCH   6  10
ENDBRANCH   1   9
BRANCH   1  17
ATOM     17  O   UNL     1       2.202   7.753  17.706  0.00  0.00    +0.000 OA
BRANCH  17  18
ATOM     18  C   UNL     1       2.409   9.076  18.233  0.00  0.00    +0.000 C 
BRANCH  18  19
ATOM     19  C   UNL     1       1.100   9.610  18.696  0.00  0.00    +0.000 A 
ATOM     20  N   UNL     1       0.714   9.952  19.907  0.00  0.00    +0.000 NA
ATOM     21  N   UNL     1      -0.586  10.399  19.791  0.00  0.00    +0.000 NA
ATOM     22  C   UNL     1      -0.913  10.301  18.516  0.00  0.00    +0.000 A 
ATOM     23  O   UNL     1       0.117   9.809  17.756  0.00  0.00    +0.000 OA
BRANCH  22  24
ATOM     24  C   UNL     1      -2.154  10.629  17.829  0.00  0.00    +0.000 A 
ATOM     25  C   UNL     1      -2.360  10.181  16.518  0.00  0.00    +0.000 A 
ATOM     26  C   UNL     1      -3.540  10.481  15.835  0.00  0.00    +0.000 A 
ATOM     27  C   UNL     1      -4.533  11.236  16.458  0.00  0.00    +0.000 A 
ATOM     28  C   UNL     1      -4.345  11.688  17.764  0.00  0.00    +0.000 A 
ATOM     29  C   UNL     1      -3.166  11.385  18.446  0.00  0.00    +0.000 A 
ENDBRANCH  22  24
ENDBRANCH  18  19
ENDBRANCH  17  18
ENDBRANCH   1  17
TORSDOF 7
ENDMDL
MODEL 2
REMARK VINA RESULT:      -8.2      5.294      8.783
REMARK  Name = 
REMARK  8 active torsions:
REMARK  status: ('A' for Active; 'I' for Inactive)
REMARK    1  A    between atoms: C_1  and  C_2
REMARK    2  A    between atoms: N_4  and  C_5
REMARK    3  A    between atoms: C_5  and  C_6
REMARK    4  A    between atoms: C_14  and  C_15
REMARK    5  A    between atoms: C_15  and  O_17
REMARK    6  A    between atoms: O_17  and  C_18
REMARK    7  A    between atoms: C_18  and  C_19
REMARK    8  A    between atoms: C_22  and  C_23
REMARK                            x       y       z     vdW  Elec       q    Type
REMARK                         _______ _______ _______ _____ _____    ______ ____
ROOT
ATOM      1  C   UNL     1       7.539   4.789  17.502  0.00  0.00    +0.000 C 
ATOM      2  O   UNL     1       8.311   4.060  18.111  0.00  0.00    +0.000 OA
ENDROOT
BRANCH   1   9
ATOM      3  C   UNL     1       6.447   4.669  14.384  0.00  0.00    +0.000 C 
ATOM      4  C   UNL     1       5.737   4.366  15.655  0.00  0.00    +0.000 A 
ATOM      5  N   UNL     1       4.433   4.057  15.618  0.00  0.00    +0.000 NA
ATOM      6  N   UNL     1       4.123   3.759  16.905  0.00  0.00    +0.000 N 
ATOM      7  C   UNL     1       5.205   3.867  17.729  0.00  0.00    +0.000 A 
ATOM      8 CL   UNL     1       5.077   3.463  19.379  0.00  0.00    +0.000 Cl
ATOM      9  C   UNL     1       6.255   4.358  16.985  0.00  0.00    +0.000 A 
BRANCH   6  10
ATOM     10  C   UNL     1       2.725   3.576  17.279  0.00  0.00    +0.000 C 
BRANCH  10  11
ATOM     11  C   UNL     1       2.259   4.501  18.373  0.00  0.00    +0.000 A 
ATOM     12  C   UNL     1       1.605   3.989  19.505  0.00  0.00    +0.000 A 
ATOM     13  C   UNL     1       1.314   4.817  20.591  0.00  0.00    +0.000 A 
ATOM     14  C   UNL     1       1.670   6.163  20.557  0.00  0.00    +0.000 A 
ATOM     15  C   UNL     1       2.285   6.692  19.425  0.00  0.00    +0.000 A 
ATOM     16  C   UNL     1       2.574   5.868  18.336  0.00  0.00    +0.000 A 
ENDBRANCH  10  11
ENDBRANCH   6  10
ENDBRANCH   1   9
BRANCH   1  17
ATOM     17  O   UNL     1       7.747   6.129  17.350  0.00  0.00    +0.000 OA
BRANCH  17  18
ATOM     18  C   UNL     1       8.089   6.811  18.570  0.00  0.00    +0.000 C 
BRANCH  18  19
ATOM     19  C   UNL     1       8.221   8.264  18.278  0.00  0.00    +0.000 A 
ATOM     20  N   UNL     1       7.619   8.994  17.363  0.00  0.00    +0.000 NA
ATOM     21  N   UNL     1       8.083  10.283  17.525  0.00  0.00    +0.000 NA
ATOM     22  C   UNL     1       8.941  10.259  18.528  0.00  0.00    +0.000 A 
ATOM     23  O   UNL     1       9.075   9.002  19.061  0.00  0.00    +0.000 OA
BRANCH  22  24
ATOM     24  C   UNL     1       9.728  11.327  19.127  0.00  0.00    +0.000 A 
ATOM     25  C   UNL     1      10.585  12.091  18.323  0.00  0.00    +0.000 A 
ATOM     26  C   UNL     1      11.352  13.121  18.870  0.00  0.00    +0.000 A 
ATOM     27  C   UNL     1      11.272  13.402  20.234  0.00  0.00    +0.000 A 
ATOM     28  C   UNL     1      10.423  12.652  21.047  0.00  0.00    +0.000 A 
ATOM     29  C   UNL     1       9.654  11.624  20.499  0.00  0.00    +0.000 A 
ENDBRANCH  22  24
ENDBRANCH  18  19
ENDBRANCH  17  18
ENDBRANCH   1  17
TORSDOF 7
ENDMDL
MODEL 3
REMARK VINA RESULT:      -8.1      5.303      8.851
REMARK  Name = 
REMARK  8 active torsions:
REMARK  status: ('A' for Active; 'I' for Inactive)
REMARK    1  A    between atoms: C_1  and  C_2
REMARK    2  A    between atoms: N_4  and  C_5
REMARK    3  A    between atoms: C_5  and  C_6
REMARK    4  A    between atoms: C_14  and  C_15
REMARK    5  A    between atoms: C_15  and  O_17
REMARK    6  A    between atoms: O_17  and  C_18
REMARK    7  A    between atoms: C_18  and  C_19
REMARK    8  A    between atoms: C_22  and  C_23
REMARK                            x       y       z     vdW  Elec       q    Type
REMARK                         _______ _______ _______ _____ _____    ______ ____
ROOT
ATOM      1  C   UNL     1       7.619   4.746  17.399  0.00  0.00    +0.000 C 
ATOM      2  O   UNL     1       8.401   3.935  17.878  0.00  0.00    +0.000 OA
ENDROOT
BRANCH   1   9
ATOM      3  C   UNL     1       6.255   4.431  14.404  0.00  0.00    +0.000 C 
ATOM      4  C   UNL     1       5.626   4.363  15.750  0.00  0.00    +0.000 A 
ATOM      5  N   UNL     1       4.296   4.224  15.844  0.00  0.00    +0.000 NA
ATOM      6  N   UNL     1       4.064   4.111  17.176  0.00  0.00    +0.000 N 
ATOM      7  C   UNL     1       5.219   4.166  17.901  0.00  0.00    +0.000 A 
ATOM      8 CL   UNL     1       5.186   3.963  19.593  0.00  0.00    +0.000 Cl
ATOM      9  C   UNL     1       6.252   4.432  17.030  0.00  0.00    +0.000 A 
BRANCH   6  10
ATOM     10  C   UNL     1       2.692   4.154  17.669  0.00  0.00    +0.000 C 
BRANCH  10  11
ATOM     11  C   UNL     1       2.426   5.275  18.640  0.00  0.00    +0.000 A 
ATOM     12  C   UNL     1       2.609   6.611  18.249  0.00  0.00    +0.000 A 
ATOM     13  C   UNL     1       2.213   7.656  19.086  0.00  0.00    +0.000 A 
ATOM     14  C   UNL     1       1.635   7.377  20.323  0.00  0.00    +0.000 A 
ATOM     15  C   UNL     1       1.483   6.057  20.739  0.00  0.00    +0.000 A 
ATOM     16  C   UNL     1       1.881   5.011  19.906  0.00  0.00    +0.000 A 
ENDBRANCH  10  11
ENDBRANCH   6  10
ENDBRANCH   1   9
BRANCH   1  17
ATOM     17  O   UNL     1       7.909   6.073  17.274  0.00  0.00    +0.000 OA
BRANCH  17  18
ATOM     18  C   UNL     1       8.022   6.769  18.528  0.00  0.00    +0.000 C 
BRANCH  18  19
ATOM     19  C   UNL     1       8.175   8.222  18.250  0.00  0.00    +0.000 A 
ATOM     20  N   UNL     1       7.529   8.985  17.393  0.00  0.00    +0.000 NA
ATOM     21  N   UNL     1       8.042  10.257  17.541  0.00  0.00    +0.000 NA
ATOM     22  C   UNL     1       8.969  10.192  18.478  0.00  0.00    +0.000 A 
ATOM     23  O   UNL     1       9.105   8.923  18.979  0.00  0.00    +0.000 OA
BRANCH  22  24
ATOM     24  C   UNL     1       9.828  11.227  19.034  0.00  0.00    +0.000 A 
ATOM     25  C   UNL     1       9.679  11.607  20.374  0.00  0.00    +0.000 A 
ATOM     26  C   UNL     1      10.488  12.597  20.933  0.00  0.00    +0.000 A 
ATOM     27  C   UNL     1      11.461  13.224  20.155  0.00  0.00    +0.000 A 
ATOM     28  C   UNL     1      11.624  12.856  18.820  0.00  0.00    +0.000 A 
ATOM     29  C   UNL     1      10.816  11.864  18.263  0.00  0.00    +0.000 A 
ENDBRANCH  22  24
ENDBRANCH  18  19
ENDBRANCH  17  18
ENDBRANCH   1  17
TORSDOF 7
ENDMDL
MODEL 4
REMARK VINA RESULT:      -8.0      2.825      5.229
REMARK  Name = 
REMARK  8 active torsions:
REMARK  status: ('A' for Active; 'I' for Inactive)
REMARK    1  A    between atoms: C_1  and  C_2
REMARK    2  A    between atoms: N_4  and  C_5
REMARK    3  A    between atoms: C_5  and  C_6
REMARK    4  A    between atoms: C_14  and  C_15
REMARK    5  A    between atoms: C_15  and  O_17
REMARK    6  A    between atoms: O_17  and  C_18
REMARK    7  A    between atoms: C_18  and  C_19
REMARK    8  A    between atoms: C_22  and  C_23
REMARK                            x       y       z     vdW  Elec       q    Type
REMARK                         _______ _______ _______ _____ _____    ______ ____
ROOT
ATOM      1  C   UNL     1       5.398   6.828  16.798  0.00  0.00    +0.000 C 
ATOM      2  O   UNL     1       6.457   7.443  16.831  0.00  0.00    +0.000 OA
ENDROOT
BRANCH   1   9
ATOM      3  C   UNL     1       5.302   4.510  14.443  0.00  0.00    +0.000 C 
ATOM      4  C   UNL     1       5.178   4.376  15.919  0.00  0.00    +0.000 A 
ATOM      5  N   UNL     1       4.918   3.171  16.446  0.00  0.00    +0.000 NA
ATOM      6  N   UNL     1       4.954   3.377  17.787  0.00  0.00    +0.000 N 
ATOM      7  C   UNL     1       5.242   4.674  18.096  0.00  0.00    +0.000 A 
ATOM      8 CL   UNL     1       5.422   5.154  19.721  0.00  0.00    +0.000 Cl
ATOM      9  C   UNL     1       5.295   5.387  16.919  0.00  0.00    +0.000 A 
BRANCH   6  10
ATOM     10  C   UNL     1       4.507   2.318  18.685  0.00  0.00    +0.000 C 
BRANCH  10  11
ATOM     11  C   UNL     1       3.181   2.596  19.345  0.00  0.00    +0.000 A 
ATOM     12  C   UNL     1       3.080   2.635  20.744  0.00  0.00    +0.000 A 
ATOM     13  C   UNL     1       1.896   3.048  21.359  0.00  0.00    +0.000 A 
ATOM     14  C   UNL     1       0.801   3.422  20.582  0.00  0.00    +0.000 A 
ATOM     15  C   UNL     1       0.876   3.351  19.193  0.00  0.00    +0.000 A 
ATOM     16  C   UNL     1       2.057   2.936  18.577  0.00  0.00    +0.000 A 
ENDBRANCH  10  11
ENDBRANCH   6  10
ENDBRANCH   1   9
BRANCH   1  17
ATOM     17  O   UNL     1       4.183   7.445  16.770  0.00  0.00    +0.000 OA
BRANCH  17  18
ATOM     18  C   UNL     1       3.297   7.045  17.832  0.00  0.00    +0.000 C 
BRANCH  18  19
ATOM     19  C   UNL     1       2.437   8.205  18.192  0.00  0.00    +0.000 A 
ATOM     20  N   UNL     1       2.065   9.233  17.458  0.00  0.00    +0.000 NA
ATOM     21  N   UNL     1       1.260  10.014  18.262  0.00  0.00    +0.000 NA
ATOM     22  C   UNL     1       1.192   9.413  19.436  0.00  0.00    +0.000 A 
ATOM     23  O   UNL     1       1.916   8.249  19.462  0.00  0.00    +0.000 OA
BRANCH  22  24
ATOM     24  C   UNL     1       0.487   9.791  20.653  0.00  0.00    +0.000 A 
ATOM     25  C   UNL     1      -0.212  11.004  20.702  0.00  0.00    +0.000 A 
ATOM     26  C   UNL     1      -0.895  11.392  21.855  0.00  0.00    +0.000 A 
ATOM     27  C   UNL     1      -0.889  10.568  22.980  0.00  0.00    +0.000 A 
ATOM     28  C   UNL     1      -0.200   9.356  22.947  0.00  0.00    +0.000 A 
ATOM     29  C   UNL     1       0.481   8.968  21.792  0.00  0.00    +0.000 A 
ENDBRANCH  22  24
ENDBRANCH  18  19
ENDBRANCH  17  18
ENDBRANCH   1  17
TORSDOF 7
ENDMDL
MODEL 5
REMARK VINA RESULT:      -7.9      2.531      8.828
REMARK  Name = 
REMARK  8 active torsions:
REMARK  status: ('A' for Active; 'I' for Inactive)
REMARK    1  A    between atoms: C_1  and  C_2
REMARK    2  A    between atoms: N_4  and  C_5
REMARK    3  A    between atoms: C_5  and  C_6
REMARK    4  A    between atoms: C_14  and  C_15
REMARK    5  A    between atoms: C_15  and  O_17
REMARK    6  A    between atoms: O_17  and  C_18
REMARK    7  A    between atoms: C_18  and  C_19
REMARK    8  A    between atoms: C_22  and  C_23
REMARK                            x       y       z     vdW  Elec       q    Type
REMARK                         _______ _______ _______ _____ _____    ______ ____
ROOT
ATOM      1  C   UNL     1       2.536   4.066  17.904  0.00  0.00    +0.000 C 
ATOM      2  O   UNL     1       1.771   3.932  16.957  0.00  0.00    +0.000 OA
ENDROOT
BRANCH   1   9
ATOM      3  C   UNL     1       1.200   3.705  20.906  0.00  0.00    +0.000 C 
ATOM      4  C   UNL     1       1.714   4.927  20.232  0.00  0.00    +0.000 A 
ATOM      5  N   UNL     1       1.589   6.113  20.844  0.00  0.00    +0.000 NA
ATOM      6  N   UNL     1       2.222   6.984  20.019  0.00  0.00    +0.000 N 
ATOM      7  C   UNL     1       2.742   6.362  18.922  0.00  0.00    +0.000 A 
ATOM      8 CL   UNL     1       3.655   7.242  17.782  0.00  0.00    +0.000 Cl
ATOM      9  C   UNL     1       2.352   5.042  18.961  0.00  0.00    +0.000 A 
BRANCH   6  10
ATOM     10  C   UNL     1       2.104   8.417  20.266  0.00  0.00    +0.000 C 
BRANCH  10  11
ATOM     11  C   UNL     1       0.893   9.050  19.630  0.00  0.00    +0.000 A 
ATOM     12  C   UNL     1      -0.126   9.593  20.427  0.00  0.00    +0.000 A 
ATOM     13  C   UNL     1      -1.169  10.319  19.848  0.00  0.00    +0.000 A 
ATOM     14  C   UNL     1      -1.206  10.506  18.468  0.00  0.00    +0.000 A 
ATOM     15  C   UNL     1      -0.221   9.940  17.662  0.00  0.00    +0.000 A 
ATOM     16  C   UNL     1       0.820   9.211  18.237  0.00  0.00    +0.000 A 
ENDBRANCH  10  11
ENDBRANCH   6  10
ENDBRANCH   1   9
BRANCH   1  17
ATOM     17  O   UNL     1       3.584   3.225  18.136  0.00  0.00    +0.000 OA
BRANCH  17  18
ATOM     18  C   UNL     1       4.668   3.826  18.866  0.00  0.00    +0.000 C 
BRANCH  18  19
ATOM     19  C   UNL     1       5.677   4.322  17.890  0.00  0.00    +0.000 A 
ATOM     20  N   UNL     1       6.766   5.032  18.097  0.00  0.00    +0.000 NA
ATOM     21  N   UNL     1       7.354   5.213  16.862  0.00  0.00    +0.000 NA
ATOM     22  C   UNL     1       6.586   4.602  15.979  0.00  0.00    +0.000 A 
ATOM     23  O   UNL     1       5.499   4.008  16.565  0.00  0.00    +0.000 OA
BRANCH  22  24
ATOM     24  C   UNL     1       6.723   4.473  14.535  0.00  0.00    +0.000 A 
ATOM     25  C   UNL     1       7.659   5.262  13.854  0.00  0.00    +0.000 A 
ATOM     26  C   UNL     1       7.811   5.160  12.471  0.00  0.00    +0.000 A 
ATOM     27  C   UNL     1       7.025   4.263  11.747  0.00  0.00    +0.000 A 
ATOM     28  C   UNL     1       6.090   3.469  12.410  0.00  0.00    +0.000 A 
ATOM     29  C   UNL     1       5.941   3.570  13.794  0.00  0.00    +0.000 A 
ENDBRANCH  22  24
ENDBRANCH  18  19
ENDBRANCH  17  18
ENDBRANCH   1  17
TORSDOF 7
ENDMDL
MODEL 6
REMARK VINA RESULT:      -7.9      2.680      3.250
REMARK  Name = 
REMARK  8 active torsions:
REMARK  status: ('A' for Active; 'I' for Inactive)
REMARK    1  A    between atoms: C_1  and  C_2
REMARK    2  A    between atoms: N_4  and  C_5
REMARK    3  A    between atoms: C_5  and  C_6
REMARK    4  A    between atoms: C_14  and  C_15
REMARK    5  A    between atoms: C_15  and  O_17
REMARK    6  A    between atoms: O_17  and  C_18
REMARK    7  A    between atoms: C_18  and  C_19
REMARK    8  A    between atoms: C_22  and  C_23
REMARK                            x       y       z     vdW  Elec       q    Type
REMARK                         _______ _______ _______ _____ _____    ______ ____
ROOT
ATOM      1  C   UNL     1       1.283   7.129  20.789  0.00  0.00    +0.000 C 
ATOM      2  O   UNL     1       0.153   6.920  21.213  0.00  0.00    +0.000 OA
ENDROOT
BRANCH   1   9
ATOM      3  C   UNL     1       1.738   3.875  21.152  0.00  0.00    +0.000 C 
ATOM      4  C   UNL     1       2.291   4.808  20.134  0.00  0.00    +0.000 A 
ATOM      5  N   UNL     1       3.171   4.346  19.234  0.00  0.00    +0.000 NA
ATOM      6  N   UNL     1       3.405   5.405  18.419  0.00  0.00    +0.000 N 
ATOM      7  C   UNL     1       2.682   6.502  18.790  0.00  0.00    +0.000 A 
ATOM      8 CL   UNL     1       2.749   7.932  17.864  0.00  0.00    +0.000 Cl
ATOM      9  C   UNL     1       2.021   6.197  19.958  0.00  0.00    +0.000 A 
BRANCH   6  10
ATOM     10  C   UNL     1       4.481   5.329  17.438  0.00  0.00    +0.000 C 
BRANCH  10  11
ATOM     11  C   UNL     1       5.759   5.995  17.880  0.00  0.00    +0.000 A 
ATOM     12  C   UNL     1       6.525   5.443  18.918  0.00  0.00    +0.000 A 
ATOM     13  C   UNL     1       7.785   5.962  19.224  0.00  0.00    +0.000 A 
ATOM     14  C   UNL     1       8.289   7.039  18.499  0.00  0.00    +0.000 A 
ATOM     15  C   UNL     1       7.523   7.621  17.491  0.00  0.00    +0.000 A 
ATOM     16  C   UNL     1       6.263   7.106  17.186  0.00  0.00    +0.000 A 
ENDBRANCH  10  11
ENDBRANCH   6  10
ENDBRANCH   1   9
BRANCH   1  17
ATOM     17  O   UNL     1       1.926   8.321  20.947  0.00  0.00    +0.000 OA
BRANCH  17  18
ATOM     18  C   UNL     1       1.094   9.372  21.471  0.00  0.00    +0.000 C 
BRANCH  18  19
ATOM     19  C   UNL     1       0.620  10.210  20.337  0.00  0.00    +0.000 A 
ATOM     20  N   UNL     1       1.213  11.220  19.736  0.00  0.00    +0.000 NA
ATOM     21  N   UNL     1       0.354  11.638  18.740  0.00  0.00    +0.000 NA
ATOM     22  C   UNL     1      -0.709  10.858  18.796  0.00  0.00    +0.000 A 
ATOM     23  O   UNL     1      -0.606   9.919  19.790  0.00  0.00    +0.000 OA
BRANCH  22  24
ATOM     24  C   UNL     1      -1.920  10.848  17.989  0.00  0.00    +0.000 A 
ATOM     25  C   UNL     1      -1.977  10.060  16.832  0.00  0.00    +0.000 A 
ATOM     26  C   UNL     1      -3.124  10.032  16.039  0.00  0.00    +0.000 A 
ATOM     27  C   UNL     1      -4.236  10.796  16.393  0.00  0.00    +0.000 A 
ATOM     28  C   UNL     1      -4.197  11.585  17.542  0.00  0.00    +0.000 A 
ATOM     29  C   UNL     1      -3.049  11.610  18.337  0.00  0.00    +0.000 A 
ENDBRANCH  22  24
ENDBRANCH  18  19
ENDBRANCH  17  18
ENDBRANCH   1  17
TORSDOF 7
ENDMDL
MODEL 7
REMARK VINA RESULT:      -7.8      2.422      9.207
REMARK  Name = 
REMARK  8 active torsions:
REMARK  status: ('A' for Active; 'I' for Inactive)
REMARK    1  A    between atoms: C_1  and  C_2
REMARK    2  A    between atoms: N_4  and  C_5
REMARK    3  A    between atoms: C_5  and  C_6
REMARK    4  A    between atoms: C_14  and  C_15
REMARK    5  A    between atoms: C_15  and  O_17
REMARK    6  A    between atoms: O_17  and  C_18
REMARK    7  A    between atoms: C_18  and  C_19
REMARK    8  A    between atoms: C_22  and  C_23
REMARK                            x       y       z     vdW  Elec       q    Type
REMARK                         _______ _______ _______ _____ _____    ______ ____
ROOT
ATOM      1  C   UNL     1       3.124   5.560  19.372  0.00  0.00    +0.000 C 
ATOM      2  O   UNL     1       2.385   4.595  19.524  0.00  0.00    +0.000 OA
ENDROOT
BRANCH   1   9
ATOM      3  C   UNL     1       3.873   7.303  16.665  0.00  0.00    +0.000 C 
ATOM      4  C   UNL     1       3.032   7.673  17.835  0.00  0.00    +0.000 A 
ATOM      5  N   UNL     1       2.522   8.910  17.908  0.00  0.00    +0.000 NA
ATOM      6  N   UNL     1       1.754   8.890  19.027  0.00  0.00    +0.000 N 
ATOM      7  C   UNL     1       1.771   7.668  19.635  0.00  0.00    +0.000 A 
ATOM      8 CL   UNL     1       0.814   7.379  21.015  0.00  0.00    +0.000 Cl
ATOM      9  C   UNL     1       2.667   6.872  18.958  0.00  0.00    +0.000 A 
BRANCH   6  10
ATOM     10  C   UNL     1       1.203  10.140  19.538  0.00  0.00    +0.000 C 
BRANCH  10  11
ATOM     11  C   UNL     1      -0.198  10.430  19.064  0.00  0.00    +0.000 A 
ATOM     12  C   UNL     1      -0.990  11.378  19.730  0.00  0.00    +0.000 A 
ATOM     13  C   UNL     1      -2.224  11.767  19.204  0.00  0.00    +0.000 A 
ATOM     14  C   UNL     1      -2.680  11.209  18.011  0.00  0.00    +0.000 A 
ATOM     15  C   UNL     1      -1.921  10.239  17.361  0.00  0.00    +0.000 A 
ATOM     16  C   UNL     1      -0.689   9.847  17.886  0.00  0.00    +0.000 A 
ENDBRANCH  10  11
ENDBRANCH   6  10
ENDBRANCH   1   9
BRANCH   1  17
ATOM     17  O   UNL     1       4.448   5.539  19.697  0.00  0.00    +0.000 OA
BRANCH  17  18
ATOM     18  C   UNL     1       5.157   4.390  19.199  0.00  0.00    +0.000 C 
BRANCH  18  19
ATOM     19  C   UNL     1       6.040   4.826  18.084  0.00  0.00    +0.000 A 
ATOM     20  N   UNL     1       7.091   5.618  18.106  0.00  0.00    +0.000 NA
ATOM     21  N   UNL     1       7.555   5.686  16.809  0.00  0.00    +0.000 NA
ATOM     22  C   UNL     1       6.758   4.931  16.076  0.00  0.00    +0.000 A 
ATOM     23  O   UNL     1       5.770   4.346  16.825  0.00  0.00    +0.000 OA
BRANCH  22  24
ATOM     24  C   UNL     1       6.778   4.640  14.649  0.00  0.00    +0.000 A 
ATOM     25  C   UNL     1       7.703   5.290  13.822  0.00  0.00    +0.000 A 
ATOM     26  C   UNL     1       7.745   5.031  12.451  0.00  0.00    +0.000 A 
ATOM     27  C   UNL     1       6.857   4.115  11.887  0.00  0.00    +0.000 A 
ATOM     28  C   UNL     1       5.931   3.459  12.697  0.00  0.00    +0.000 A 
ATOM     29  C   UNL     1       5.892   3.716  14.068  0.00  0.00    +0.000 A 
ENDBRANCH  22  24
ENDBRANCH  18  19
ENDBRANCH  17  18
ENDBRANCH   1  17
TORSDOF 7
ENDMDL
MODEL 8
REMARK VINA RESULT:      -7.8      2.788      5.307
REMARK  Name = 
REMARK  8 active torsions:
REMARK  status: ('A' for Active; 'I' for Inactive)
REMARK    1  A    between atoms: C_1  and  C_2
REMARK    2  A    between atoms: N_4  and  C_5
REMARK    3  A    between atoms: C_5  and  C_6
REMARK    4  A    between atoms: C_14  and  C_15
REMARK    5  A    between atoms: C_15  and  O_17
REMARK    6  A    between atoms: O_17  and  C_18
REMARK    7  A    between atoms: C_18  and  C_19
REMARK    8  A    between atoms: C_22  and  C_23
REMARK                            x       y       z     vdW  Elec       q    Type
REMARK                         _______ _______ _______ _____ _____    ______ ____
ROOT
ATOM      1  C   UNL     1       5.535   6.856  16.832  0.00  0.00    +0.000 C 
ATOM      2  O   UNL     1       6.613   7.434  16.888  0.00  0.00    +0.000 OA
ENDROOT
BRANCH   1   9
ATOM      3  C   UNL     1       5.403   4.526  14.491  0.00  0.00    +0.000 C 
ATOM      4  C   UNL     1       5.246   4.407  15.965  0.00  0.00    +0.000 A 
ATOM      5  N   UNL     1       4.932   3.216  16.495  0.00  0.00    +0.000 NA
ATOM      6  N   UNL     1       4.949   3.430  17.835  0.00  0.00    +0.000 N 
ATOM      7  C   UNL     1       5.276   4.719  18.141  0.00  0.00    +0.000 A 
ATOM      8 CL   UNL     1       5.440   5.204  19.766  0.00  0.00    +0.000 Cl
ATOM      9  C   UNL     1       5.378   5.421  16.961  0.00  0.00    +0.000 A 
BRANCH   6  10
ATOM     10  C   UNL     1       4.446   2.395  18.731  0.00  0.00    +0.000 C 
BRANCH  10  11
ATOM     11  C   UNL     1       3.071   2.676  19.280  0.00  0.00    +0.000 A 
ATOM     12  C   UNL     1       1.946   2.608  18.445  0.00  0.00    +0.000 A 
ATOM     13  C   UNL     1       0.659   2.710  18.978  0.00  0.00    +0.000 A 
ATOM     14  C   UNL     1       0.485   2.885  20.349  0.00  0.00    +0.000 A 
ATOM     15  C   UNL     1       1.595   2.993  21.184  0.00  0.00    +0.000 A 
ATOM     16  C   UNL     1       2.882   2.895  20.653  0.00  0.00    +0.000 A 
ENDBRANCH  10  11
ENDBRANCH   6  10
ENDBRANCH   1   9
BRANCH   1  17
ATOM     17  O   UNL     1       4.343   7.515  16.769  0.00  0.00    +0.000 OA
BRANCH  17  18
ATOM     18  C   UNL     1       3.365   7.052  17.717  0.00  0.00    +0.000 C 
BRANCH  18  19
ATOM     19  C   UNL     1       2.508   8.202  18.114  0.00  0.00    +0.000 A 
ATOM     20  N   UNL     1       2.130   9.248  17.409  0.00  0.00    +0.000 NA
ATOM     21  N   UNL     1       1.333  10.009  18.240  0.00  0.00    +0.000 NA
ATOM     22  C   UNL     1       1.276   9.380  19.399  0.00  0.00    +0.000 A 
ATOM     23  O   UNL     1       2.000   8.215  19.389  0.00  0.00    +0.000 OA
BRANCH  22  24
ATOM     24  C   UNL     1       0.583   9.727  20.632  0.00  0.00    +0.000 A 
ATOM     25  C   UNL     1       0.882   9.038  21.814  0.00  0.00    +0.000 A 
ATOM     26  C   UNL     1       0.234   9.349  23.009  0.00  0.00    +0.000 A 
ATOM     27  C   UNL     1      -0.729  10.359  23.038  0.00  0.00    +0.000 A 
ATOM     28  C   UNL     1      -1.037  11.056  21.871  0.00  0.00    +0.000 A 
ATOM     29  C   UNL     1      -0.385  10.745  20.676  0.00  0.00    +0.000 A 
ENDBRANCH  22  24
ENDBRANCH  18  19
ENDBRANCH  17  18
ENDBRANCH   1  17
TORSDOF 7
ENDMDL
MODEL 9
REMARK VINA RESULT:      -7.8      5.423      8.643
REMARK  Name = 
REMARK  8 active torsions:
REMARK  status: ('A' for Active; 'I' for Inactive)
REMARK    1  A    between atoms: C_1  and  C_2
REMARK    2  A    between atoms: N_4  and  C_5
REMARK    3  A    between atoms: C_5  and  C_6
REMARK    4  A    between atoms: C_14  and  C_15
REMARK    5  A    between atoms: C_15  and  O_17
REMARK    6  A    between atoms: O_17  and  C_18
REMARK    7  A    between atoms: C_18  and  C_19
REMARK    8  A    between atoms: C_22  and  C_23
REMARK                            x       y       z     vdW  Elec       q    Type
REMARK                         _______ _______ _______ _____ _____    ______ ____
ROOT
ATOM      1  C   UNL     1       7.409   5.998  18.096  0.00  0.00    +0.000 C 
ATOM      2  O   UNL     1       7.842   5.779  19.220  0.00  0.00    +0.000 OA
ENDROOT
BRANCH   1   9
ATOM      3  C   UNL     1       7.043   4.477  15.183  0.00  0.00    +0.000 C 
ATOM      4  C   UNL     1       6.044   4.742  16.253  0.00  0.00    +0.000 A 
ATOM      5  N   UNL     1       4.762   4.404  16.050  0.00  0.00    +0.000 NA
ATOM      6  N   UNL     1       4.149   4.694  17.225  0.00  0.00    +0.000 N 
ATOM      7  C   UNL     1       5.023   5.192  18.148  0.00  0.00    +0.000 A 
ATOM      8 CL   UNL     1       4.495   5.553  19.727  0.00  0.00    +0.000 Cl
ATOM      9  C   UNL     1       6.246   5.339  17.533  0.00  0.00    +0.000 A 
BRANCH   6  10
ATOM     10  C   UNL     1       2.693   4.648  17.301  0.00  0.00    +0.000 C 
BRANCH  10  11
ATOM     11  C   UNL     1       2.167   3.886  18.491  0.00  0.00    +0.000 A 
ATOM     12  C   UNL     1       2.493   2.533  18.668  0.00  0.00    +0.000 A 
ATOM     13  C   UNL     1       2.144   1.867  19.844  0.00  0.00    +0.000 A 
ATOM     14  C   UNL     1       1.463   2.544  20.853  0.00  0.00    +0.000 A 
ATOM     15  C   UNL     1       1.099   3.877  20.674  0.00  0.00    +0.000 A 
ATOM     16  C   UNL     1       1.444   4.544  19.498  0.00  0.00    +0.000 A 
ENDBRANCH  10  11
ENDBRANCH   6  10
ENDBRANCH   1   9
BRANCH   1  17
ATOM     17  O   UNL     1       7.901   6.982  17.290  0.00  0.00    +0.000 OA
BRANCH  17  18
ATOM     18  C   UNL     1       7.240   8.251  17.444  0.00  0.00    +0.000 C 
BRANCH  18  19
ATOM     19  C   UNL     1       8.186   9.202  18.088  0.00  0.00    +0.000 A 
ATOM     20  N   UNL     1       8.940   9.042  19.155  0.00  0.00    +0.000 NA
ATOM     21  N   UNL     1       9.639  10.220  19.318  0.00  0.00    +0.000 NA
ATOM     22  C   UNL     1       9.267  11.026  18.341  0.00  0.00    +0.000 A 
ATOM     23  O   UNL     1       8.344  10.440  17.513  0.00  0.00    +0.000 OA
BRANCH  22  24
ATOM     24  C   UNL     1       9.679  12.387  18.027  0.00  0.00    +0.000 A 
ATOM     25  C   UNL     1      10.884  12.607  17.347  0.00  0.00    +0.000 A 
ATOM     26  C   UNL     1      11.305  13.900  17.035  0.00  0.00    +0.000 A 
ATOM     27  C   UNL     1      10.522  14.995  17.399  0.00  0.00    +0.000 A 
ATOM     28  C   UNL     1       9.319  14.793  18.075  0.00  0.00    +0.000 A 
ATOM     29  C   UNL     1       8.898  13.499  18.385  0.00  0.00    +0.000 A 
ENDBRANCH  22  24
ENDBRANCH  18  19
ENDBRANCH  17  18
ENDBRANCH   1  17
TORSDOF 7
ENDMDL
