MODEL 1
REMARK VINA RESULT:      -5.2      0.000      0.000
REMARK  Name = 
REMARK  2 active torsions:
REMARK  status: ('A' for Active; 'I' for Inactive)
REMARK    1  A    between atoms: O_1  and  N_2
REMARK    2  A    between atoms: C_3  and  C_4
REMARK                            x       y       z     vdW  Elec       q    Type
REMARK                         _______ _______ _______ _____ _____    ______ ____
ROOT
ATOM      1  C   UNL     1       6.755   5.567  17.502  0.00  0.00    +0.000 C 
ATOM      2  C   UNL     1       7.063   4.524  16.711  0.00  0.00    +0.000 C 
ATOM      3  C   UNL     1       6.296   4.259  15.515  0.00  0.00    +0.000 C 
ATOM      4  C   UNL     1       5.441   5.166  15.025  0.00  0.00    +0.000 C 
ATOM      5  C   UNL     1       5.225   6.498  15.693  0.00  0.00    +0.000 C 
ATOM      6  C   UNL     1       5.653   6.534  17.171  0.00  0.00    +0.000 C 
ENDROOT
BRANCH   1   8
ATOM      7  N   UNL     1       7.191   5.138  19.861  0.00  0.00    +0.000 NA
ATOM      8  C   UNL     1       7.514   5.735  18.762  0.00  0.00    +0.000 C 
BRANCH   7   9
ATOM      9  O   UNL     1       8.131   5.463  20.849  0.00  0.00    +0.000 OA
ATOM     10  H   UNL     1       8.524   6.282  20.497  0.00  0.00    +0.000 HD
ENDBRANCH   7   9
ENDBRANCH   1   8
TORSDOF 2
ENDMDL
MODEL 2
REMARK VINA RESULT:      -5.2      0.470      1.689
REMARK  Name = 
REMARK  2 active torsions:
REMARK  status: ('A' for Active; 'I' for Inactive)
REMARK    1  A    between atoms: O_1  and  N_2
REMARK    2  A    between atoms: C_3  and  C_4
REMARK                            x       y       z     vdW  Elec       q    Type
REMARK                         _______ _______ _______ _____ _____    ______ ____
ROOT
ATOM      1  C   UNL     1       7.026   5.458  17.579  0.00  0.00    +0.000 C 
ATOM      2  C   UNL     1       6.042   6.374  17.537  0.00  0.00    +0.000 C 
ATOM      3  C   UNL     1       5.294   6.592  16.320  0.00  0.00    +0.000 C 
ATOM      4  C   UNL     1       5.376   5.735  15.294  0.00  0.00    +0.000 C 
ATOM      5  C   UNL     1       6.250   4.511  15.347  0.00  0.00    +0.000 C 
ATOM      6  C   UNL     1       7.368   4.585  16.405  0.00  0.00    +0.000 C 
ENDROOT
BRANCH   1   8
ATOM      7  N   UNL     1       7.310   5.500  20.000  0.00  0.00    +0.000 NA
ATOM      8  C   UNL     1       7.820   5.344  18.823  0.00  0.00    +0.000 C 
BRANCH   7   9
ATOM      9  O   UNL     1       8.306   5.279  20.961  0.00  0.00    +0.000 OA
ATOM     10  H   UNL     1       8.362   6.147  21.402  0.00  0.00    +0.000 HD
ENDBRANCH   7   9
ENDBRANCH   1   8
TORSDOF 2
ENDMDL
MODEL 3
REMARK VINA RESULT:      -4.9      1.193      1.218
REMARK  Name = 
REMARK  2 active torsions:
REMARK  status: ('A' for Active; 'I' for Inactive)
REMARK    1  A    between atoms: O_1  and  N_2
REMARK    2  A    between atoms: C_3  and  C_4
REMARK                            x       y       z     vdW  Elec       q    Type
REMARK                         _______ _______ _______ _____ _____    ______ ____
ROOT
ATOM      1  C   UNL     1       6.832   4.743  17.437  0.00  0.00    +0.000 C 
ATOM      2  C   UNL     1       7.418   4.833  16.230  0.00  0.00    +0.000 C 
ATOM      3  C   UNL     1       6.695   4.461  15.035  0.00  0.00    +0.000 C 
ATOM      4  C   UNL     1       5.371   4.265  15.058  0.00  0.00    +0.000 C 
ATOM      5  C   UNL     1       4.567   4.411  16.322  0.00  0.00    +0.000 C 
ATOM      6  C   UNL     1       5.403   4.308  17.612  0.00  0.00    +0.000 C 
ENDROOT
BRANCH   1   8
ATOM      7  N   UNL     1       7.135   5.276  19.795  0.00  0.00    +0.000 NA
ATOM      8  C   UNL     1       7.649   5.047  18.633  0.00  0.00    +0.000 C 
BRANCH   7   9
ATOM      9  O   UNL     1       8.170   5.479  20.719  0.00  0.00    +0.000 OA
ATOM     10  H   UNL     1       8.921   5.033  20.287  0.00  0.00    +0.000 HD
ENDBRANCH   7   9
ENDBRANCH   1   8
TORSDOF 2
ENDMDL
MODEL 4
REMARK VINA RESULT:      -4.9      4.811      5.215
REMARK  Name = 
REMARK  2 active torsions:
REMARK  status: ('A' for Active; 'I' for Inactive)
REMARK    1  A    between atoms: O_1  and  N_2
REMARK    2  A    between atoms: C_3  and  C_4
REMARK                            x       y       z     vdW  Elec       q    Type
REMARK                         _______ _______ _______ _____ _____    ______ ____
ROOT
ATOM      1  C   UNL     1       3.230   3.581  18.947  0.00  0.00    +0.000 C 
ATOM      2  C   UNL     1       2.966   4.027  20.188  0.00  0.00    +0.000 C 
ATOM      3  C   UNL     1       1.619   3.984  20.710  0.00  0.00    +0.000 C 
ATOM      4  C   UNL     1       0.659   3.282  20.095  0.00  0.00    +0.000 C 
ATOM      5  C   UNL     1       0.924   2.511  18.830  0.00  0.00    +0.000 C 
ATOM      6  C   UNL     1       2.176   2.975  18.064  0.00  0.00    +0.000 C 
ENDROOT
BRANCH   1   8
ATOM      7  N   UNL     1       5.600   4.107  19.169  0.00  0.00    +0.000 NA
ATOM      8  C   UNL     1       4.609   3.735  18.429  0.00  0.00    +0.000 C 
BRANCH   7   9
ATOM      9  O   UNL     1       6.770   4.106  18.398  0.00  0.00    +0.000 OA
ATOM     10  H   UNL     1       6.488   3.629  17.596  0.00  0.00    +0.000 HD
ENDBRANCH   7   9
ENDBRANCH   1   8
TORSDOF 2
ENDMDL
MODEL 5
REMARK VINA RESULT:      -4.9      4.897      5.400
REMARK  Name = 
REMARK  2 active torsions:
REMARK  status: ('A' for Active; 'I' for Inactive)
REMARK    1  A    between atoms: O_1  and  N_2
REMARK    2  A    between atoms: C_3  and  C_4
REMARK                            x       y       z     vdW  Elec       q    Type
REMARK                         _______ _______ _______ _____ _____    ______ ____
ROOT
ATOM      1  C   UNL     1       3.448   3.519  19.413  0.00  0.00    +0.000 C 
ATOM      2  C   UNL     1       2.304   4.059  18.958  0.00  0.00    +0.000 C 
ATOM      3  C   UNL     1       1.046   3.764  19.605  0.00  0.00    +0.000 C 
ATOM      4  C   UNL     1       1.005   3.168  20.803  0.00  0.00    +0.000 C 
ATOM      5  C   UNL     1       2.258   2.765  21.533  0.00  0.00    +0.000 C 
ATOM      6  C   UNL     1       3.497   2.635  20.629  0.00  0.00    +0.000 C 
ENDROOT
BRANCH   1   8
ATOM      7  N   UNL     1       5.820   4.045  19.227  0.00  0.00    +0.000 NA
ATOM      8  C   UNL     1       4.693   3.780  18.656  0.00  0.00    +0.000 C 
BRANCH   7   9
ATOM      9  O   UNL     1       6.807   4.191  18.241  0.00  0.00    +0.000 OA
ATOM     10  H   UNL     1       6.519   5.000  17.780  0.00  0.00    +0.000 HD
ENDBRANCH   7   9
ENDBRANCH   1   8
TORSDOF 2
ENDMDL
MODEL 6
REMARK VINA RESULT:      -4.8      4.752      4.996
REMARK  Name = 
REMARK  2 active torsions:
REMARK  status: ('A' for Active; 'I' for Inactive)
REMARK    1  A    between atoms: O_1  and  N_2
REMARK    2  A    between atoms: C_3  and  C_4
REMARK                            x       y       z     vdW  Elec       q    Type
REMARK                         _______ _______ _______ _____ _____    ______ ____
ROOT
ATOM      1  C   UNL     1       3.298   3.602  18.954  0.00  0.00    +0.000 C 
ATOM      2  C   UNL     1       2.514   2.712  18.321  0.00  0.00    +0.000 C 
ATOM      3  C   UNL     1       1.213   2.374  18.851  0.00  0.00    +0.000 C 
ATOM      4  C   UNL     1       0.649   3.104  19.820  0.00  0.00    +0.000 C 
ATOM      5  C   UNL     1       1.336   4.304  20.415  0.00  0.00    +0.000 C 
ATOM      6  C   UNL     1       2.860   4.326  20.197  0.00  0.00    +0.000 C 
ENDROOT
BRANCH   1   8
ATOM      7  N   UNL     1       5.686   4.038  19.174  0.00  0.00    +0.000 NA
ATOM      8  C   UNL     1       4.658   3.840  18.418  0.00  0.00    +0.000 C 
BRANCH   7   9
ATOM      9  O   UNL     1       6.824   4.179  18.367  0.00  0.00    +0.000 OA
ATOM     10  H   UNL     1       7.263   4.953  18.764  0.00  0.00    +0.000 HD
ENDBRANCH   7   9
ENDBRANCH   1   8
TORSDOF 2
ENDMDL
MODEL 7
REMARK VINA RESULT:      -4.8      1.172      1.533
REMARK  Name = 
REMARK  2 active torsions:
REMARK  status: ('A' for Active; 'I' for Inactive)
REMARK    1  A    between atoms: O_1  and  N_2
REMARK    2  A    between atoms: C_3  and  C_4
REMARK                            x       y       z     vdW  Elec       q    Type
REMARK                         _______ _______ _______ _____ _____    ______ ____
ROOT
ATOM      1  C   UNL     1       6.813   4.927  17.380  0.00  0.00    +0.000 C 
ATOM      2  C   UNL     1       5.558   4.473  17.545  0.00  0.00    +0.000 C 
ATOM      3  C   UNL     1       4.704   4.245  16.402  0.00  0.00    +0.000 C 
ATOM      4  C   UNL     1       5.201   4.230  15.158  0.00  0.00    +0.000 C 
ATOM      5  C   UNL     1       6.663   4.456  14.883  0.00  0.00    +0.000 C 
ATOM      6  C   UNL     1       7.412   5.170  16.023  0.00  0.00    +0.000 C 
ENDROOT
BRANCH   1   8
ATOM      7  N   UNL     1       7.116   5.197  19.783  0.00  0.00    +0.000 NA
ATOM      8  C   UNL     1       7.610   5.231  18.590  0.00  0.00    +0.000 C 
BRANCH   7   9
ATOM      9  O   UNL     1       8.133   5.483  20.705  0.00  0.00    +0.000 OA
ATOM     10  H   UNL     1       7.789   5.080  21.523  0.00  0.00    +0.000 HD
ENDBRANCH   7   9
ENDBRANCH   1   8
TORSDOF 2
ENDMDL
MODEL 8
REMARK VINA RESULT:      -4.8      4.784      5.188
REMARK  Name = 
REMARK  2 active torsions:
REMARK  status: ('A' for Active; 'I' for Inactive)
REMARK    1  A    between atoms: O_1  and  N_2
REMARK    2  A    between atoms: C_3  and  C_4
REMARK                            x       y       z     vdW  Elec       q    Type
REMARK                         _______ _______ _______ _____ _____    ______ ____
ROOT
ATOM      1  C   UNL     1       3.640   3.815  19.689  0.00  0.00    +0.000 C 
ATOM      2  C   UNL     1       3.506   2.676  20.392  0.00  0.00    +0.000 C 
ATOM      3  C   UNL     1       2.430   2.524  21.344  0.00  0.00    +0.000 C 
ATOM      4  C   UNL     1       1.404   3.384  21.374  0.00  0.00    +0.000 C 
ATOM      5  C   UNL     1       1.319   4.554  20.431  0.00  0.00    +0.000 C 
ATOM      6  C   UNL     1       2.669   4.957  19.809  0.00  0.00    +0.000 C 
ENDROOT
BRANCH   1   8
ATOM      7  N   UNL     1       6.005   4.189  19.236  0.00  0.00    +0.000 NA
ATOM      8  C   UNL     1       4.814   3.951  18.798  0.00  0.00    +0.000 C 
BRANCH   7   9
ATOM      9  O   UNL     1       6.894   4.210  18.153  0.00  0.00    +0.000 OA
ATOM     10  H   UNL     1       6.424   4.774  17.512  0.00  0.00    +0.000 HD
ENDBRANCH   7   9
ENDBRANCH   1   8
TORSDOF 2
ENDMDL
MODEL 9
REMARK VINA RESULT:      -4.7      2.675      3.222
REMARK  Name = 
REMARK  2 active torsions:
REMARK  status: ('A' for Active; 'I' for Inactive)
REMARK    1  A    between atoms: O_1  and  N_2
REMARK    2  A    between atoms: C_3  and  C_4
REMARK                            x       y       z     vdW  Elec       q    Type
REMARK                         _______ _______ _______ _____ _____    ______ ____
ROOT
ATOM      1  C   UNL     1       4.868   4.873  18.296  0.00  0.00    +0.000 C 
ATOM      2  C   UNL     1       3.979   5.602  18.993  0.00  0.00    +0.000 C 
ATOM      3  C   UNL     1       2.571   5.545  18.671  0.00  0.00    +0.000 C 
ATOM      4  C   UNL     1       2.084   4.597  17.861  0.00  0.00    +0.000 C 
ATOM      5  C   UNL     1       2.968   3.550  17.239  0.00  0.00    +0.000 C 
ATOM      6  C   UNL     1       4.459   3.934  17.196  0.00  0.00    +0.000 C 
ENDROOT
BRANCH   1   8
ATOM      7  N   UNL     1       6.737   5.353  19.785  0.00  0.00    +0.000 NA
ATOM      8  C   UNL     1       6.305   5.042  18.608  0.00  0.00    +0.000 C 
BRANCH   7   9
ATOM      9  O   UNL     1       8.139   5.386  19.762  0.00  0.00    +0.000 OA
ATOM     10  H   UNL     1       8.355   4.581  19.257  0.00  0.00    +0.000 HD
ENDBRANCH   7   9
ENDBRANCH   1   8
TORSDOF 2
ENDMDL
