MODEL 1
REMARK VINA RESULT:      -8.4      0.000      0.000
REMARK  Name = 
REMARK  7 active torsions:
REMARK  status: ('A' for Active; 'I' for Inactive)
REMARK    1  A    between atoms: C_1  and  O_2
REMARK    2  A    between atoms: O_2  and  C_3
REMARK    3  A    between atoms: C_5  and  C_6
REMARK    4  A    between atoms: N_7  and  N_8
REMARK    5  A    between atoms: C_9  and  C_11
REMARK    6  A    between atoms: C_14  and  C_15
REMARK    7  A    between atoms: C_26  and  O_27
REMARK                            x       y       z     vdW  Elec       q    Type
REMARK                         _______ _______ _______ _____ _____    ______ ____
ROOT
ATOM      1  N   UNL     1       2.649   4.753  18.190  0.00  0.00    +0.000 N 
ATOM      2  C   UNL     1       2.760   5.518  19.341  0.00  0.00    +0.000 C 
ATOM      3  O   UNL     1       3.076   5.103  20.448  0.00  0.00    +0.000 OA
ATOM      4  H   UNL     1       2.325   5.162  17.323  0.00  0.00    +0.000 HD
ENDROOT
BRANCH   2   5
ATOM      5  C   UNL     1       2.357   6.949  19.176  0.00  0.00    +0.000 A 
ATOM      6  C   UNL     1       1.746   7.599  20.251  0.00  0.00    +0.000 A 
ATOM      7  C   UNL     1       1.295   8.919  20.115  0.00  0.00    +0.000 A 
ATOM      8  C   UNL     1       1.455   9.636  18.913  0.00  0.00    +0.000 A 
ATOM      9  C   UNL     1       2.102   8.970  17.856  0.00  0.00    +0.000 A 
ATOM     10  C   UNL     1       2.550   7.648  17.982  0.00  0.00    +0.000 A 
BRANCH   8  11
ATOM     11  C   UNL     1       0.958  11.027  18.770  0.00  0.00    +0.000 A 
ATOM     12  C   UNL     1      -0.420  11.315  18.752  0.00  0.00    +0.000 A 
ATOM     13  C   UNL     1      -0.894  12.620  18.574  0.00  0.00    +0.000 A 
ATOM     14  C   UNL     1       0.001  13.673  18.427  0.00  0.00    +0.000 A 
ATOM     15  C   UNL     1       1.369  13.423  18.463  0.00  0.00    +0.000 A 
ATOM     16  C   UNL     1       1.840  12.116  18.627  0.00  0.00    +0.000 A 
ENDBRANCH   8  11
ENDBRANCH   2   5
BRANCH   1  18
ATOM     17  C   UNL     1       4.027   2.980  17.733  0.00  0.00    +0.000 C 
ATOM     18  N   UNL     1       2.900   3.418  18.213  0.00  0.00    +0.000 NA
BRANCH  17  21
ATOM     19  C   UNL     1       6.894   5.297  16.767  0.00  0.00    +0.000 A 
ATOM     20  C   UNL     1       5.929   4.628  17.531  0.00  0.00    +0.000 A 
ATOM     21  C   UNL     1       5.069   3.688  16.953  0.00  0.00    +0.000 A 
ATOM     22  C   UNL     1       5.129   3.453  15.579  0.00  0.00    +0.000 A 
ATOM     23  C   UNL     1       6.072   4.134  14.806  0.00  0.00    +0.000 A 
ATOM     24 BR   UNL     1       6.128   3.793  12.940  0.00  0.00    +0.000 Br
ATOM     25  C   UNL     1       6.965   5.045  15.393  0.00  0.00    +0.000 A 
BRANCH  19  27
ATOM     26  C   UNL     1       7.444   7.508  17.480  0.00  0.00    +0.000 C 
ATOM     27  O   UNL     1       7.699   6.110  17.517  0.00  0.00    +0.000 OA
ENDBRANCH  19  27
BRANCH  25  28
ATOM     28  O   UNL     1       7.905   5.669  14.617  0.00  0.00    +0.000 OA
ATOM     29  H   UNL     1       7.443   6.127  13.890  0.00  0.00    +0.000 HD
ENDBRANCH  25  28
ENDBRANCH  17  21
ENDBRANCH   1  18
TORSDOF 6
ENDMDL
MODEL 2
REMARK VINA RESULT:      -8.4      0.483      1.043
REMARK  Name = 
REMARK  7 active torsions:
REMARK  status: ('A' for Active; 'I' for Inactive)
REMARK    1  A    between atoms: C_1  and  O_2
REMARK    2  A    between atoms: O_2  and  C_3
REMARK    3  A    between atoms: C_5  and  C_6
REMARK    4  A    between atoms: N_7  and  N_8
REMARK    5  A    between atoms: C_9  and  C_11
REMARK    6  A    between atoms: C_14  and  C_15
REMARK    7  A    between atoms: C_26  and  O_27
REMARK                            x       y       z     vdW  Elec       q    Type
REMARK                         _______ _______ _______ _____ _____    ______ ____
ROOT
ATOM      1  N   UNL     1       2.507   4.873  18.280  0.00  0.00    +0.000 N 
ATOM      2  C   UNL     1       2.597   5.648  19.427  0.00  0.00    +0.000 C 
ATOM      3  O   UNL     1       2.882   5.240  20.545  0.00  0.00    +0.000 OA
ATOM      4  H   UNL     1       2.208   5.277  17.401  0.00  0.00    +0.000 HD
ENDROOT
BRANCH   2   5
ATOM      5  C   UNL     1       2.212   7.081  19.239  0.00  0.00    +0.000 A 
ATOM      6  C   UNL     1       1.638   7.764  20.313  0.00  0.00    +0.000 A 
ATOM      7  C   UNL     1       1.204   9.087  20.159  0.00  0.00    +0.000 A 
ATOM      8  C   UNL     1       1.345   9.775  18.938  0.00  0.00    +0.000 A 
ATOM      9  C   UNL     1       1.956   9.076  17.880  0.00  0.00    +0.000 A 
ATOM     10  C   UNL     1       2.387   7.750  18.025  0.00  0.00    +0.000 A 
BRANCH   8  11
ATOM     11  C   UNL     1       0.866  11.170  18.774  0.00  0.00    +0.000 A 
ATOM     12  C   UNL     1       1.765  12.248  18.672  0.00  0.00    +0.000 A 
ATOM     13  C   UNL     1       1.317  13.569  18.560  0.00  0.00    +0.000 A 
ATOM     14  C   UNL     1      -0.045  13.843  18.531  0.00  0.00    +0.000 A 
ATOM     15  C   UNL     1      -0.959  12.797  18.608  0.00  0.00    +0.000 A 
ATOM     16  C   UNL     1      -0.508  11.478  18.733  0.00  0.00    +0.000 A 
ENDBRANCH   8  11
ENDBRANCH   2   5
BRANCH   1  18
ATOM     17  C   UNL     1       3.877   3.083  17.869  0.00  0.00    +0.000 C 
ATOM     18  N   UNL     1       2.745   3.536  18.321  0.00  0.00    +0.000 NA
BRANCH  17  21
ATOM     19  C   UNL     1       6.758   5.393  16.930  0.00  0.00    +0.000 A 
ATOM     20  C   UNL     1       5.771   4.743  17.680  0.00  0.00    +0.000 A 
ATOM     21  C   UNL     1       4.943   3.773  17.104  0.00  0.00    +0.000 A 
ATOM     22  C   UNL     1       5.057   3.490  15.743  0.00  0.00    +0.000 A 
ATOM     23  C   UNL     1       6.023   4.153  14.982  0.00  0.00    +0.000 A 
ATOM     24 BR   UNL     1       6.154   3.745  13.133  0.00  0.00    +0.000 Br
ATOM     25  C   UNL     1       6.885   5.094  15.569  0.00  0.00    +0.000 A 
BRANCH  19  27
ATOM     26  C   UNL     1       7.793   5.875  19.027  0.00  0.00    +0.000 C 
ATOM     27  O   UNL     1       7.526   6.242  17.680  0.00  0.00    +0.000 OA
ENDBRANCH  19  27
BRANCH  25  28
ATOM     28  O   UNL     1       7.847   5.699  14.808  0.00  0.00    +0.000 OA
ATOM     29  H   UNL     1       8.122   5.074  14.111  0.00  0.00    +0.000 HD
ENDBRANCH  25  28
ENDBRANCH  17  21
ENDBRANCH   1  18
TORSDOF 6
ENDMDL
MODEL 3
REMARK VINA RESULT:      -8.1      3.843      6.822
REMARK  Name = 
REMARK  7 active torsions:
REMARK  status: ('A' for Active; 'I' for Inactive)
REMARK    1  A    between atoms: C_1  and  O_2
REMARK    2  A    between atoms: O_2  and  C_3
REMARK    3  A    between atoms: C_5  and  C_6
REMARK    4  A    between atoms: N_7  and  N_8
REMARK    5  A    between atoms: C_9  and  C_11
REMARK    6  A    between atoms: C_14  and  C_15
REMARK    7  A    between atoms: C_26  and  O_27
REMARK                            x       y       z     vdW  Elec       q    Type
REMARK                         _______ _______ _______ _____ _____    ______ ____
ROOT
ATOM      1  N   UNL     1       5.893   5.135  16.571  0.00  0.00    +0.000 N 
ATOM      2  C   UNL     1       6.739   5.169  17.670  0.00  0.00    +0.000 C 
ATOM      3  O   UNL     1       6.922   4.253  18.460  0.00  0.00    +0.000 OA
ATOM      4  H   UNL     1       5.752   5.956  15.997  0.00  0.00    +0.000 HD
ENDROOT
BRANCH   2   5
ATOM      5  C   UNL     1       7.389   6.495  17.911  0.00  0.00    +0.000 A 
ATOM      6  C   UNL     1       8.221   6.637  19.024  0.00  0.00    +0.000 A 
ATOM      7  C   UNL     1       8.796   7.879  19.322  0.00  0.00    +0.000 A 
ATOM      8  C   UNL     1       8.575   9.011  18.513  0.00  0.00    +0.000 A 
ATOM      9  C   UNL     1       7.758   8.834  17.381  0.00  0.00    +0.000 A 
ATOM     10  C   UNL     1       7.174   7.596  17.079  0.00  0.00    +0.000 A 
BRANCH   8  11
ATOM     11  C   UNL     1       9.170  10.329  18.845  0.00  0.00    +0.000 A 
ATOM     12  C   UNL     1       9.407  11.298  17.853  0.00  0.00    +0.000 A 
ATOM     13  C   UNL     1      10.008  12.526  18.155  0.00  0.00    +0.000 A 
ATOM     14  C   UNL     1      10.370  12.821  19.464  0.00  0.00    +0.000 A 
ATOM     15  C   UNL     1      10.129  11.893  20.471  0.00  0.00    +0.000 A 
ATOM     16  C   UNL     1       9.541  10.661  20.163  0.00  0.00    +0.000 A 
ENDBRANCH   8  11
ENDBRANCH   2   5
BRANCH   1  18
ATOM     17  C   UNL     1       4.022   3.844  16.862  0.00  0.00    +0.000 C 
ATOM     18  N   UNL     1       5.171   4.021  16.281  0.00  0.00    +0.000 NA
BRANCH  17  21
ATOM     19  C   UNL     1       2.465   4.682  20.238  0.00  0.00    +0.000 A 
ATOM     20  C   UNL     1       3.069   3.965  19.198  0.00  0.00    +0.000 A 
ATOM     21  C   UNL     1       3.399   4.583  17.986  0.00  0.00    +0.000 A 
ATOM     22  C   UNL     1       3.066   5.922  17.783  0.00  0.00    +0.000 A 
ATOM     23  C   UNL     1       2.441   6.637  18.807  0.00  0.00    +0.000 A 
ATOM     24 BR   UNL     1       2.001   8.458  18.499  0.00  0.00    +0.000 Br
ATOM     25  C   UNL     1       2.150   6.030  20.039  0.00  0.00    +0.000 A 
BRANCH  19  27
ATOM     26  C   UNL     1       1.387   2.847  21.321  0.00  0.00    +0.000 C 
ATOM     27  O   UNL     1       2.298   3.936  21.373  0.00  0.00    +0.000 OA
ENDBRANCH  19  27
BRANCH  25  28
ATOM     28  O   UNL     1       1.572   6.766  21.038  0.00  0.00    +0.000 OA
ATOM     29  H   UNL     1       0.918   7.367  20.634  0.00  0.00    +0.000 HD
ENDBRANCH  25  28
ENDBRANCH  17  21
ENDBRANCH   1  18
TORSDOF 6
ENDMDL
MODEL 4
REMARK VINA RESULT:      -8.1      0.481      1.386
REMARK  Name = 
REMARK  7 active torsions:
REMARK  status: ('A' for Active; 'I' for Inactive)
REMARK    1  A    between atoms: C_1  and  O_2
REMARK    2  A    between atoms: O_2  and  C_3
REMARK    3  A    between atoms: C_5  and  C_6
REMARK    4  A    between atoms: N_7  and  N_8
REMARK    5  A    between atoms: C_9  and  C_11
REMARK    6  A    between atoms: C_14  and  C_15
REMARK    7  A    between atoms: C_26  and  O_27
REMARK                            x       y       z     vdW  Elec       q    Type
REMARK                         _______ _______ _______ _____ _____    ______ ____
ROOT
ATOM      1  N   UNL     1       2.584   4.844  18.696  0.00  0.00    +0.000 N 
ATOM      2  C   UNL     1       2.451   5.612  19.843  0.00  0.00    +0.000 C 
ATOM      3  O   UNL     1       2.569   5.208  20.992  0.00  0.00    +0.000 OA
ATOM      4  H   UNL     1       2.414   5.241  17.781  0.00  0.00    +0.000 HD
ENDROOT
BRANCH   2   5
ATOM      5  C   UNL     1       2.037   7.029  19.596  0.00  0.00    +0.000 A 
ATOM      6  C   UNL     1       2.328   7.603  18.357  0.00  0.00    +0.000 A 
ATOM      7  C   UNL     1       2.016   8.945  18.109  0.00  0.00    +0.000 A 
ATOM      8  C   UNL     1       1.389   9.751  19.079  0.00  0.00    +0.000 A 
ATOM      9  C   UNL     1       1.076   9.141  20.308  0.00  0.00    +0.000 A 
ATOM     10  C   UNL     1       1.391   7.800  20.566  0.00  0.00    +0.000 A 
BRANCH   8  11
ATOM     11  C   UNL     1       1.078  11.178  18.818  0.00  0.00    +0.000 A 
ATOM     12  C   UNL     1       2.090  12.103  18.500  0.00  0.00    +0.000 A 
ATOM     13  C   UNL     1       1.808  13.458  18.294  0.00  0.00    +0.000 A 
ATOM     14  C   UNL     1       0.500  13.919  18.384  0.00  0.00    +0.000 A 
ATOM     15  C   UNL     1      -0.526  13.026  18.674  0.00  0.00    +0.000 A 
ATOM     16  C   UNL     1      -0.238  11.674  18.893  0.00  0.00    +0.000 A 
ENDBRANCH   8  11
ENDBRANCH   2   5
BRANCH   1  18
ATOM     17  C   UNL     1       4.007   3.091  18.301  0.00  0.00    +0.000 C 
ATOM     18  N   UNL     1       2.873   3.519  18.774  0.00  0.00    +0.000 NA
BRANCH  17  21
ATOM     19  C   UNL     1       6.834   5.405  17.216  0.00  0.00    +0.000 A 
ATOM     20  C   UNL     1       5.896   4.743  18.018  0.00  0.00    +0.000 A 
ATOM     21  C   UNL     1       5.021   3.793  17.479  0.00  0.00    +0.000 A 
ATOM     22  C   UNL     1       5.037   3.542  16.107  0.00  0.00    +0.000 A 
ATOM     23  C   UNL     1       5.953   4.217  15.296  0.00  0.00    +0.000 A 
ATOM     24 BR   UNL     1       5.949   3.853  13.433  0.00  0.00    +0.000 Br
ATOM     25  C   UNL     1       6.861   5.137  15.843  0.00  0.00    +0.000 A 
BRANCH  19  27
ATOM     26  C   UNL     1       7.619   7.620  17.637  0.00  0.00    +0.000 C 
ATOM     27  O   UNL     1       7.659   6.230  17.930  0.00  0.00    +0.000 OA
ENDBRANCH  19  27
BRANCH  25  28
ATOM     28  O   UNL     1       7.773   5.754  15.030  0.00  0.00    +0.000 OA
ATOM     29  H   UNL     1       7.712   6.716  15.179  0.00  0.00    +0.000 HD
ENDBRANCH  25  28
ENDBRANCH  17  21
ENDBRANCH   1  18
TORSDOF 6
ENDMDL
MODEL 5
REMARK VINA RESULT:      -8.1      0.642      1.125
REMARK  Name = 
REMARK  7 active torsions:
REMARK  status: ('A' for Active; 'I' for Inactive)
REMARK    1  A    between atoms: C_1  and  O_2
REMARK    2  A    between atoms: O_2  and  C_3
REMARK    3  A    between atoms: C_5  and  C_6
REMARK    4  A    between atoms: N_7  and  N_8
REMARK    5  A    between atoms: C_9  and  C_11
REMARK    6  A    between atoms: C_14  and  C_15
REMARK    7  A    between atoms: C_26  and  O_27
REMARK                            x       y       z     vdW  Elec       q    Type
REMARK                         _______ _______ _______ _____ _____    ______ ____
ROOT
ATOM      1  N   UNL     1       2.304   4.794  18.436  0.00  0.00    +0.000 N 
ATOM      2  C   UNL     1       2.534   5.597  19.544  0.00  0.00    +0.000 C 
ATOM      3  O   UNL     1       2.981   5.220  20.619  0.00  0.00    +0.000 OA
ATOM      4  H   UNL     1       1.876   5.172  17.600  0.00  0.00    +0.000 HD
ENDROOT
BRANCH   2   5
ATOM      5  C   UNL     1       2.093   7.017  19.383  0.00  0.00    +0.000 A 
ATOM      6  C   UNL     1       2.312   7.649  18.157  0.00  0.00    +0.000 A 
ATOM      7  C   UNL     1       1.973   8.998  17.986  0.00  0.00    +0.000 A 
ATOM      8  C   UNL     1       1.391   9.752  19.024  0.00  0.00    +0.000 A 
ATOM      9  C   UNL     1       1.151   9.084  20.239  0.00  0.00    +0.000 A 
ATOM     10  C   UNL     1       1.493   7.737  20.420  0.00  0.00    +0.000 A 
BRANCH   8  11
ATOM     11  C   UNL     1       1.053  11.185  18.843  0.00  0.00    +0.000 A 
ATOM     12  C   UNL     1      -0.274  11.644  18.937  0.00  0.00    +0.000 A 
ATOM     13  C   UNL     1      -0.603  12.988  18.726  0.00  0.00    +0.000 A 
ATOM     14  C   UNL     1       0.393  13.911  18.432  0.00  0.00    +0.000 A 
ATOM     15  C   UNL     1       1.717  13.493  18.354  0.00  0.00    +0.000 A 
ATOM     16  C   UNL     1       2.041  12.146  18.553  0.00  0.00    +0.000 A 
ENDBRANCH   8  11
ENDBRANCH   2   5
BRANCH   1  18
ATOM     17  C   UNL     1       3.736   3.047  18.056  0.00  0.00    +0.000 C 
ATOM     18  N   UNL     1       2.576   3.464  18.470  0.00  0.00    +0.000 NA
BRANCH  17  21
ATOM     19  C   UNL     1       6.604   5.428  17.262  0.00  0.00    +0.000 A 
ATOM     20  C   UNL     1       5.608   4.740  17.966  0.00  0.00    +0.000 A 
ATOM     21  C   UNL     1       4.810   3.775  17.340  0.00  0.00    +0.000 A 
ATOM     22  C   UNL     1       4.966   3.534  15.975  0.00  0.00    +0.000 A 
ATOM     23  C   UNL     1       5.941   4.234  15.260  0.00  0.00    +0.000 A 
ATOM     24 BR   UNL     1       6.127   3.882  13.404  0.00  0.00    +0.000 Br
ATOM     25  C   UNL     1       6.771   5.170  15.897  0.00  0.00    +0.000 A 
BRANCH  19  27
ATOM     26  C   UNL     1       7.858   5.738  19.270  0.00  0.00    +0.000 C 
ATOM     27  O   UNL     1       7.338   6.265  18.057  0.00  0.00    +0.000 OA
ENDBRANCH  19  27
BRANCH  25  28
ATOM     28  O   UNL     1       7.744   5.812  15.180  0.00  0.00    +0.000 OA
ATOM     29  H   UNL     1       7.314   6.483  14.617  0.00  0.00    +0.000 HD
ENDBRANCH  25  28
ENDBRANCH  17  21
ENDBRANCH   1  18
TORSDOF 6
ENDMDL
MODEL 6
REMARK VINA RESULT:      -8.0      3.442      6.643
REMARK  Name = 
REMARK  7 active torsions:
REMARK  status: ('A' for Active; 'I' for Inactive)
REMARK    1  A    between atoms: C_1  and  O_2
REMARK    2  A    between atoms: O_2  and  C_3
REMARK    3  A    between atoms: C_5  and  C_6
REMARK    4  A    between atoms: N_7  and  N_8
REMARK    5  A    between atoms: C_9  and  C_11
REMARK    6  A    between atoms: C_14  and  C_15
REMARK    7  A    between atoms: C_26  and  O_27
REMARK                            x       y       z     vdW  Elec       q    Type
REMARK                         _______ _______ _______ _____ _____    ______ ____
ROOT
ATOM      1  N   UNL     1       5.827   5.163  16.405  0.00  0.00    +0.000 N 
ATOM      2  C   UNL     1       6.727   5.146  17.461  0.00  0.00    +0.000 C 
ATOM      3  O   UNL     1       6.976   4.183  18.173  0.00  0.00    +0.000 OA
ATOM      4  H   UNL     1       5.634   6.018  15.900  0.00  0.00    +0.000 HD
ENDROOT
BRANCH   2   5
ATOM      5  C   UNL     1       7.348   6.472  17.767  0.00  0.00    +0.000 A 
ATOM      6  C   UNL     1       8.171   6.580  18.890  0.00  0.00    +0.000 A 
ATOM      7  C   UNL     1       8.720   7.818  19.247  0.00  0.00    +0.000 A 
ATOM      8  C   UNL     1       8.481   8.981  18.489  0.00  0.00    +0.000 A 
ATOM      9  C   UNL     1       7.676   8.840  17.344  0.00  0.00    +0.000 A 
ATOM     10  C   UNL     1       7.117   7.606  16.983  0.00  0.00    +0.000 A 
BRANCH   8  11
ATOM     11  C   UNL     1       9.049  10.294  18.884  0.00  0.00    +0.000 A 
ATOM     12  C   UNL     1       9.092  11.376  17.985  0.00  0.00    +0.000 A 
ATOM     13  C   UNL     1       9.665  12.602  18.340  0.00  0.00    +0.000 A 
ATOM     14  C   UNL     1      10.194  12.782  19.612  0.00  0.00    +0.000 A 
ATOM     15  C   UNL     1      10.147  11.739  20.531  0.00  0.00    +0.000 A 
ATOM     16  C   UNL     1       9.586  10.510  20.169  0.00  0.00    +0.000 A 
ENDBRANCH   8  11
ENDBRANCH   2   5
BRANCH   1  18
ATOM     17  C   UNL     1       3.992   3.814  16.664  0.00  0.00    +0.000 C 
ATOM     18  N   UNL     1       5.124   4.049  16.070  0.00  0.00    +0.000 NA
BRANCH  17  21
ATOM     19  C   UNL     1       2.624   6.465  19.037  0.00  0.00    +0.000 A 
ATOM     20  C   UNL     1       3.190   5.862  17.907  0.00  0.00    +0.000 A 
ATOM     21  C   UNL     1       3.378   4.477  17.840  0.00  0.00    +0.000 A 
ATOM     22  C   UNL     1       3.054   3.684  18.941  0.00  0.00    +0.000 A 
ATOM     23  C   UNL     1       2.512   4.281  20.081  0.00  0.00    +0.000 A 
ATOM     24 BR   UNL     1       2.081   3.175  21.562  0.00  0.00    +0.000 Br
ATOM     25  C   UNL     1       2.282   5.665  20.132  0.00  0.00    +0.000 A 
BRANCH  19  27
ATOM     26  C   UNL     1       2.535   8.350  17.574  0.00  0.00    +0.000 C 
ATOM     27  O   UNL     1       2.438   7.812  18.886  0.00  0.00    +0.000 OA
ENDBRANCH  19  27
BRANCH  25  28
ATOM     28  O   UNL     1       1.713   6.217  21.248  0.00  0.00    +0.000 OA
ATOM     29  H   UNL     1       2.065   5.753  22.030  0.00  0.00    +0.000 HD
ENDBRANCH  25  28
ENDBRANCH  17  21
ENDBRANCH   1  18
TORSDOF 6
ENDMDL
MODEL 7
REMARK VINA RESULT:      -8.0      1.341      2.141
REMARK  Name = 
REMARK  7 active torsions:
REMARK  status: ('A' for Active; 'I' for Inactive)
REMARK    1  A    between atoms: C_1  and  O_2
REMARK    2  A    between atoms: O_2  and  C_3
REMARK    3  A    between atoms: C_5  and  C_6
REMARK    4  A    between atoms: N_7  and  N_8
REMARK    5  A    between atoms: C_9  and  C_11
REMARK    6  A    between atoms: C_14  and  C_15
REMARK    7  A    between atoms: C_26  and  O_27
REMARK                            x       y       z     vdW  Elec       q    Type
REMARK                         _______ _______ _______ _____ _____    ______ ____
ROOT
ATOM      1  N   UNL     1       2.478   4.866  18.250  0.00  0.00    +0.000 N 
ATOM      2  C   UNL     1       2.555   5.603  19.423  0.00  0.00    +0.000 C 
ATOM      3  O   UNL     1       2.818   5.157  20.532  0.00  0.00    +0.000 OA
ATOM      4  H   UNL     1       2.198   5.300  17.381  0.00  0.00    +0.000 HD
ENDROOT
BRANCH   2   5
ATOM      5  C   UNL     1       2.188   7.045  19.274  0.00  0.00    +0.000 A 
ATOM      6  C   UNL     1       1.591   7.697  20.356  0.00  0.00    +0.000 A 
ATOM      7  C   UNL     1       1.173   9.028  20.236  0.00  0.00    +0.000 A 
ATOM      8  C   UNL     1       1.352   9.756  19.043  0.00  0.00    +0.000 A 
ATOM      9  C   UNL     1       1.984   9.087  17.979  0.00  0.00    +0.000 A 
ATOM     10  C   UNL     1       2.400   7.753  18.089  0.00  0.00    +0.000 A 
BRANCH   8  11
ATOM     11  C   UNL     1       0.888  11.160  18.915  0.00  0.00    +0.000 A 
ATOM     12  C   UNL     1      -0.461  11.508  19.113  0.00  0.00    +0.000 A 
ATOM     13  C   UNL     1      -0.911  12.824  18.953  0.00  0.00    +0.000 A 
ATOM     14  C   UNL     1      -0.015  13.829  18.607  0.00  0.00    +0.000 A 
ATOM     15  C   UNL     1       1.329  13.520  18.426  0.00  0.00    +0.000 A 
ATOM     16  C   UNL     1       1.773  12.202  18.574  0.00  0.00    +0.000 A 
ENDBRANCH   8  11
ENDBRANCH   2   5
BRANCH   1  18
ATOM     17  C   UNL     1       3.807   3.070  17.740  0.00  0.00    +0.000 C 
ATOM     18  N   UNL     1       2.702   3.526  18.253  0.00  0.00    +0.000 NA
BRANCH  17  21
ATOM     19  C   UNL     1       6.186   4.023  14.919  0.00  0.00    +0.000 A 
ATOM     20  C   UNL     1       5.189   3.360  15.646  0.00  0.00    +0.000 A 
ATOM     21  C   UNL     1       4.843   3.766  16.940  0.00  0.00    +0.000 A 
ATOM     22  C   UNL     1       5.543   4.810  17.544  0.00  0.00    +0.000 A 
ATOM     23  C   UNL     1       6.555   5.460  16.834  0.00  0.00    +0.000 A 
ATOM     24 BR   UNL     1       7.488   6.878  17.686  0.00  0.00    +0.000 Br
ATOM     25  C   UNL     1       6.873   5.083  15.520  0.00  0.00    +0.000 A 
BRANCH  19  27
ATOM     26  C   UNL     1       5.207   3.651  12.773  0.00  0.00    +0.000 C 
ATOM     27  O   UNL     1       6.324   3.544  13.645  0.00  0.00    +0.000 OA
ENDBRANCH  19  27
BRANCH  25  28
ATOM     28  O   UNL     1       7.842   5.764  14.835  0.00  0.00    +0.000 OA
ATOM     29  H   UNL     1       7.582   6.703  14.793  0.00  0.00    +0.000 HD
ENDBRANCH  25  28
ENDBRANCH  17  21
ENDBRANCH   1  18
TORSDOF 6
ENDMDL
MODEL 8
REMARK VINA RESULT:      -8.0      3.491      6.784
REMARK  Name = 
REMARK  7 active torsions:
REMARK  status: ('A' for Active; 'I' for Inactive)
REMARK    1  A    between atoms: C_1  and  O_2
REMARK    2  A    between atoms: O_2  and  C_3
REMARK    3  A    between atoms: C_5  and  C_6
REMARK    4  A    between atoms: N_7  and  N_8
REMARK    5  A    between atoms: C_9  and  C_11
REMARK    6  A    between atoms: C_14  and  C_15
REMARK    7  A    between atoms: C_26  and  O_27
REMARK                            x       y       z     vdW  Elec       q    Type
REMARK                         _______ _______ _______ _____ _____    ______ ____
ROOT
ATOM      1  N   UNL     1       5.834   5.358  16.531  0.00  0.00    +0.000 N 
ATOM      2  C   UNL     1       6.888   5.256  17.427  0.00  0.00    +0.000 C 
ATOM      3  O   UNL     1       7.310   4.218  17.918  0.00  0.00    +0.000 OA
ATOM      4  H   UNL     1       5.506   6.261  16.214  0.00  0.00    +0.000 HD
ENDROOT
BRANCH   2   5
ATOM      5  C   UNL     1       7.459   6.568  17.864  0.00  0.00    +0.000 A 
ATOM      6  C   UNL     1       7.203   7.700  17.087  0.00  0.00    +0.000 A 
ATOM      7  C   UNL     1       7.773   8.933  17.426  0.00  0.00    +0.000 A 
ATOM      8  C   UNL     1       8.598   9.082  18.558  0.00  0.00    +0.000 A 
ATOM      9  C   UNL     1       8.815   7.934  19.342  0.00  0.00    +0.000 A 
ATOM     10  C   UNL     1       8.254   6.694  19.006  0.00  0.00    +0.000 A 
BRANCH   8  11
ATOM     11  C   UNL     1       9.215  10.387  18.901  0.00  0.00    +0.000 A 
ATOM     12  C   UNL     1       9.424  10.771  20.238  0.00  0.00    +0.000 A 
ATOM     13  C   UNL     1       9.967  12.018  20.567  0.00  0.00    +0.000 A 
ATOM     14  C   UNL     1      10.331  12.907  19.563  0.00  0.00    +0.000 A 
ATOM     15  C   UNL     1      10.157  12.548  18.230  0.00  0.00    +0.000 A 
ATOM     16  C   UNL     1       9.602  11.305  17.905  0.00  0.00    +0.000 A 
ENDBRANCH   8  11
ENDBRANCH   2   5
BRANCH   1  18
ATOM     17  C   UNL     1       4.017   3.967  16.654  0.00  0.00    +0.000 C 
ATOM     18  N   UNL     1       5.164   4.252  16.113  0.00  0.00    +0.000 NA
BRANCH  17  21
ATOM     19  C   UNL     1       2.552   6.465  19.130  0.00  0.00    +0.000 A 
ATOM     20  C   UNL     1       3.168   5.934  17.990  0.00  0.00    +0.000 A 
ATOM     21  C   UNL     1       3.351   4.555  17.840  0.00  0.00    +0.000 A 
ATOM     22  C   UNL     1       2.969   3.694  18.869  0.00  0.00    +0.000 A 
ATOM     23  C   UNL     1       2.376   4.218  20.019  0.00  0.00    +0.000 A 
ATOM     24 BR   UNL     1       1.869   3.019  21.401  0.00  0.00    +0.000 Br
ATOM     25  C   UNL     1       2.152   5.598  20.152  0.00  0.00    +0.000 A 
BRANCH  19  27
ATOM     26  C   UNL     1       2.010   8.378  17.807  0.00  0.00    +0.000 C 
ATOM     27  O   UNL     1       2.381   7.821  19.061  0.00  0.00    +0.000 OA
ENDBRANCH  19  27
BRANCH  25  28
ATOM     28  O   UNL     1       1.534   6.079  21.274  0.00  0.00    +0.000 OA
ATOM     29  H   UNL     1       0.726   5.554  21.425  0.00  0.00    +0.000 HD
ENDBRANCH  25  28
ENDBRANCH  17  21
ENDBRANCH   1  18
TORSDOF 6
ENDMDL
MODEL 9
REMARK VINA RESULT:      -8.0      1.182      1.287
REMARK  Name = 
REMARK  7 active torsions:
REMARK  status: ('A' for Active; 'I' for Inactive)
REMARK    1  A    between atoms: C_1  and  O_2
REMARK    2  A    between atoms: O_2  and  C_3
REMARK    3  A    between atoms: C_5  and  C_6
REMARK    4  A    between atoms: N_7  and  N_8
REMARK    5  A    between atoms: C_9  and  C_11
REMARK    6  A    between atoms: C_14  and  C_15
REMARK    7  A    between atoms: C_26  and  O_27
REMARK                            x       y       z     vdW  Elec       q    Type
REMARK                         _______ _______ _______ _____ _____    ______ ____
ROOT
ATOM      1  N   UNL     1       3.129   5.315  20.066  0.00  0.00    +0.000 N 
ATOM      2  C   UNL     1       2.342   5.731  19.003  0.00  0.00    +0.000 C 
ATOM      3  O   UNL     1       1.914   5.015  18.108  0.00  0.00    +0.000 OA
ATOM      4  H   UNL     1       3.492   5.981  20.736  0.00  0.00    +0.000 HD
ENDROOT
BRANCH   2   5
ATOM      5  C   UNL     1       2.103   7.207  18.948  0.00  0.00    +0.000 A 
ATOM      6  C   UNL     1       1.569   7.839  20.073  0.00  0.00    +0.000 A 
ATOM      7  C   UNL     1       1.271   9.207  20.039  0.00  0.00    +0.000 A 
ATOM      8  C   UNL     1       1.511   9.990  18.893  0.00  0.00    +0.000 A 
ATOM      9  C   UNL     1       2.079   9.337  17.784  0.00  0.00    +0.000 A 
ATOM     10  C   UNL     1       2.375   7.967  17.807  0.00  0.00    +0.000 A 
BRANCH   8  11
ATOM     11  C   UNL     1       1.174  11.435  18.857  0.00  0.00    +0.000 A 
ATOM     12  C   UNL     1      -0.115  11.896  19.184  0.00  0.00    +0.000 A 
ATOM     13  C   UNL     1      -0.449  13.253  19.111  0.00  0.00    +0.000 A 
ATOM     14  C   UNL     1       0.505  14.186  18.725  0.00  0.00    +0.000 A 
ATOM     15  C   UNL     1       1.794  13.764  18.417  0.00  0.00    +0.000 A 
ATOM     16  C   UNL     1       2.122  12.405  18.478  0.00  0.00    +0.000 A 
ENDBRANCH   8  11
ENDBRANCH   2   5
BRANCH   1  18
ATOM     17  C   UNL     1       4.573   3.599  19.594  0.00  0.00    +0.000 C 
ATOM     18  N   UNL     1       3.497   4.014  20.195  0.00  0.00    +0.000 NA
BRANCH  17  21
ATOM     19  C   UNL     1       7.123   5.909  17.955  0.00  0.00    +0.000 A 
ATOM     20  C   UNL     1       6.346   5.271  18.930  0.00  0.00    +0.000 A 
ATOM     21  C   UNL     1       5.422   4.277  18.586  0.00  0.00    +0.000 A 
ATOM     22  C   UNL     1       5.223   3.957  17.243  0.00  0.00    +0.000 A 
ATOM     23  C   UNL     1       5.977   4.607  16.263  0.00  0.00    +0.000 A 
ATOM     24 BR   UNL     1       5.683   4.148  14.444  0.00  0.00    +0.000 Br
ATOM     25  C   UNL     1       6.936   5.572  16.610  0.00  0.00    +0.000 A 
BRANCH  19  27
ATOM     26  C   UNL     1       8.007   8.126  18.014  0.00  0.00    +0.000 C 
ATOM     27  O   UNL     1       8.030   6.785  18.485  0.00  0.00    +0.000 OA
ENDBRANCH  19  27
BRANCH  25  28
ATOM     28  O   UNL     1       7.687   6.164  15.632  0.00  0.00    +0.000 OA
ATOM     29  H   UNL     1       7.342   7.065  15.487  0.00  0.00    +0.000 HD
ENDBRANCH  25  28
ENDBRANCH  17  21
ENDBRANCH   1  18
TORSDOF 6
ENDMDL
