MODEL 1
REMARK VINA RESULT:      -9.6      0.000      0.000
REMARK  Name = 
REMARK  6 active torsions:
REMARK  status: ('A' for Active; 'I' for Inactive)
REMARK    1  A    between atoms: C_1  and  C_2
REMARK    2  A    between atoms: C_2  and  C_3
REMARK    3  A    between atoms: C_8  and  N_9
REMARK    4  A    between atoms: C_15  and  C_16
REMARK    5  A    between atoms: C_15  and  C_17
REMARK    6  A    between atoms: C_22  and  C_23
REMARK                            x       y       z     vdW  Elec       q    Type
REMARK                         _______ _______ _______ _____ _____    ______ ____
ROOT
ATOM      1  C   UNL     1      -2.694  12.898  23.005  0.00  0.00    +0.000 A 
ATOM      2  C   UNL     1      -1.830  11.803  22.831  0.00  0.00    +0.000 A 
ATOM      3  C   UNL     1      -1.207  11.518  21.620  0.00  0.00    +0.000 A 
ATOM      4  C   UNL     1      -1.387  12.354  20.515  0.00  0.00    +0.000 A 
ATOM      5  C   UNL     1      -2.195  13.500  20.715  0.00  0.00    +0.000 A 
ATOM      6  C   UNL     1      -2.856  13.816  21.938  0.00  0.00    +0.000 A 
ATOM      7  C   UNL     1      -0.735  12.047  19.144  0.00  0.00    +0.000 C 
ATOM      8  C   UNL     1      -1.845  11.849  18.091  0.00  0.00    +0.000 C 
ATOM      9  C   UNL     1       0.184  13.218  18.743  0.00  0.00    +0.000 C 
ATOM     10  C   UNL     1       0.091  10.775  19.228  0.00  0.00    +0.000 A 
ATOM     11  N   UNL     1       0.818  10.190  18.215  0.00  0.00    +0.000 N 
ATOM     12  C   UNL     1       1.395   9.027  18.669  0.00  0.00    +0.000 A 
ATOM     13  N   UNL     1       2.142   8.194  17.924  0.00  0.00    +0.000 NA
ATOM     14  C   UNL     1       2.626   7.131  18.632  0.00  0.00    +0.000 A 
ATOM     15  C   UNL     1       2.362   6.875  19.978  0.00  0.00    +0.000 A 
ATOM     16  C   UNL     1       1.559   7.758  20.692  0.00  0.00    +0.000 A 
ATOM     17  C   UNL     1       1.064   8.876  20.008  0.00  0.00    +0.000 A 
ATOM     18  C   UNL     1       0.236   9.972  20.342  0.00  0.00    +0.000 A 
ATOM     19  C   UNL     1      -0.394  10.273  21.594  0.00  0.00    +0.000 C 
ATOM     20  O   UNL     1      -0.278   9.553  22.583  0.00  0.00    +0.000 OA
ATOM     21  H   UNL     1       0.922  10.530  17.270  0.00  0.00    +0.000 HD
ENDROOT
BRANCH  14  22
ATOM     22  C   UNL     1       3.427   6.096  17.891  0.00  0.00    +0.000 C 
ATOM     23  O   UNL     1       4.596   6.369  17.619  0.00  0.00    +0.000 OA
ATOM     24  N   UNL     1       2.873   4.865  17.538  0.00  0.00    +0.000 N 
ATOM     25  C   UNL     1       1.483   4.422  17.685  0.00  0.00    +0.000 C 
ATOM     26  C   UNL     1       1.427   3.208  18.617  0.00  0.00    +0.000 C 
ATOM     27  O   UNL     1       2.269   2.148  18.125  0.00  0.00    +0.000 OA
ATOM     28  C   UNL     1       3.635   2.588  18.011  0.00  0.00    +0.000 C 
ATOM     29  C   UNL     1       3.758   3.797  17.075  0.00  0.00    +0.000 C 
ENDBRANCH  14  22
BRANCH   6  30
ATOM     30  N   UNL     1      -3.596  14.988  22.019  0.00  0.00    +0.000 N 
ATOM     31  C   UNL     1      -3.137  16.188  22.739  0.00  0.00    +0.000 C 
ATOM     32  C   UNL     1      -4.217  16.641  23.734  0.00  0.00    +0.000 C 
ATOM     33  O   UNL     1      -5.451  16.923  23.055  0.00  0.00    +0.000 OA
ATOM     34  C   UNL     1      -5.933  15.743  22.399  0.00  0.00    +0.000 C 
ATOM     35  C   UNL     1      -4.919  15.155  21.401  0.00  0.00    +0.000 C 
ENDBRANCH   6  30
BRANCH   1  37
ATOM     36  C   UNL     1      -4.972  12.613  24.225  0.00  0.00    +0.000 C 
ATOM     37  C   UNL     1      -3.478  12.954  24.312  0.00  0.00    +0.000 C 
ENDBRANCH   1  37
TORSDOF 3
ENDMDL
MODEL 2
REMARK VINA RESULT:      -9.5      0.578      1.061
REMARK  Name = 
REMARK  6 active torsions:
REMARK  status: ('A' for Active; 'I' for Inactive)
REMARK    1  A    between atoms: C_1  and  C_2
REMARK    2  A    between atoms: C_2  and  C_3
REMARK    3  A    between atoms: C_8  and  N_9
REMARK    4  A    between atoms: C_15  and  C_16
REMARK    5  A    between atoms: C_15  and  C_17
REMARK    6  A    between atoms: C_22  and  C_23
REMARK                            x       y       z     vdW  Elec       q    Type
REMARK                         _______ _______ _______ _____ _____    ______ ____
ROOT
ATOM      1  C   UNL     1      -2.672  13.020  22.872  0.00  0.00    +0.000 A 
ATOM      2  C   UNL     1      -1.793  11.933  22.722  0.00  0.00    +0.000 A 
ATOM      3  C   UNL     1      -1.196  11.607  21.509  0.00  0.00    +0.000 A 
ATOM      4  C   UNL     1      -1.418  12.391  20.375  0.00  0.00    +0.000 A 
ATOM      5  C   UNL     1      -2.241  13.530  20.547  0.00  0.00    +0.000 A 
ATOM      6  C   UNL     1      -2.877  13.888  21.772  0.00  0.00    +0.000 A 
ATOM      7  C   UNL     1      -0.795  12.037  19.002  0.00  0.00    +0.000 C 
ATOM      8  C   UNL     1      -1.927  11.775  17.987  0.00  0.00    +0.000 C 
ATOM      9  C   UNL     1       0.093  13.205  18.528  0.00  0.00    +0.000 C 
ATOM     10  C   UNL     1       0.056  10.783  19.119  0.00  0.00    +0.000 A 
ATOM     11  N   UNL     1       0.768  10.168  18.114  0.00  0.00    +0.000 N 
ATOM     12  C   UNL     1       1.378   9.035  18.603  0.00  0.00    +0.000 A 
ATOM     13  N   UNL     1       2.121   8.184  17.875  0.00  0.00    +0.000 NA
ATOM     14  C   UNL     1       2.641   7.161  18.614  0.00  0.00    +0.000 A 
ATOM     15  C   UNL     1       2.415   6.959  19.977  0.00  0.00    +0.000 A 
ATOM     16  C   UNL     1       1.614   7.858  20.672  0.00  0.00    +0.000 A 
ATOM     17  C   UNL     1       1.082   8.937  19.955  0.00  0.00    +0.000 A 
ATOM     18  C   UNL     1       0.243  10.032  20.262  0.00  0.00    +0.000 A 
ATOM     19  C   UNL     1      -0.361  10.376  21.516  0.00  0.00    +0.000 C 
ATOM     20  O   UNL     1      -0.208   9.701  22.531  0.00  0.00    +0.000 OA
ATOM     21  H   UNL     1       0.843  10.469  17.153  0.00  0.00    +0.000 HD
ENDROOT
BRANCH  14  22
ATOM     22  C   UNL     1       3.442   6.109  17.898  0.00  0.00    +0.000 C 
ATOM     23  O   UNL     1       4.612   6.375  17.621  0.00  0.00    +0.000 OA
ATOM     24  N   UNL     1       2.887   4.870  17.573  0.00  0.00    +0.000 N 
ATOM     25  C   UNL     1       1.497   4.431  17.728  0.00  0.00    +0.000 C 
ATOM     26  C   UNL     1       1.440   3.239  18.688  0.00  0.00    +0.000 C 
ATOM     27  O   UNL     1       2.281   2.168  18.221  0.00  0.00    +0.000 OA
ATOM     28  C   UNL     1       3.648   2.604  18.099  0.00  0.00    +0.000 C 
ATOM     29  C   UNL     1       3.772   3.792  17.136  0.00  0.00    +0.000 C 
ENDBRANCH  14  22
BRANCH   6  30
ATOM     30  N   UNL     1      -3.637  15.050  21.821  0.00  0.00    +0.000 N 
ATOM     31  C   UNL     1      -5.043  15.117  21.389  0.00  0.00    +0.000 C 
ATOM     32  C   UNL     1      -5.220  16.259  20.376  0.00  0.00    +0.000 C 
ATOM     33  O   UNL     1      -4.826  17.515  20.950  0.00  0.00    +0.000 OA
ATOM     34  C   UNL     1      -3.442  17.475  21.322  0.00  0.00    +0.000 C 
ATOM     35  C   UNL     1      -3.118  16.337  22.305  0.00  0.00    +0.000 C 
ENDBRANCH   6  30
BRANCH   1  37
ATOM     36  C   UNL     1      -4.862  12.582  24.202  0.00  0.00    +0.000 C 
ATOM     37  C   UNL     1      -3.425  13.118  24.195  0.00  0.00    +0.000 C 
ENDBRANCH   1  37
TORSDOF 3
ENDMDL
MODEL 3
REMARK VINA RESULT:      -9.0      1.452      2.184
REMARK  Name = 
REMARK  6 active torsions:
REMARK  status: ('A' for Active; 'I' for Inactive)
REMARK    1  A    between atoms: C_1  and  C_2
REMARK    2  A    between atoms: C_2  and  C_3
REMARK    3  A    between atoms: C_8  and  N_9
REMARK    4  A    between atoms: C_15  and  C_16
REMARK    5  A    between atoms: C_15  and  C_17
REMARK    6  A    between atoms: C_22  and  C_23
REMARK                            x       y       z     vdW  Elec       q    Type
REMARK                         _______ _______ _______ _____ _____    ______ ____
ROOT
ATOM      1  C   UNL     1      -1.995  12.578  22.829  0.00  0.00    +0.000 A 
ATOM      2  C   UNL     1      -1.222  11.415  22.668  0.00  0.00    +0.000 A 
ATOM      3  C   UNL     1      -0.597  11.084  21.469  0.00  0.00    +0.000 A 
ATOM      4  C   UNL     1      -0.682  11.937  20.366  0.00  0.00    +0.000 A 
ATOM      5  C   UNL     1      -1.395  13.145  20.555  0.00  0.00    +0.000 A 
ATOM      6  C   UNL     1      -2.055  13.511  21.765  0.00  0.00    +0.000 A 
ATOM      7  C   UNL     1      -0.026  11.583  19.009  0.00  0.00    +0.000 C 
ATOM      8  C   UNL     1      -1.125  11.483  17.929  0.00  0.00    +0.000 C 
ATOM      9  C   UNL     1       0.997  12.675  18.635  0.00  0.00    +0.000 C 
ATOM     10  C   UNL     1       0.688  10.245  19.103  0.00  0.00    +0.000 A 
ATOM     11  N   UNL     1       1.387   9.607  18.103  0.00  0.00    +0.000 N 
ATOM     12  C   UNL     1       1.855   8.397  18.563  0.00  0.00    +0.000 A 
ATOM     13  N   UNL     1       2.547   7.507  17.830  0.00  0.00    +0.000 NA
ATOM     14  C   UNL     1       2.923   6.405  18.541  0.00  0.00    +0.000 A 
ATOM     15  C   UNL     1       2.608   6.166  19.879  0.00  0.00    +0.000 A 
ATOM     16  C   UNL     1       1.865   7.110  20.580  0.00  0.00    +0.000 A 
ATOM     17  C   UNL     1       1.481   8.269  19.893  0.00  0.00    +0.000 A 
ATOM     18  C   UNL     1       0.740   9.429  20.215  0.00  0.00    +0.000 A 
ATOM     19  C   UNL     1       0.109   9.776  21.454  0.00  0.00    +0.000 C 
ATOM     20  O   UNL     1       0.141   9.045  22.441  0.00  0.00    +0.000 OA
ATOM     21  H   UNL     1       1.541   9.941  17.162  0.00  0.00    +0.000 HD
ENDROOT
BRANCH  14  22
ATOM     22  C   UNL     1       3.652   5.310  17.812  0.00  0.00    +0.000 C 
ATOM     23  O   UNL     1       2.976   4.409  17.316  0.00  0.00    +0.000 OA
ATOM     24  N   UNL     1       5.042   5.321  17.688  0.00  0.00    +0.000 N 
ATOM     25  C   UNL     1       5.999   6.246  18.302  0.00  0.00    +0.000 C 
ATOM     26  C   UNL     1       6.756   7.004  17.207  0.00  0.00    +0.000 C 
ATOM     27  O   UNL     1       7.411   6.086  16.312  0.00  0.00    +0.000 OA
ATOM     28  C   UNL     1       6.457   5.201  15.695  0.00  0.00    +0.000 C 
ATOM     29  C   UNL     1       5.675   4.401  16.744  0.00  0.00    +0.000 C 
ENDBRANCH  14  22
BRANCH   6  30
ATOM     30  N   UNL     1      -2.697  14.740  21.837  0.00  0.00    +0.000 N 
ATOM     31  C   UNL     1      -2.068  15.951  22.392  0.00  0.00    +0.000 C 
ATOM     32  C   UNL     1      -2.979  16.560  23.470  0.00  0.00    +0.000 C 
ATOM     33  O   UNL     1      -4.266  16.887  22.924  0.00  0.00    +0.000 OA
ATOM     34  C   UNL     1      -4.908  15.704  22.432  0.00  0.00    +0.000 C 
ATOM     35  C   UNL     1      -4.073  14.965  21.372  0.00  0.00    +0.000 C 
ENDBRANCH   6  30
BRANCH   1  37
ATOM     36  C   UNL     1      -4.282  12.298  24.033  0.00  0.00    +0.000 C 
ATOM     37  C   UNL     1      -2.802  12.693  24.119  0.00  0.00    +0.000 C 
ENDBRANCH   1  37
TORSDOF 3
ENDMDL
MODEL 4
REMARK VINA RESULT:      -8.8      1.028      1.084
REMARK  Name = 
REMARK  6 active torsions:
REMARK  status: ('A' for Active; 'I' for Inactive)
REMARK    1  A    between atoms: C_1  and  C_2
REMARK    2  A    between atoms: C_2  and  C_3
REMARK    3  A    between atoms: C_8  and  N_9
REMARK    4  A    between atoms: C_15  and  C_16
REMARK    5  A    between atoms: C_15  and  C_17
REMARK    6  A    between atoms: C_22  and  C_23
REMARK                            x       y       z     vdW  Elec       q    Type
REMARK                         _______ _______ _______ _____ _____    ______ ____
ROOT
ATOM      1  C   UNL     1      -1.579  13.676  22.778  0.00  0.00    +0.000 A 
ATOM      2  C   UNL     1      -0.880  12.464  22.644  0.00  0.00    +0.000 A 
ATOM      3  C   UNL     1      -0.403  11.997  21.423  0.00  0.00    +0.000 A 
ATOM      4  C   UNL     1      -0.568  12.755  20.261  0.00  0.00    +0.000 A 
ATOM      5  C   UNL     1      -1.204  14.011  20.411  0.00  0.00    +0.000 A 
ATOM      6  C   UNL     1      -1.713  14.515  21.645  0.00  0.00    +0.000 A 
ATOM      7  C   UNL     1      -0.079  12.250  18.882  0.00  0.00    +0.000 C 
ATOM      8  C   UNL     1      -1.291  12.116  17.935  0.00  0.00    +0.000 C 
ATOM      9  C   UNL     1       0.945  13.249  18.306  0.00  0.00    +0.000 C 
ATOM     10  C   UNL     1       0.582  10.889  19.024  0.00  0.00    +0.000 A 
ATOM     11  N   UNL     1       1.140  10.130  18.020  0.00  0.00    +0.000 N 
ATOM     12  C   UNL     1       1.601   8.941  18.538  0.00  0.00    +0.000 A 
ATOM     13  N   UNL     1       2.170   7.956  17.822  0.00  0.00    +0.000 NA
ATOM     14  C   UNL     1       2.572   6.900  18.589  0.00  0.00    +0.000 A 
ATOM     15  C   UNL     1       2.392   6.796  19.969  0.00  0.00    +0.000 A 
ATOM     16  C   UNL     1       1.772   7.835  20.653  0.00  0.00    +0.000 A 
ATOM     17  C   UNL     1       1.367   8.949  19.906  0.00  0.00    +0.000 A 
ATOM     18  C   UNL     1       0.717  10.170  20.195  0.00  0.00    +0.000 A 
ATOM     19  C   UNL     1       0.239  10.657  21.455  0.00  0.00    +0.000 C 
ATOM     20  O   UNL     1       0.345  10.013  22.496  0.00  0.00    +0.000 OA
ATOM     21  H   UNL     1       1.206  10.373  17.042  0.00  0.00    +0.000 HD
ENDROOT
BRANCH  14  22
ATOM     22  C   UNL     1       3.169   5.709  17.892  0.00  0.00    +0.000 C 
ATOM     23  O   UNL     1       4.236   5.872  17.300  0.00  0.00    +0.000 OA
ATOM     24  N   UNL     1       2.546   4.461  17.926  0.00  0.00    +0.000 N 
ATOM     25  C   UNL     1       1.234   4.118  18.484  0.00  0.00    +0.000 C 
ATOM     26  C   UNL     1       1.408   3.104  19.619  0.00  0.00    +0.000 C 
ATOM     27  O   UNL     1       2.105   1.933  19.153  0.00  0.00    +0.000 OA
ATOM     28  C   UNL     1       3.402   2.280  18.633  0.00  0.00    +0.000 C 
ATOM     29  C   UNL     1       3.292   3.285  17.480  0.00  0.00    +0.000 C 
ENDBRANCH  14  22
BRANCH   6  30
ATOM     30  N   UNL     1      -2.288  15.779  21.669  0.00  0.00    +0.000 N 
ATOM     31  C   UNL     1      -1.618  16.963  22.234  0.00  0.00    +0.000 C 
ATOM     32  C   UNL     1      -2.540  17.639  23.260  0.00  0.00    +0.000 C 
ATOM     33  O   UNL     1      -3.783  18.026  22.653  0.00  0.00    +0.000 OA
ATOM     34  C   UNL     1      -4.467  16.871  22.151  0.00  0.00    +0.000 C 
ATOM     35  C   UNL     1      -3.628  16.069  21.140  0.00  0.00    +0.000 C 
ENDBRANCH   6  30
BRANCH   1  37
ATOM     36  C   UNL     1      -3.690  13.479  24.282  0.00  0.00    +0.000 C 
ATOM     37  C   UNL     1      -2.236  13.946  24.128  0.00  0.00    +0.000 C 
ENDBRANCH   1  37
TORSDOF 3
ENDMDL
MODEL 5
REMARK VINA RESULT:      -8.8      1.535      2.428
REMARK  Name = 
REMARK  6 active torsions:
REMARK  status: ('A' for Active; 'I' for Inactive)
REMARK    1  A    between atoms: C_1  and  C_2
REMARK    2  A    between atoms: C_2  and  C_3
REMARK    3  A    between atoms: C_8  and  N_9
REMARK    4  A    between atoms: C_15  and  C_16
REMARK    5  A    between atoms: C_15  and  C_17
REMARK    6  A    between atoms: C_22  and  C_23
REMARK                            x       y       z     vdW  Elec       q    Type
REMARK                         _______ _______ _______ _____ _____    ______ ____
ROOT
ATOM      1  C   UNL     1      -1.869  12.907  22.848  0.00  0.00    +0.000 A 
ATOM      2  C   UNL     1      -1.126  11.726  22.680  0.00  0.00    +0.000 A 
ATOM      3  C   UNL     1      -0.534  11.371  21.472  0.00  0.00    +0.000 A 
ATOM      4  C   UNL     1      -0.621  12.217  20.364  0.00  0.00    +0.000 A 
ATOM      5  C   UNL     1      -1.303  13.443  20.558  0.00  0.00    +0.000 A 
ATOM      6  C   UNL     1      -1.929  13.833  21.778  0.00  0.00    +0.000 A 
ATOM      7  C   UNL     1      -0.003  11.837  18.996  0.00  0.00    +0.000 C 
ATOM      8  C   UNL     1      -1.125  11.755  17.940  0.00  0.00    +0.000 C 
ATOM      9  C   UNL     1       1.037  12.902  18.593  0.00  0.00    +0.000 C 
ATOM     10  C   UNL     1       0.683  10.484  19.087  0.00  0.00    +0.000 A 
ATOM     11  N   UNL     1       1.346   9.821  18.078  0.00  0.00    +0.000 N 
ATOM     12  C   UNL     1       1.795   8.605  18.538  0.00  0.00    +0.000 A 
ATOM     13  N   UNL     1       2.450   7.694  17.799  0.00  0.00    +0.000 NA
ATOM     14  C   UNL     1       2.816   6.588  18.511  0.00  0.00    +0.000 A 
ATOM     15  C   UNL     1       2.523   6.367  19.857  0.00  0.00    +0.000 A 
ATOM     16  C   UNL     1       1.817   7.333  20.566  0.00  0.00    +0.000 A 
ATOM     17  C   UNL     1       1.445   8.496  19.877  0.00  0.00    +0.000 A 
ATOM     18  C   UNL     1       0.739   9.675  20.204  0.00  0.00    +0.000 A 
ATOM     19  C   UNL     1       0.141  10.046  21.453  0.00  0.00    +0.000 C 
ATOM     20  O   UNL     1       0.177   9.322  22.445  0.00  0.00    +0.000 OA
ATOM     21  H   UNL     1       1.488  10.145  17.132  0.00  0.00    +0.000 HD
ENDROOT
BRANCH  14  22
ATOM     22  C   UNL     1       3.504   5.471  17.776  0.00  0.00    +0.000 C 
ATOM     23  O   UNL     1       2.795   4.599  17.274  0.00  0.00    +0.000 OA
ATOM     24  N   UNL     1       4.894   5.431  17.653  0.00  0.00    +0.000 N 
ATOM     25  C   UNL     1       5.884   6.316  18.274  0.00  0.00    +0.000 C 
ATOM     26  C   UNL     1       6.670   7.051  17.184  0.00  0.00    +0.000 C 
ATOM     27  O   UNL     1       7.291   6.114  16.284  0.00  0.00    +0.000 OA
ATOM     28  C   UNL     1       6.306   5.269  15.660  0.00  0.00    +0.000 C 
ATOM     29  C   UNL     1       5.493   4.493  16.705  0.00  0.00    +0.000 C 
ENDBRANCH  14  22
BRANCH   6  30
ATOM     30  N   UNL     1      -2.541  15.078  21.853  0.00  0.00    +0.000 N 
ATOM     31  C   UNL     1      -3.944  15.315  21.472  0.00  0.00    +0.000 C 
ATOM     32  C   UNL     1      -4.018  16.472  20.463  0.00  0.00    +0.000 C 
ATOM     33  O   UNL     1      -3.455  17.671  21.020  0.00  0.00    +0.000 OA
ATOM     34  C   UNL     1      -2.073  17.463  21.341  0.00  0.00    +0.000 C 
ATOM     35  C   UNL     1      -1.853  16.292  22.314  0.00  0.00    +0.000 C 
ENDBRANCH   6  30
BRANCH   1  37
ATOM     36  C   UNL     1      -4.106  12.582  24.130  0.00  0.00    +0.000 C 
ATOM     37  C   UNL     1      -2.645  13.051  24.153  0.00  0.00    +0.000 C 
ENDBRANCH   1  37
TORSDOF 3
ENDMDL
MODEL 6
REMARK VINA RESULT:      -8.6      1.593      2.340
REMARK  Name = 
REMARK  6 active torsions:
REMARK  status: ('A' for Active; 'I' for Inactive)
REMARK    1  A    between atoms: C_1  and  C_2
REMARK    2  A    between atoms: C_2  and  C_3
REMARK    3  A    between atoms: C_8  and  N_9
REMARK    4  A    between atoms: C_15  and  C_16
REMARK    5  A    between atoms: C_15  and  C_17
REMARK    6  A    between atoms: C_22  and  C_23
REMARK                            x       y       z     vdW  Elec       q    Type
REMARK                         _______ _______ _______ _____ _____    ______ ____
ROOT
ATOM      1  C   UNL     1      -1.532  13.905  22.777  0.00  0.00    +0.000 A 
ATOM      2  C   UNL     1      -0.902  12.654  22.660  0.00  0.00    +0.000 A 
ATOM      3  C   UNL     1      -0.411  12.166  21.453  0.00  0.00    +0.000 A 
ATOM      4  C   UNL     1      -0.488  12.937  20.292  0.00  0.00    +0.000 A 
ATOM      5  C   UNL     1      -1.052  14.229  20.428  0.00  0.00    +0.000 A 
ATOM      6  C   UNL     1      -1.574  14.756  21.646  0.00  0.00    +0.000 A 
ATOM      7  C   UNL     1       0.019  12.411  18.926  0.00  0.00    +0.000 C 
ATOM      8  C   UNL     1      -1.164  12.355  17.936  0.00  0.00    +0.000 C 
ATOM      9  C   UNL     1       1.120  13.350  18.395  0.00  0.00    +0.000 C 
ATOM     10  C   UNL     1       0.592  11.013  19.082  0.00  0.00    +0.000 A 
ATOM     11  N   UNL     1       1.139  10.226  18.093  0.00  0.00    +0.000 N 
ATOM     12  C   UNL     1       1.509   9.010  18.618  0.00  0.00    +0.000 A 
ATOM     13  N   UNL     1       2.044   7.995  17.916  0.00  0.00    +0.000 NA
ATOM     14  C   UNL     1       2.354   6.914  18.689  0.00  0.00    +0.000 A 
ATOM     15  C   UNL     1       2.119   6.813  20.061  0.00  0.00    +0.000 A 
ATOM     16  C   UNL     1       1.538   7.884  20.730  0.00  0.00    +0.000 A 
ATOM     17  C   UNL     1       1.228   9.024  19.977  0.00  0.00    +0.000 A 
ATOM     18  C   UNL     1       0.642  10.281  20.252  0.00  0.00    +0.000 A 
ATOM     19  C   UNL     1       0.149  10.789  21.498  0.00  0.00    +0.000 C 
ATOM     20  O   UNL     1       0.179  10.134  22.537  0.00  0.00    +0.000 OA
ATOM     21  H   UNL     1       1.255  10.470  17.120  0.00  0.00    +0.000 HD
ENDROOT
BRANCH  14  22
ATOM     22  C   UNL     1       2.904   5.693  18.005  0.00  0.00    +0.000 C 
ATOM     23  O   UNL     1       2.101   4.827  17.656  0.00  0.00    +0.000 OA
ATOM     24  N   UNL     1       4.270   5.551  17.760  0.00  0.00    +0.000 N 
ATOM     25  C   UNL     1       5.365   6.423  18.199  0.00  0.00    +0.000 C 
ATOM     26  C   UNL     1       6.081   7.003  16.975  0.00  0.00    +0.000 C 
ATOM     27  O   UNL     1       6.558   5.951  16.116  0.00  0.00    +0.000 OA
ATOM     28  C   UNL     1       5.470   5.119  15.670  0.00  0.00    +0.000 C 
ATOM     29  C   UNL     1       4.721   4.495  16.855  0.00  0.00    +0.000 C 
ENDBRANCH  14  22
BRANCH   6  30
ATOM     30  N   UNL     1      -2.074  16.052  21.659  0.00  0.00    +0.000 N 
ATOM     31  C   UNL     1      -1.226  17.245  21.830  0.00  0.00    +0.000 C 
ATOM     32  C   UNL     1      -1.775  18.110  22.975  0.00  0.00    +0.000 C 
ATOM     33  O   UNL     1      -3.129  18.509  22.710  0.00  0.00    +0.000 OA
ATOM     34  C   UNL     1      -3.970  17.353  22.599  0.00  0.00    +0.000 C 
ATOM     35  C   UNL     1      -3.500  16.372  21.510  0.00  0.00    +0.000 C 
ENDBRANCH   6  30
BRANCH   1  37
ATOM     36  C   UNL     1      -1.489  15.175  25.045  0.00  0.00    +0.000 C 
ATOM     37  C   UNL     1      -2.220  14.206  24.105  0.00  0.00    +0.000 C 
ENDBRANCH   1  37
TORSDOF 3
ENDMDL
MODEL 7
REMARK VINA RESULT:      -8.4      1.383      1.748
REMARK  Name = 
REMARK  6 active torsions:
REMARK  status: ('A' for Active; 'I' for Inactive)
REMARK    1  A    between atoms: C_1  and  C_2
REMARK    2  A    between atoms: C_2  and  C_3
REMARK    3  A    between atoms: C_8  and  N_9
REMARK    4  A    between atoms: C_15  and  C_16
REMARK    5  A    between atoms: C_15  and  C_17
REMARK    6  A    between atoms: C_22  and  C_23
REMARK                            x       y       z     vdW  Elec       q    Type
REMARK                         _______ _______ _______ _____ _____    ______ ____
ROOT
ATOM      1  C   UNL     1      -1.788  13.925  22.746  0.00  0.00    +0.000 A 
ATOM      2  C   UNL     1      -1.083  12.713  22.645  0.00  0.00    +0.000 A 
ATOM      3  C   UNL     1      -0.583  12.228  21.440  0.00  0.00    +0.000 A 
ATOM      4  C   UNL     1      -0.729  12.966  20.263  0.00  0.00    +0.000 A 
ATOM      5  C   UNL     1      -1.371  14.223  20.381  0.00  0.00    +0.000 A 
ATOM      6  C   UNL     1      -1.903  14.745  21.597  0.00  0.00    +0.000 A 
ATOM      7  C   UNL     1      -0.214  12.441  18.901  0.00  0.00    +0.000 C 
ATOM      8  C   UNL     1      -1.408  12.288  17.935  0.00  0.00    +0.000 C 
ATOM      9  C   UNL     1       0.817  13.433  18.327  0.00  0.00    +0.000 C 
ATOM     10  C   UNL     1       0.448  11.085  19.076  0.00  0.00    +0.000 A 
ATOM     11  N   UNL     1       1.026  10.311  18.095  0.00  0.00    +0.000 N 
ATOM     12  C   UNL     1       1.481   9.132  18.641  0.00  0.00    +0.000 A 
ATOM     13  N   UNL     1       2.065   8.137  17.951  0.00  0.00    +0.000 NA
ATOM     14  C   UNL     1       2.457   7.095  18.742  0.00  0.00    +0.000 A 
ATOM     15  C   UNL     1       2.252   7.012  20.120  0.00  0.00    +0.000 A 
ATOM     16  C   UNL     1       1.617   8.061  20.776  0.00  0.00    +0.000 A 
ATOM     17  C   UNL     1       1.223   9.161  20.003  0.00  0.00    +0.000 A 
ATOM     18  C   UNL     1       0.564  10.385  20.261  0.00  0.00    +0.000 A 
ATOM     19  C   UNL     1       0.062  10.890  21.505  0.00  0.00    +0.000 C 
ATOM     20  O   UNL     1       0.152  10.264  22.558  0.00  0.00    +0.000 OA
ATOM     21  H   UNL     1       1.109  10.538  17.114  0.00  0.00    +0.000 HD
ENDROOT
BRANCH  14  22
ATOM     22  C   UNL     1       3.069   5.895  18.075  0.00  0.00    +0.000 C 
ATOM     23  O   UNL     1       4.081   6.075  17.397  0.00  0.00    +0.000 OA
ATOM     24  N   UNL     1       2.522   4.620  18.230  0.00  0.00    +0.000 N 
ATOM     25  C   UNL     1       1.274   4.246  18.903  0.00  0.00    +0.000 C 
ATOM     26  C   UNL     1       1.585   3.317  20.080  0.00  0.00    +0.000 C 
ATOM     27  O   UNL     1       2.313   2.156  19.635  0.00  0.00    +0.000 OA
ATOM     28  C   UNL     1       3.548   2.536  19.001  0.00  0.00    +0.000 C 
ATOM     29  C   UNL     1       3.300   3.459  17.801  0.00  0.00    +0.000 C 
ENDBRANCH  14  22
BRANCH   6  30
ATOM     30  N   UNL     1      -2.483  16.007  21.590  0.00  0.00    +0.000 N 
ATOM     31  C   UNL     1      -3.929  16.233  21.429  0.00  0.00    +0.000 C 
ATOM     32  C   UNL     1      -4.173  17.234  20.288  0.00  0.00    +0.000 C 
ATOM     33  O   UNL     1      -3.511  18.481  20.552  0.00  0.00    +0.000 OA
ATOM     34  C   UNL     1      -2.096  18.276  20.654  0.00  0.00    +0.000 C 
ATOM     35  C   UNL     1      -1.715  17.252  21.738  0.00  0.00    +0.000 C 
ENDBRANCH   6  30
BRANCH   1  37
ATOM     36  C   UNL     1      -1.696  15.107  25.059  0.00  0.00    +0.000 C 
ATOM     37  C   UNL     1      -2.470  14.214  24.079  0.00  0.00    +0.000 C 
ENDBRANCH   1  37
TORSDOF 3
ENDMDL
MODEL 8
REMARK VINA RESULT:      -8.2      2.184      3.814
REMARK  Name = 
REMARK  6 active torsions:
REMARK  status: ('A' for Active; 'I' for Inactive)
REMARK    1  A    between atoms: C_1  and  C_2
REMARK    2  A    between atoms: C_2  and  C_3
REMARK    3  A    between atoms: C_8  and  N_9
REMARK    4  A    between atoms: C_15  and  C_16
REMARK    5  A    between atoms: C_15  and  C_17
REMARK    6  A    between atoms: C_22  and  C_23
REMARK                            x       y       z     vdW  Elec       q    Type
REMARK                         _______ _______ _______ _____ _____    ______ ____
ROOT
ATOM      1  C   UNL     1      -0.883  13.558  21.222  0.00  0.00    +0.000 A 
ATOM      2  C   UNL     1      -0.260  12.719  20.281  0.00  0.00    +0.000 A 
ATOM      3  C   UNL     1       0.123  11.413  20.571  0.00  0.00    +0.000 A 
ATOM      4  C   UNL     1      -0.142  10.858  21.825  0.00  0.00    +0.000 A 
ATOM      5  C   UNL     1      -0.840  11.679  22.745  0.00  0.00    +0.000 A 
ATOM      6  C   UNL     1      -1.237  13.023  22.484  0.00  0.00    +0.000 A 
ATOM      7  C   UNL     1       0.300   9.420  22.192  0.00  0.00    +0.000 C 
ATOM      8  C   UNL     1       1.281   9.481  23.381  0.00  0.00    +0.000 C 
ATOM      9  C   UNL     1      -0.942   8.583  22.561  0.00  0.00    +0.000 C 
ATOM     10  C   UNL     1       1.003   8.770  21.012  0.00  0.00    +0.000 A 
ATOM     11  N   UNL     1       1.529   7.499  20.959  0.00  0.00    +0.000 N 
ATOM     12  C   UNL     1       2.121   7.292  19.734  0.00  0.00    +0.000 A 
ATOM     13  N   UNL     1       2.761   6.168  19.365  0.00  0.00    +0.000 NA
ATOM     14  C   UNL     1       3.223   6.212  18.081  0.00  0.00    +0.000 A 
ATOM     15  C   UNL     1       3.103   7.304  17.221  0.00  0.00    +0.000 A 
ATOM     16  C   UNL     1       2.454   8.451  17.667  0.00  0.00    +0.000 A 
ATOM     17  C   UNL     1       1.942   8.437  18.971  0.00  0.00    +0.000 A 
ATOM     18  C   UNL     1       1.251   9.360  19.789  0.00  0.00    +0.000 A 
ATOM     19  C   UNL     1       0.844  10.700  19.484  0.00  0.00    +0.000 C 
ATOM     20  O   UNL     1       1.076  11.232  18.402  0.00  0.00    +0.000 OA
ATOM     21  H   UNL     1       1.513   6.804  21.692  0.00  0.00    +0.000 HD
ENDROOT
BRANCH  14  22
ATOM     22  C   UNL     1       4.009   5.035  17.574  0.00  0.00    +0.000 C 
ATOM     23  O   UNL     1       3.384   4.011  17.294  0.00  0.00    +0.000 OA
ATOM     24  N   UNL     1       5.393   5.102  17.411  0.00  0.00    +0.000 N 
ATOM     25  C   UNL     1       6.298   6.191  17.793  0.00  0.00    +0.000 C 
ATOM     26  C   UNL     1       6.988   6.747  16.543  0.00  0.00    +0.000 C 
ATOM     27  O   UNL     1       7.687   5.703  15.840  0.00  0.00    +0.000 OA
ATOM     28  C   UNL     1       6.782   4.654  15.446  0.00  0.00    +0.000 C 
ATOM     29  C   UNL     1       6.069   4.045  16.661  0.00  0.00    +0.000 C 
ENDBRANCH  14  22
BRANCH   6  30
ATOM     30  N   UNL     1      -1.946  13.716  23.457  0.00  0.00    +0.000 N 
ATOM     31  C   UNL     1      -3.386  13.523  23.702  0.00  0.00    +0.000 C 
ATOM     32  C   UNL     1      -4.104  14.881  23.662  0.00  0.00    +0.000 C 
ATOM     33  O   UNL     1      -3.559  15.776  24.644  0.00  0.00    +0.000 OA
ATOM     34  C   UNL     1      -2.170  16.012  24.379  0.00  0.00    +0.000 C 
ATOM     35  C   UNL     1      -1.338  14.718  24.344  0.00  0.00    +0.000 C 
ENDBRANCH   6  30
BRANCH   1  37
ATOM     36  C   UNL     1      -0.446  15.440  19.482  0.00  0.00    +0.000 C 
ATOM     37  C   UNL     1      -1.037  15.027  20.837  0.00  0.00    +0.000 C 
ENDBRANCH   1  37
TORSDOF 3
ENDMDL
MODEL 9
REMARK VINA RESULT:      -8.0      1.605     10.486
REMARK  Name = 
REMARK  6 active torsions:
REMARK  status: ('A' for Active; 'I' for Inactive)
REMARK    1  A    between atoms: C_1  and  C_2
REMARK    2  A    between atoms: C_2  and  C_3
REMARK    3  A    between atoms: C_8  and  N_9
REMARK    4  A    between atoms: C_15  and  C_16
REMARK    5  A    between atoms: C_15  and  C_17
REMARK    6  A    between atoms: C_22  and  C_23
REMARK                            x       y       z     vdW  Elec       q    Type
REMARK                         _______ _______ _______ _____ _____    ______ ____
ROOT
ATOM      1  C   UNL     1       2.297   6.031  20.087  0.00  0.00    +0.000 A 
ATOM      2  C   UNL     1       1.520   6.882  20.893  0.00  0.00    +0.000 A 
ATOM      3  C   UNL     1       1.082   8.132  20.468  0.00  0.00    +0.000 A 
ATOM      4  C   UNL     1       1.368   8.583  19.177  0.00  0.00    +0.000 A 
ATOM      5  C   UNL     1       2.084   7.692  18.341  0.00  0.00    +0.000 A 
ATOM      6  C   UNL     1       2.557   6.409  18.748  0.00  0.00    +0.000 A 
ATOM      7  C   UNL     1       0.924   9.982  18.684  0.00  0.00    +0.000 C 
ATOM      8  C   UNL     1       2.175  10.810  18.323  0.00  0.00    +0.000 C 
ATOM      9  C   UNL     1       0.011   9.823  17.451  0.00  0.00    +0.000 C 
ATOM     10  C   UNL     1       0.158  10.707  19.778  0.00  0.00    +0.000 A 
ATOM     11  N   UNL     1      -0.395  11.965  19.708  0.00  0.00    +0.000 N 
ATOM     12  C   UNL     1      -0.971  12.288  20.916  0.00  0.00    +0.000 A 
ATOM     13  N   UNL     1      -1.568  13.458  21.199  0.00  0.00    +0.000 NA
ATOM     14  C   UNL     1      -2.090  13.502  22.459  0.00  0.00    +0.000 A 
ATOM     15  C   UNL     1      -1.998  12.478  23.403  0.00  0.00    +0.000 A 
ATOM     16  C   UNL     1      -1.344  11.299  23.063  0.00  0.00    +0.000 A 
ATOM     17  C   UNL     1      -0.816  11.204  21.768  0.00  0.00    +0.000 A 
ATOM     18  C   UNL     1      -0.097  10.225  21.046  0.00  0.00    +0.000 A 
ATOM     19  C   UNL     1       0.342   8.931  21.480  0.00  0.00    +0.000 C 
ATOM     20  O   UNL     1       0.129   8.506  22.613  0.00  0.00    +0.000 OA
ATOM     21  H   UNL     1      -0.386  12.588  18.913  0.00  0.00    +0.000 HD
ENDROOT
BRANCH  14  22
ATOM     22  C   UNL     1      -2.731  14.785  22.913  0.00  0.00    +0.000 C 
ATOM     23  O   UNL     1      -1.986  15.709  23.238  0.00  0.00    +0.000 OA
ATOM     24  N   UNL     1      -4.119  14.929  22.949  0.00  0.00    +0.000 N 
ATOM     25  C   UNL     1      -5.143  13.909  22.704  0.00  0.00    +0.000 C 
ATOM     26  C   UNL     1      -5.994  14.316  21.497  0.00  0.00    +0.000 C 
ATOM     27  O   UNL     1      -6.582  15.614  21.703  0.00  0.00    +0.000 OA
ATOM     28  C   UNL     1      -5.566  16.611  21.916  0.00  0.00    +0.000 C 
ATOM     29  C   UNL     1      -4.686  16.265  23.124  0.00  0.00    +0.000 C 
ENDBRANCH  14  22
BRANCH   6  30
ATOM     30  N   UNL     1       3.221   5.613  17.823  0.00  0.00    +0.000 N 
ATOM     31  C   UNL     1       2.752   4.275  17.423  0.00  0.00    +0.000 C 
ATOM     32  C   UNL     1       3.890   3.256  17.592  0.00  0.00    +0.000 C 
ATOM     33  O   UNL     1       5.031   3.629  16.803  0.00  0.00    +0.000 OA
ATOM     34  C   UNL     1       5.526   4.906  17.226  0.00  0.00    +0.000 C 
ATOM     35  C   UNL     1       4.463   6.017  17.151  0.00  0.00    +0.000 C 
ENDBRANCH   6  30
BRANCH   1  37
ATOM     36  C   UNL     1       1.899   3.714  21.195  0.00  0.00    +0.000 C 
ATOM     37  C   UNL     1       2.893   4.800  20.763  0.00  0.00    +0.000 C 
ENDBRANCH   1  37
TORSDOF 3
ENDMDL
