MODEL 1
REMARK VINA RESULT:      -9.5      0.000      0.000
REMARK  Name = 
REMARK  7 active torsions:
REMARK  status: ('A' for Active; 'I' for Inactive)
REMARK    1  A    between atoms: C_1  and  O_2
REMARK    2  A    between atoms: O_2  and  C_3
REMARK    3  A    between atoms: C_8  and  C_9
REMARK    4  A    between atoms: N_11  and  C_12
REMARK    5  A    between atoms: C_16  and  C_17
REMARK    6  A    between atoms: N_19  and  C_20
REMARK    7  A    between atoms: C_22  and  C_23
REMARK                            x       y       z     vdW  Elec       q    Type
REMARK                         _______ _______ _______ _____ _____    ______ ____
ROOT
ATOM      1  C   UNL     1       0.505  10.095  21.244  0.00  0.00    +0.000 A 
ATOM      2  C   UNL     1       0.893   8.804  21.520  0.00  0.00    +0.000 A 
ATOM      3  N   UNL     1       1.467   8.343  20.364  0.00  0.00    +0.000 N 
ATOM      4  N   UNL     1       1.930   7.082  20.159  0.00  0.00    +0.000 NA
ATOM      5  C   UNL     1       2.322   6.877  18.939  0.00  0.00    +0.000 A 
ATOM      6  C   UNL     1       2.364   7.893  17.851  0.00  0.00    +0.000 A 
ATOM      7  C   UNL     1       1.894   9.112  18.145  0.00  0.00    +0.000 A 
ATOM      8  C   UNL     1       1.397   9.369  19.442  0.00  0.00    +0.000 A 
ATOM      9  N   UNL     1       0.832  10.435  19.961  0.00  0.00    +0.000 NA
ENDROOT
BRANCH   5  10
ATOM     10  C   UNL     1       2.701   5.530  18.546  0.00  0.00    +0.000 A 
ATOM     11  C   UNL     1       1.862   4.439  18.402  0.00  0.00    +0.000 A 
ATOM     12  N   UNL     1       2.645   3.400  18.001  0.00  0.00    +0.000 N 
ATOM     13  C   UNL     1       2.225   2.046  17.729  0.00  0.00    +0.000 C 
ATOM     14  N   UNL     1       3.939   3.720  17.880  0.00  0.00    +0.000 NA
ATOM     15  C   UNL     1       4.010   5.018  18.229  0.00  0.00    +0.000 A 
BRANCH  15  16
ATOM     16  C   UNL     1       5.316   5.690  18.286  0.00  0.00    +0.000 A 
ATOM     17  C   UNL     1       5.632   6.700  17.361  0.00  0.00    +0.000 A 
ATOM     18  C   UNL     1       6.869   7.352  17.413  0.00  0.00    +0.000 A 
ATOM     19  C   UNL     1       7.789   7.001  18.394  0.00  0.00    +0.000 A 
ATOM     20  F   UNL     1       8.968   7.634  18.454  0.00  0.00    +0.000 F 
ATOM     21  C   UNL     1       7.508   5.997  19.308  0.00  0.00    +0.000 A 
ATOM     22  C   UNL     1       6.283   5.327  19.237  0.00  0.00    +0.000 A 
ENDBRANCH  15  16
ENDBRANCH   5  10
BRANCH   1  25
ATOM     23  C   UNL     1      -1.182  11.767  21.742  0.00  0.00    +0.000 C 
ATOM     24  O   UNL     1      -1.636  11.910  20.611  0.00  0.00    +0.000 OA
ATOM     25  N   UNL     1      -0.149  10.934  22.123  0.00  0.00    +0.000 N 
ATOM     26  H   UNL     1       0.115  10.861  23.094  0.00  0.00    +0.000 HD
BRANCH  23  32
ATOM     27  C   UNL     1      -2.053  14.468  24.307  0.00  0.00    +0.000 A 
ATOM     28  C   UNL     1      -3.252  13.949  24.799  0.00  0.00    +0.000 A 
ATOM     29  C   UNL     1      -3.735  12.743  24.304  0.00  0.00    +0.000 A 
ATOM     30  F   UNL     1      -4.889  12.257  24.779  0.00  0.00    +0.000 F 
ATOM     31  C   UNL     1      -3.049  12.042  23.326  0.00  0.00    +0.000 A 
ATOM     32  C   UNL     1      -1.842  12.546  22.828  0.00  0.00    +0.000 A 
ATOM     33  C   UNL     1      -1.348  13.763  23.318  0.00  0.00    +0.000 A 
BRANCH  27  35
ATOM     34  C   UNL     1      -1.103  15.761  26.061  0.00  0.00    +0.000 C 
ATOM     35  O   UNL     1      -1.489  15.653  24.693  0.00  0.00    +0.000 OA
ENDBRANCH  27  35
ENDBRANCH  23  32
ENDBRANCH   1  25
TORSDOF 5
ENDMDL
MODEL 2
REMARK VINA RESULT:      -9.5      1.332      1.822
REMARK  Name = 
REMARK  7 active torsions:
REMARK  status: ('A' for Active; 'I' for Inactive)
REMARK    1  A    between atoms: C_1  and  O_2
REMARK    2  A    between atoms: O_2  and  C_3
REMARK    3  A    between atoms: C_8  and  C_9
REMARK    4  A    between atoms: N_11  and  C_12
REMARK    5  A    between atoms: C_16  and  C_17
REMARK    6  A    between atoms: N_19  and  C_20
REMARK    7  A    between atoms: C_22  and  C_23
REMARK                            x       y       z     vdW  Elec       q    Type
REMARK                         _______ _______ _______ _____ _____    ______ ____
ROOT
ATOM      1  C   UNL     1       0.319   9.737  21.070  0.00  0.00    +0.000 A 
ATOM      2  C   UNL     1       0.777   8.476  21.376  0.00  0.00    +0.000 A 
ATOM      3  N   UNL     1       1.443   8.050  20.256  0.00  0.00    +0.000 N 
ATOM      4  N   UNL     1       1.999   6.822  20.086  0.00  0.00    +0.000 NA
ATOM      5  C   UNL     1       2.470   6.639  18.891  0.00  0.00    +0.000 A 
ATOM      6  C   UNL     1       2.505   7.652  17.800  0.00  0.00    +0.000 A 
ATOM      7  C   UNL     1       1.939   8.838  18.059  0.00  0.00    +0.000 A 
ATOM      8  C   UNL     1       1.356   9.066  19.325  0.00  0.00    +0.000 A 
ATOM      9  N   UNL     1       0.693  10.094  19.804  0.00  0.00    +0.000 NA
ENDROOT
BRANCH   5  10
ATOM     10  C   UNL     1       2.959   5.320  18.529  0.00  0.00    +0.000 A 
ATOM     11  C   UNL     1       2.211   4.163  18.398  0.00  0.00    +0.000 A 
ATOM     12  N   UNL     1       3.079   3.182  18.027  0.00  0.00    +0.000 N 
ATOM     13  C   UNL     1       2.771   1.794  17.777  0.00  0.00    +0.000 C 
ATOM     14  N   UNL     1       4.345   3.600  17.915  0.00  0.00    +0.000 NA
ATOM     15  C   UNL     1       4.309   4.906  18.239  0.00  0.00    +0.000 A 
BRANCH  15  16
ATOM     16  C   UNL     1       5.557   5.681  18.297  0.00  0.00    +0.000 A 
ATOM     17  C   UNL     1       5.786   6.724  17.384  0.00  0.00    +0.000 A 
ATOM     18  C   UNL     1       6.967   7.473  17.438  0.00  0.00    +0.000 A 
ATOM     19  C   UNL     1       7.918   7.184  18.409  0.00  0.00    +0.000 A 
ATOM     20  F   UNL     1       9.042   7.909  18.471  0.00  0.00    +0.000 F 
ATOM     21  C   UNL     1       7.724   6.149  19.311  0.00  0.00    +0.000 A 
ATOM     22  C   UNL     1       6.557   5.384  19.238  0.00  0.00    +0.000 A 
ENDBRANCH  15  16
ENDBRANCH   5  10
BRANCH   1  25
ATOM     23  C   UNL     1      -0.463  11.911  21.813  0.00  0.00    +0.000 C 
ATOM     24  O   UNL     1       0.175  12.611  21.033  0.00  0.00    +0.000 OA
ATOM     25  N   UNL     1      -0.436  10.534  21.905  0.00  0.00    +0.000 N 
ATOM     26  H   UNL     1      -1.040  10.055  22.557  0.00  0.00    +0.000 HD
BRANCH  23  32
ATOM     27  C   UNL     1      -3.430  12.789  24.062  0.00  0.00    +0.000 A 
ATOM     28  C   UNL     1      -3.000  14.026  24.548  0.00  0.00    +0.000 A 
ATOM     29  C   UNL     1      -1.782  14.545  24.128  0.00  0.00    +0.000 A 
ATOM     30  F   UNL     1      -1.377  15.729  24.605  0.00  0.00    +0.000 F 
ATOM     31  C   UNL     1      -0.978  13.858  23.233  0.00  0.00    +0.000 A 
ATOM     32  C   UNL     1      -1.398  12.620  22.732  0.00  0.00    +0.000 A 
ATOM     33  C   UNL     1      -2.624  12.086  23.152  0.00  0.00    +0.000 A 
BRANCH  27  35
ATOM     34  C   UNL     1      -5.807  12.811  24.049  0.00  0.00    +0.000 C 
ATOM     35  O   UNL     1      -4.593  12.162  24.418  0.00  0.00    +0.000 OA
ENDBRANCH  27  35
ENDBRANCH  23  32
ENDBRANCH   1  25
TORSDOF 5
ENDMDL
MODEL 3
REMARK VINA RESULT:      -9.2      1.261      1.983
REMARK  Name = 
REMARK  7 active torsions:
REMARK  status: ('A' for Active; 'I' for Inactive)
REMARK    1  A    between atoms: C_1  and  O_2
REMARK    2  A    between atoms: O_2  and  C_3
REMARK    3  A    between atoms: C_8  and  C_9
REMARK    4  A    between atoms: N_11  and  C_12
REMARK    5  A    between atoms: C_16  and  C_17
REMARK    6  A    between atoms: N_19  and  C_20
REMARK    7  A    between atoms: C_22  and  C_23
REMARK                            x       y       z     vdW  Elec       q    Type
REMARK                         _______ _______ _______ _____ _____    ______ ____
ROOT
ATOM      1  C   UNL     1       0.497  10.224  20.993  0.00  0.00    +0.000 A 
ATOM      2  C   UNL     1       0.879   8.942  21.315  0.00  0.00    +0.000 A 
ATOM      3  N   UNL     1       1.467   8.443  20.182  0.00  0.00    +0.000 N 
ATOM      4  N   UNL     1       1.929   7.175  20.024  0.00  0.00    +0.000 NA
ATOM      5  C   UNL     1       2.336   6.930  18.817  0.00  0.00    +0.000 A 
ATOM      6  C   UNL     1       2.395   7.911  17.697  0.00  0.00    +0.000 A 
ATOM      7  C   UNL     1       1.924   9.140  17.946  0.00  0.00    +0.000 A 
ATOM      8  C   UNL     1       1.411   9.439  19.228  0.00  0.00    +0.000 A 
ATOM      9  N   UNL     1       0.841  10.522  19.704  0.00  0.00    +0.000 NA
ENDROOT
BRANCH   5  10
ATOM     10  C   UNL     1       2.717   5.571  18.472  0.00  0.00    +0.000 A 
ATOM     11  C   UNL     1       1.876   4.481  18.332  0.00  0.00    +0.000 A 
ATOM     12  N   UNL     1       2.663   3.427  17.984  0.00  0.00    +0.000 N 
ATOM     13  C   UNL     1       2.242   2.069  17.736  0.00  0.00    +0.000 C 
ATOM     14  N   UNL     1       3.962   3.735  17.896  0.00  0.00    +0.000 NA
ATOM     15  C   UNL     1       4.032   5.041  18.211  0.00  0.00    +0.000 A 
BRANCH  15  16
ATOM     16  C   UNL     1       5.341   5.707  18.290  0.00  0.00    +0.000 A 
ATOM     17  C   UNL     1       6.246   5.368  19.310  0.00  0.00    +0.000 A 
ATOM     18  C   UNL     1       7.498   5.989  19.387  0.00  0.00    +0.000 A 
ATOM     19  C   UNL     1       7.849   6.944  18.441  0.00  0.00    +0.000 A 
ATOM     20  F   UNL     1       9.052   7.530  18.504  0.00  0.00    +0.000 F 
ATOM     21  C   UNL     1       6.967   7.308  17.434  0.00  0.00    +0.000 A 
ATOM     22  C   UNL     1       5.707   6.707  17.375  0.00  0.00    +0.000 A 
ENDBRANCH  15  16
ENDBRANCH   5  10
BRANCH   1  25
ATOM     23  C   UNL     1      -1.263  11.834  21.442  0.00  0.00    +0.000 C 
ATOM     24  O   UNL     1      -1.774  11.862  20.327  0.00  0.00    +0.000 OA
ATOM     25  N   UNL     1      -0.167  11.092  21.836  0.00  0.00    +0.000 N 
ATOM     26  H   UNL     1       0.144  11.111  22.796  0.00  0.00    +0.000 HD
BRANCH  23  32
ATOM     27  C   UNL     1      -3.793  13.273  23.924  0.00  0.00    +0.000 A 
ATOM     28  C   UNL     1      -2.984  14.209  24.571  0.00  0.00    +0.000 A 
ATOM     29  C   UNL     1      -1.658  14.360  24.181  0.00  0.00    +0.000 A 
ATOM     30  F   UNL     1      -0.889  15.256  24.812  0.00  0.00    +0.000 F 
ATOM     31  C   UNL     1      -1.119  13.596  23.160  0.00  0.00    +0.000 A 
ATOM     32  C   UNL     1      -1.920  12.658  22.497  0.00  0.00    +0.000 A 
ATOM     33  C   UNL     1      -3.257  12.496  22.884  0.00  0.00    +0.000 A 
BRANCH  27  35
ATOM     34  C   UNL     1      -6.002  12.884  23.135  0.00  0.00    +0.000 C 
ATOM     35  O   UNL     1      -5.101  13.014  24.232  0.00  0.00    +0.000 OA
ENDBRANCH  27  35
ENDBRANCH  23  32
ENDBRANCH   1  25
TORSDOF 5
ENDMDL
MODEL 4
REMARK VINA RESULT:      -9.0      7.549      9.532
REMARK  Name = 
REMARK  7 active torsions:
REMARK  status: ('A' for Active; 'I' for Inactive)
REMARK    1  A    between atoms: C_1  and  O_2
REMARK    2  A    between atoms: O_2  and  C_3
REMARK    3  A    between atoms: C_8  and  C_9
REMARK    4  A    between atoms: N_11  and  C_12
REMARK    5  A    between atoms: C_16  and  C_17
REMARK    6  A    between atoms: N_19  and  C_20
REMARK    7  A    between atoms: C_22  and  C_23
REMARK                            x       y       z     vdW  Elec       q    Type
REMARK                         _______ _______ _______ _____ _____    ______ ____
ROOT
ATOM      1  C   UNL     1       8.660   9.539  18.782  0.00  0.00    +0.000 A 
ATOM      2  C   UNL     1       7.923   9.318  17.641  0.00  0.00    +0.000 A 
ATOM      3  N   UNL     1       7.672   7.971  17.627  0.00  0.00    +0.000 N 
ATOM      4  N   UNL     1       7.031   7.296  16.637  0.00  0.00    +0.000 NA
ATOM      5  C   UNL     1       7.025   6.011  16.819  0.00  0.00    +0.000 A 
ATOM      6  C   UNL     1       7.571   5.293  18.004  0.00  0.00    +0.000 A 
ATOM      7  C   UNL     1       8.181   6.040  18.934  0.00  0.00    +0.000 A 
ATOM      8  C   UNL     1       8.269   7.438  18.752  0.00  0.00    +0.000 A 
ATOM      9  N   UNL     1       8.857   8.371  19.465  0.00  0.00    +0.000 NA
ENDROOT
BRANCH   5  10
ATOM     10  C   UNL     1       6.503   5.160  15.763  0.00  0.00    +0.000 A 
ATOM     11  C   UNL     1       7.057   4.953  14.512  0.00  0.00    +0.000 A 
ATOM     12  N   UNL     1       6.244   4.069  13.871  0.00  0.00    +0.000 N 
ATOM     13  C   UNL     1       6.402   3.552  12.533  0.00  0.00    +0.000 C 
ATOM     14  N   UNL     1       5.190   3.686  14.600  0.00  0.00    +0.000 NA
ATOM     15  C   UNL     1       5.308   4.356  15.761  0.00  0.00    +0.000 A 
BRANCH  15  16
ATOM     16  C   UNL     1       4.262   4.232  16.788  0.00  0.00    +0.000 A 
ATOM     17  C   UNL     1       3.677   5.381  17.343  0.00  0.00    +0.000 A 
ATOM     18  C   UNL     1       2.675   5.273  18.314  0.00  0.00    +0.000 A 
ATOM     19  C   UNL     1       2.251   4.015  18.725  0.00  0.00    +0.000 A 
ATOM     20  F   UNL     1       1.282   3.909  19.643  0.00  0.00    +0.000 F 
ATOM     21  C   UNL     1       2.825   2.864  18.204  0.00  0.00    +0.000 A 
ATOM     22  C   UNL     1       3.845   2.975  17.255  0.00  0.00    +0.000 A 
ENDBRANCH  15  16
ENDBRANCH   5  10
BRANCH   1  25
ATOM     23  C   UNL     1      10.091  11.471  18.447  0.00  0.00    +0.000 C 
ATOM     24  O   UNL     1      10.617  11.128  17.393  0.00  0.00    +0.000 OA
ATOM     25  N   UNL     1       9.161  10.761  19.181  0.00  0.00    +0.000 N 
ATOM     26  H   UNL     1       8.758  11.160  20.016  0.00  0.00    +0.000 HD
BRANCH  23  32
ATOM     27  C   UNL     1      11.224  15.114  18.720  0.00  0.00    +0.000 A 
ATOM     28  C   UNL     1      11.022  15.323  20.086  0.00  0.00    +0.000 A 
ATOM     29  C   UNL     1      10.544  14.286  20.878  0.00  0.00    +0.000 A 
ATOM     30  F   UNL     1      10.347  14.499  22.185  0.00  0.00    +0.000 F 
ATOM     31  C   UNL     1      10.260  13.042  20.338  0.00  0.00    +0.000 A 
ATOM     32  C   UNL     1      10.465  12.815  18.972  0.00  0.00    +0.000 A 
ATOM     33  C   UNL     1      10.944  13.856  18.164  0.00  0.00    +0.000 A 
BRANCH  27  35
ATOM     34  C   UNL     1      10.919  16.201  16.628  0.00  0.00    +0.000 C 
ATOM     35  O   UNL     1      11.665  16.059  17.834  0.00  0.00    +0.000 OA
ENDBRANCH  27  35
ENDBRANCH  23  32
ENDBRANCH   1  25
TORSDOF 5
ENDMDL
MODEL 5
REMARK VINA RESULT:      -8.9      4.010     10.613
REMARK  Name = 
REMARK  7 active torsions:
REMARK  status: ('A' for Active; 'I' for Inactive)
REMARK    1  A    between atoms: C_1  and  O_2
REMARK    2  A    between atoms: O_2  and  C_3
REMARK    3  A    between atoms: C_8  and  C_9
REMARK    4  A    between atoms: N_11  and  C_12
REMARK    5  A    between atoms: C_16  and  C_17
REMARK    6  A    between atoms: N_19  and  C_20
REMARK    7  A    between atoms: C_22  and  C_23
REMARK                            x       y       z     vdW  Elec       q    Type
REMARK                         _______ _______ _______ _____ _____    ______ ____
ROOT
ATOM      1  C   UNL     1       1.491   8.470  20.474  0.00  0.00    +0.000 A 
ATOM      2  C   UNL     1       0.950   9.599  19.902  0.00  0.00    +0.000 A 
ATOM      3  N   UNL     1       0.208  10.187  20.893  0.00  0.00    +0.000 N 
ATOM      4  N   UNL     1      -0.563  11.297  20.751  0.00  0.00    +0.000 NA
ATOM      5  C   UNL     1      -1.250  11.578  21.815  0.00  0.00    +0.000 A 
ATOM      6  C   UNL     1      -1.184  10.854  23.115  0.00  0.00    +0.000 A 
ATOM      7  C   UNL     1      -0.392   9.775  23.166  0.00  0.00    +0.000 A 
ATOM      8  C   UNL     1       0.329   9.390  22.014  0.00  0.00    +0.000 A 
ATOM      9  N   UNL     1       1.108   8.359  21.781  0.00  0.00    +0.000 NA
ENDROOT
BRANCH   5  10
ATOM     10  C   UNL     1      -2.227  12.652  21.751  0.00  0.00    +0.000 A 
ATOM     11  C   UNL     1      -2.495  13.592  22.731  0.00  0.00    +0.000 A 
ATOM     12  N   UNL     1      -3.462  14.407  22.228  0.00  0.00    +0.000 N 
ATOM     13  C   UNL     1      -4.079  15.535  22.885  0.00  0.00    +0.000 C 
ATOM     14  N   UNL     1      -3.861  14.071  20.997  0.00  0.00    +0.000 NA
ATOM     15  C   UNL     1      -3.136  12.981  20.683  0.00  0.00    +0.000 A 
BRANCH  15  16
ATOM     16  C   UNL     1      -3.372  12.287  19.408  0.00  0.00    +0.000 A 
ATOM     17  C   UNL     1      -4.670  11.882  19.053  0.00  0.00    +0.000 A 
ATOM     18  C   UNL     1      -4.905  11.229  17.838  0.00  0.00    +0.000 A 
ATOM     19  C   UNL     1      -3.845  10.987  16.973  0.00  0.00    +0.000 A 
ATOM     20  F   UNL     1      -4.071  10.375  15.803  0.00  0.00    +0.000 F 
ATOM     21  C   UNL     1      -2.552  11.362  17.307  0.00  0.00    +0.000 A 
ATOM     22  C   UNL     1      -2.315  11.988  18.533  0.00  0.00    +0.000 A 
ENDBRANCH  15  16
ENDBRANCH   5  10
BRANCH   1  25
ATOM     23  C   UNL     1       2.174   6.189  20.004  0.00  0.00    +0.000 C 
ATOM     24  O   UNL     1       1.402   5.608  20.760  0.00  0.00    +0.000 OA
ATOM     25  N   UNL     1       2.290   7.553  19.822  0.00  0.00    +0.000 N 
ATOM     26  H   UNL     1       2.930   7.923  19.136  0.00  0.00    +0.000 HD
BRANCH  23  32
ATOM     27  C   UNL     1       5.192   4.347  18.546  0.00  0.00    +0.000 A 
ATOM     28  C   UNL     1       4.555   3.590  17.561  0.00  0.00    +0.000 A 
ATOM     29  C   UNL     1       3.181   3.706  17.386  0.00  0.00    +0.000 A 
ATOM     30  F   UNL     1       2.579   2.970  16.442  0.00  0.00    +0.000 F 
ATOM     31  C   UNL     1       2.426   4.559  18.173  0.00  0.00    +0.000 A 
ATOM     32  C   UNL     1       3.052   5.330  19.159  0.00  0.00    +0.000 A 
ATOM     33  C   UNL     1       4.437   5.218  19.347  0.00  0.00    +0.000 A 
BRANCH  27  35
ATOM     34  C   UNL     1       7.408   4.890  17.874  0.00  0.00    +0.000 C 
ATOM     35  O   UNL     1       6.530   4.303  18.832  0.00  0.00    +0.000 OA
ENDBRANCH  27  35
ENDBRANCH  23  32
ENDBRANCH   1  25
TORSDOF 5
ENDMDL
MODEL 6
REMARK VINA RESULT:      -8.8      3.055      3.673
REMARK  Name = 
REMARK  7 active torsions:
REMARK  status: ('A' for Active; 'I' for Inactive)
REMARK    1  A    between atoms: C_1  and  O_2
REMARK    2  A    between atoms: O_2  and  C_3
REMARK    3  A    between atoms: C_8  and  C_9
REMARK    4  A    between atoms: N_11  and  C_12
REMARK    5  A    between atoms: C_16  and  C_17
REMARK    6  A    between atoms: N_19  and  C_20
REMARK    7  A    between atoms: C_22  and  C_23
REMARK                            x       y       z     vdW  Elec       q    Type
REMARK                         _______ _______ _______ _____ _____    ______ ____
ROOT
ATOM      1  C   UNL     1       0.913  10.765  19.195  0.00  0.00    +0.000 A 
ATOM      2  C   UNL     1       0.895   9.788  20.163  0.00  0.00    +0.000 A 
ATOM      3  N   UNL     1       1.601   8.739  19.634  0.00  0.00    +0.000 N 
ATOM      4  N   UNL     1       1.776   7.527  20.223  0.00  0.00    +0.000 NA
ATOM      5  C   UNL     1       2.389   6.676  19.459  0.00  0.00    +0.000 A 
ATOM      6  C   UNL     1       2.941   6.955  18.104  0.00  0.00    +0.000 A 
ATOM      7  C   UNL     1       2.726   8.180  17.605  0.00  0.00    +0.000 A 
ATOM      8  C   UNL     1       2.009   9.124  18.373  0.00  0.00    +0.000 A 
ATOM      9  N   UNL     1       1.613  10.346  18.098  0.00  0.00    +0.000 NA
ENDROOT
BRANCH   5  10
ATOM     10  C   UNL     1       2.511   5.299  19.907  0.00  0.00    +0.000 A 
ATOM     11  C   UNL     1       1.774   4.680  20.901  0.00  0.00    +0.000 A 
ATOM     12  N   UNL     1       2.213   3.393  20.963  0.00  0.00    +0.000 N 
ATOM     13  C   UNL     1       1.751   2.357  21.855  0.00  0.00    +0.000 C 
ATOM     14  N   UNL     1       3.192   3.118  20.094  0.00  0.00    +0.000 NA
ATOM     15  C   UNL     1       3.414   4.276  19.444  0.00  0.00    +0.000 A 
BRANCH  15  16
ATOM     16  C   UNL     1       4.495   4.363  18.451  0.00  0.00    +0.000 A 
ATOM     17  C   UNL     1       5.755   4.865  18.819  0.00  0.00    +0.000 A 
ATOM     18  C   UNL     1       6.792   4.943  17.884  0.00  0.00    +0.000 A 
ATOM     19  C   UNL     1       6.575   4.510  16.581  0.00  0.00    +0.000 A 
ATOM     20  F   UNL     1       7.571   4.570  15.688  0.00  0.00    +0.000 F 
ATOM     21  C   UNL     1       5.336   4.026  16.188  0.00  0.00    +0.000 A 
ATOM     22  C   UNL     1       4.293   3.976  17.116  0.00  0.00    +0.000 A 
ENDBRANCH  15  16
ENDBRANCH   5  10
BRANCH   1  25
ATOM     23  C   UNL     1       0.705  12.981  20.164  0.00  0.00    +0.000 C 
ATOM     24  O   UNL     1       1.624  12.913  20.973  0.00  0.00    +0.000 OA
ATOM     25  N   UNL     1       0.291  11.993  19.291  0.00  0.00    +0.000 N 
ATOM     26  H   UNL     1      -0.452  12.173  18.633  0.00  0.00    +0.000 HD
BRANCH  23  32
ATOM     27  C   UNL     1      -0.644  16.357  18.976  0.00  0.00    +0.000 A 
ATOM     28  C   UNL     1      -1.524  16.642  20.022  0.00  0.00    +0.000 A 
ATOM     29  C   UNL     1      -1.645  15.751  21.081  0.00  0.00    +0.000 A 
ATOM     30  F   UNL     1      -2.496  16.031  22.077  0.00  0.00    +0.000 F 
ATOM     31  C   UNL     1      -0.909  14.578  21.121  0.00  0.00    +0.000 A 
ATOM     32  C   UNL     1      -0.018  14.282  20.083  0.00  0.00    +0.000 A 
ATOM     33  C   UNL     1       0.110  15.173  19.008  0.00  0.00    +0.000 A 
BRANCH  27  35
ATOM     34  C   UNL     1       0.809  17.787  17.752  0.00  0.00    +0.000 C 
ATOM     35  O   UNL     1      -0.456  17.139  17.868  0.00  0.00    +0.000 OA
ENDBRANCH  27  35
ENDBRANCH  23  32
ENDBRANCH   1  25
TORSDOF 5
ENDMDL
MODEL 7
REMARK VINA RESULT:      -8.8      3.915      4.498
REMARK  Name = 
REMARK  7 active torsions:
REMARK  status: ('A' for Active; 'I' for Inactive)
REMARK    1  A    between atoms: C_1  and  O_2
REMARK    2  A    between atoms: O_2  and  C_3
REMARK    3  A    between atoms: C_8  and  C_9
REMARK    4  A    between atoms: N_11  and  C_12
REMARK    5  A    between atoms: C_16  and  C_17
REMARK    6  A    between atoms: N_19  and  C_20
REMARK    7  A    between atoms: C_22  and  C_23
REMARK                            x       y       z     vdW  Elec       q    Type
REMARK                         _______ _______ _______ _____ _____    ______ ____
ROOT
ATOM      1  C   UNL     1       1.426  10.549  18.784  0.00  0.00    +0.000 A 
ATOM      2  C   UNL     1       1.925   9.612  17.909  0.00  0.00    +0.000 A 
ATOM      3  N   UNL     1       1.937   8.433  18.608  0.00  0.00    +0.000 N 
ATOM      4  N   UNL     1       2.424   7.249  18.153  0.00  0.00    +0.000 NA
ATOM      5  C   UNL     1       2.418   6.316  19.056  0.00  0.00    +0.000 A 
ATOM      6  C   UNL     1       1.875   6.440  20.437  0.00  0.00    +0.000 A 
ATOM      7  C   UNL     1       1.410   7.643  20.798  0.00  0.00    +0.000 A 
ATOM      8  C   UNL     1       1.452   8.708  19.871  0.00  0.00    +0.000 A 
ATOM      9  N   UNL     1       1.127   9.976  19.989  0.00  0.00    +0.000 NA
ENDROOT
BRANCH   5  10
ATOM     10  C   UNL     1       3.047   5.043  18.747  0.00  0.00    +0.000 A 
ATOM     11  C   UNL     1       2.460   3.791  18.801  0.00  0.00    +0.000 A 
ATOM     12  N   UNL     1       3.413   2.901  18.410  0.00  0.00    +0.000 N 
ATOM     13  C   UNL     1       3.278   1.467  18.313  0.00  0.00    +0.000 C 
ATOM     14  N   UNL     1       4.587   3.469  18.113  0.00  0.00    +0.000 NA
ATOM     15  C   UNL     1       4.402   4.784  18.331  0.00  0.00    +0.000 A 
BRANCH  15  16
ATOM     16  C   UNL     1       5.528   5.717  18.176  0.00  0.00    +0.000 A 
ATOM     17  C   UNL     1       5.452   6.769  17.247  0.00  0.00    +0.000 A 
ATOM     18  C   UNL     1       6.514   7.667  17.099  0.00  0.00    +0.000 A 
ATOM     19  C   UNL     1       7.650   7.521  17.885  0.00  0.00    +0.000 A 
ATOM     20  F   UNL     1       8.662   8.389  17.755  0.00  0.00    +0.000 F 
ATOM     21  C   UNL     1       7.757   6.482  18.797  0.00  0.00    +0.000 A 
ATOM     22  C   UNL     1       6.707   5.569  18.924  0.00  0.00    +0.000 A 
ENDBRANCH  15  16
ENDBRANCH   5  10
BRANCH   1  25
ATOM     23  C   UNL     1       1.655  12.891  19.378  0.00  0.00    +0.000 C 
ATOM     24  O   UNL     1       2.146  12.750  20.493  0.00  0.00    +0.000 OA
ATOM     25  N   UNL     1       1.267  11.891  18.507  0.00  0.00    +0.000 N 
ATOM     26  H   UNL     1       0.914  12.122  17.591  0.00  0.00    +0.000 HD
BRANCH  23  32
ATOM     27  C   UNL     1       0.221  16.329  18.508  0.00  0.00    +0.000 A 
ATOM     28  C   UNL     1       1.378  16.957  18.043  0.00  0.00    +0.000 A 
ATOM     29  C   UNL     1       2.576  16.255  18.009  0.00  0.00    +0.000 A 
ATOM     30  F   UNL     1       3.681  16.869  17.566  0.00  0.00    +0.000 F 
ATOM     31  C   UNL     1       2.649  14.937  18.430  0.00  0.00    +0.000 A 
ATOM     32  C   UNL     1       1.496  14.292  18.892  0.00  0.00    +0.000 A 
ATOM     33  C   UNL     1       0.283  14.992  18.934  0.00  0.00    +0.000 A 
BRANCH  27  35
ATOM     34  C   UNL     1      -1.170  18.181  17.971  0.00  0.00    +0.000 C 
ATOM     35  O   UNL     1      -1.009  16.920  18.615  0.00  0.00    +0.000 OA
ENDBRANCH  27  35
ENDBRANCH  23  32
ENDBRANCH   1  25
TORSDOF 5
ENDMDL
MODEL 8
REMARK VINA RESULT:      -8.8      3.203      3.772
REMARK  Name = 
REMARK  7 active torsions:
REMARK  status: ('A' for Active; 'I' for Inactive)
REMARK    1  A    between atoms: C_1  and  O_2
REMARK    2  A    between atoms: O_2  and  C_3
REMARK    3  A    between atoms: C_8  and  C_9
REMARK    4  A    between atoms: N_11  and  C_12
REMARK    5  A    between atoms: C_16  and  C_17
REMARK    6  A    between atoms: N_19  and  C_20
REMARK    7  A    between atoms: C_22  and  C_23
REMARK                            x       y       z     vdW  Elec       q    Type
REMARK                         _______ _______ _______ _____ _____    ______ ____
ROOT
ATOM      1  C   UNL     1       0.804  10.723  19.294  0.00  0.00    +0.000 A 
ATOM      2  C   UNL     1       0.850   9.756  20.271  0.00  0.00    +0.000 A 
ATOM      3  N   UNL     1       1.534   8.708  19.713  0.00  0.00    +0.000 N 
ATOM      4  N   UNL     1       1.754   7.503  20.302  0.00  0.00    +0.000 NA
ATOM      5  C   UNL     1       2.329   6.649  19.512  0.00  0.00    +0.000 A 
ATOM      6  C   UNL     1       2.800   6.919  18.125  0.00  0.00    +0.000 A 
ATOM      7  C   UNL     1       2.546   8.137  17.628  0.00  0.00    +0.000 A 
ATOM      8  C   UNL     1       1.866   9.083  18.426  0.00  0.00    +0.000 A 
ATOM      9  N   UNL     1       1.444  10.299  18.163  0.00  0.00    +0.000 NA
ENDROOT
BRANCH   5  10
ATOM     10  C   UNL     1       2.489   5.278  19.966  0.00  0.00    +0.000 A 
ATOM     11  C   UNL     1       1.788   4.652  20.981  0.00  0.00    +0.000 A 
ATOM     12  N   UNL     1       2.253   3.374  21.040  0.00  0.00    +0.000 N 
ATOM     13  C   UNL     1       1.834   2.335  21.950  0.00  0.00    +0.000 C 
ATOM     14  N   UNL     1       3.216   3.112  20.149  0.00  0.00    +0.000 NA
ATOM     15  C   UNL     1       3.400   4.270  19.487  0.00  0.00    +0.000 A 
BRANCH  15  16
ATOM     16  C   UNL     1       4.455   4.371  18.468  0.00  0.00    +0.000 A 
ATOM     17  C   UNL     1       5.711   4.905  18.800  0.00  0.00    +0.000 A 
ATOM     18  C   UNL     1       6.724   4.997  17.839  0.00  0.00    +0.000 A 
ATOM     19  C   UNL     1       6.485   4.546  16.547  0.00  0.00    +0.000 A 
ATOM     20  F   UNL     1       7.458   4.620  15.629  0.00  0.00    +0.000 F 
ATOM     21  C   UNL     1       5.249   4.030  16.188  0.00  0.00    +0.000 A 
ATOM     22  C   UNL     1       4.230   3.966  17.142  0.00  0.00    +0.000 A 
ENDBRANCH  15  16
ENDBRANCH   5  10
BRANCH   1  25
ATOM     23  C   UNL     1       0.867  13.135  19.564  0.00  0.00    +0.000 C 
ATOM     24  O   UNL     1       2.083  13.278  19.643  0.00  0.00    +0.000 OA
ATOM     25  N   UNL     1       0.178  11.947  19.414  0.00  0.00    +0.000 N 
ATOM     26  H   UNL     1      -0.826  11.950  19.315  0.00  0.00    +0.000 HD
BRANCH  23  32
ATOM     27  C   UNL     1      -1.583  15.888  20.588  0.00  0.00    +0.000 A 
ATOM     28  C   UNL     1      -1.344  16.809  19.567  0.00  0.00    +0.000 A 
ATOM     29  C   UNL     1      -0.417  16.513  18.575  0.00  0.00    +0.000 A 
ATOM     30  F   UNL     1      -0.190  17.406  17.603  0.00  0.00    +0.000 F 
ATOM     31  C   UNL     1       0.281  15.316  18.578  0.00  0.00    +0.000 A 
ATOM     32  C   UNL     1       0.046  14.379  19.592  0.00  0.00    +0.000 A 
ATOM     33  C   UNL     1      -0.884  14.670  20.599  0.00  0.00    +0.000 A 
BRANCH  27  35
ATOM     34  C   UNL     1      -3.084  14.908  22.149  0.00  0.00    +0.000 C 
ATOM     35  O   UNL     1      -2.449  16.074  21.632  0.00  0.00    +0.000 OA
ENDBRANCH  27  35
ENDBRANCH  23  32
ENDBRANCH   1  25
TORSDOF 5
ENDMDL
MODEL 9
REMARK VINA RESULT:      -8.8      3.632      4.315
REMARK  Name = 
REMARK  7 active torsions:
REMARK  status: ('A' for Active; 'I' for Inactive)
REMARK    1  A    between atoms: C_1  and  O_2
REMARK    2  A    between atoms: O_2  and  C_3
REMARK    3  A    between atoms: C_8  and  C_9
REMARK    4  A    between atoms: N_11  and  C_12
REMARK    5  A    between atoms: C_16  and  C_17
REMARK    6  A    between atoms: N_19  and  C_20
REMARK    7  A    between atoms: C_22  and  C_23
REMARK                            x       y       z     vdW  Elec       q    Type
REMARK                         _______ _______ _______ _____ _____    ______ ____
ROOT
ATOM      1  C   UNL     1       1.512  10.631  18.882  0.00  0.00    +0.000 A 
ATOM      2  C   UNL     1       1.981   9.705  17.979  0.00  0.00    +0.000 A 
ATOM      3  N   UNL     1       1.960   8.507  18.644  0.00  0.00    +0.000 N 
ATOM      4  N   UNL     1       2.409   7.322  18.153  0.00  0.00    +0.000 NA
ATOM      5  C   UNL     1       2.378   6.365  19.029  0.00  0.00    +0.000 A 
ATOM      6  C   UNL     1       1.842   6.465  20.415  0.00  0.00    +0.000 A 
ATOM      7  C   UNL     1       1.414   7.670  20.812  0.00  0.00    +0.000 A 
ATOM      8  C   UNL     1       1.485   8.760  19.916  0.00  0.00    +0.000 A 
ATOM      9  N   UNL     1       1.199  10.033  20.071  0.00  0.00    +0.000 NA
ENDROOT
BRANCH   5  10
ATOM     10  C   UNL     1       2.967   5.083  18.682  0.00  0.00    +0.000 A 
ATOM     11  C   UNL     1       2.336   3.852  18.674  0.00  0.00    +0.000 A 
ATOM     12  N   UNL     1       3.264   2.945  18.267  0.00  0.00    +0.000 N 
ATOM     13  C   UNL     1       3.081   1.521  18.110  0.00  0.00    +0.000 C 
ATOM     14  N   UNL     1       4.464   3.480  18.015  0.00  0.00    +0.000 NA
ATOM     15  C   UNL     1       4.321   4.792  18.282  0.00  0.00    +0.000 A 
BRANCH  15  16
ATOM     16  C   UNL     1       5.481   5.689  18.185  0.00  0.00    +0.000 A 
ATOM     17  C   UNL     1       5.485   6.744  17.257  0.00  0.00    +0.000 A 
ATOM     18  C   UNL     1       6.581   7.609  17.165  0.00  0.00    +0.000 A 
ATOM     19  C   UNL     1       7.672   7.425  18.006  0.00  0.00    +0.000 A 
ATOM     20  F   UNL     1       8.716   8.261  17.929  0.00  0.00    +0.000 F 
ATOM     21  C   UNL     1       7.701   6.382  18.919  0.00  0.00    +0.000 A 
ATOM     22  C   UNL     1       6.617   5.502  18.990  0.00  0.00    +0.000 A 
ENDBRANCH  15  16
ENDBRANCH   5  10
BRANCH   1  25
ATOM     23  C   UNL     1       1.657  12.945  19.603  0.00  0.00    +0.000 C 
ATOM     24  O   UNL     1       1.991  12.753  20.767  0.00  0.00    +0.000 OA
ATOM     25  N   UNL     1       1.393  11.985  18.645  0.00  0.00    +0.000 N 
ATOM     26  H   UNL     1       1.169  12.257  17.699  0.00  0.00    +0.000 HD
BRANCH  23  32
ATOM     27  C   UNL     1       2.520  16.469  18.391  0.00  0.00    +0.000 A 
ATOM     28  C   UNL     1       1.233  16.988  18.239  0.00  0.00    +0.000 A 
ATOM     29  C   UNL     1       0.131  16.198  18.543  0.00  0.00    +0.000 A 
ATOM     30  F   UNL     1      -1.099  16.704  18.388  0.00  0.00    +0.000 F 
ATOM     31  C   UNL     1       0.283  14.898  18.996  0.00  0.00    +0.000 A 
ATOM     32  C   UNL     1       1.567  14.366  19.161  0.00  0.00    +0.000 A 
ATOM     33  C   UNL     1       2.685  15.153  18.853  0.00  0.00    +0.000 A 
BRANCH  27  35
ATOM     34  C   UNL     1       4.883  16.586  18.634  0.00  0.00    +0.000 C 
ATOM     35  O   UNL     1       3.680  17.136  18.102  0.00  0.00    +0.000 OA
ENDBRANCH  27  35
ENDBRANCH  23  32
ENDBRANCH   1  25
TORSDOF 5
ENDMDL
