MODEL 1
REMARK VINA RESULT:      -7.7      0.000      0.000
REMARK  Name = 
REMARK  5 active torsions:
REMARK  status: ('A' for Active; 'I' for Inactive)
REMARK    1  A    between atoms: C_2  and  C_10
REMARK    2  A    between atoms: N_3  and  C_4
REMARK    3  A    between atoms: C_4  and  C_5
REMARK    4  A    between atoms: C_17  and  C_19
REMARK    5  A    between atoms: C_29  and  C_31
REMARK                            x       y       z     vdW  Elec       q    Type
REMARK                         _______ _______ _______ _____ _____    ______ ____
ROOT
ATOM      1  C   UNL     1       0.914  12.075  19.246  0.00  0.00    +0.000 C 
ATOM      2  C   UNL     1       1.607  12.107  20.601  0.00  0.00    +0.000 C 
ATOM      3  O   UNL     1       0.684  12.724  21.488  0.00  0.00    +0.000 OA
ATOM      4  C   UNL     1      -0.654  12.435  21.001  0.00  0.00    +0.000 C 
ATOM      5  C   UNL     1      -1.296  13.827  21.080  0.00  0.00    +0.000 C 
ATOM      6  C   UNL     1      -1.717  14.189  22.494  0.00  0.00    +0.000 C 
ATOM      7  N   UNL     1      -2.394  13.095  23.189  0.00  0.00    +0.000 N 
ATOM      8  C   UNL     1      -3.626  13.139  23.871  0.00  0.00    +0.000 C 
ATOM      9  O   UNL     1      -4.098  12.131  24.395  0.00  0.00    +0.000 OA
ATOM     10  C   UNL     1      -1.606  11.861  23.287  0.00  0.00    +0.000 C 
ATOM     11  C   UNL     1      -1.188  11.327  21.923  0.00  0.00    +0.000 C 
ATOM     12  N   UNL     1      -0.505  11.964  19.622  0.00  0.00    +0.000 N 
ATOM     13  C   UNL     1      -1.495  11.813  18.635  0.00  0.00    +0.000 C 
ATOM     14  O   UNL     1      -1.130  11.701  17.457  0.00  0.00    +0.000 OA
ENDROOT
BRANCH   8  15
ATOM     15  C   UNL     1      -4.420  14.395  23.991  0.00  0.00    +0.000 A 
ATOM     16  C   UNL     1      -3.978  15.504  24.726  0.00  0.00    +0.000 A 
ATOM     17  C   UNL     1      -4.728  16.683  24.769  0.00  0.00    +0.000 A 
ATOM     18  C   UNL     1      -5.986  16.733  24.171  0.00  0.00    +0.000 A 
ATOM     19  C   UNL     1      -6.483  15.607  23.523  0.00  0.00    +0.000 A 
ATOM     20  C   UNL     1      -5.698  14.456  23.419  0.00  0.00    +0.000 A 
ATOM     21  F   UNL     1      -6.210  13.419  22.740  0.00  0.00    +0.000 F 
ENDBRANCH   8  15
BRANCH  13  22
ATOM     22  C   UNL     1      -2.999  11.767  18.860  0.00  0.00    +0.000 A 
ATOM     23  C   UNL     1      -3.756  12.528  19.758  0.00  0.00    +0.000 A 
ATOM     24  C   UNL     1      -5.154  12.519  19.791  0.00  0.00    +0.000 A 
ATOM     25  C   UNL     1      -5.856  11.695  18.936  0.00  0.00    +0.000 A 
ATOM     26  C   UNL     1      -5.150  10.870  18.067  0.00  0.00    +0.000 A 
ATOM     27  C   UNL     1      -3.749  10.904  18.032  0.00  0.00    +0.000 A 
ENDBRANCH  13  22
BRANCH   1  29
ATOM     28  O   UNL     1       2.484  11.246  17.562  0.00  0.00    +0.000 OA
ATOM     29  C   UNL     1       1.639  10.987  18.421  0.00  0.00    +0.000 C 
ATOM     30  N   UNL     1       1.181   9.709  18.613  0.00  0.00    +0.000 N 
ATOM     31  H   UNL     1       0.643   9.527  19.463  0.00  0.00    +0.000 HD
BRANCH  30  32
ATOM     32  C   UNL     1       1.671   8.575  17.847  0.00  0.00    +0.000 C 
BRANCH  32  33
ATOM     33  C   UNL     1       2.745   7.751  18.574  0.00  0.00    +0.000 C 
ATOM     34  C   UNL     1       3.487   6.720  17.734  0.00  0.00    +0.000 C 
ATOM     35  C   UNL     1       3.911   5.716  18.774  0.00  0.00    +0.000 C 
ATOM     36  C   UNL     1       2.723   5.715  19.712  0.00  0.00    +0.000 C 
ATOM     37  O   UNL     1       2.172   7.038  19.691  0.00  0.00    +0.000 OA
ENDBRANCH  32  33
ENDBRANCH  30  32
ENDBRANCH   1  29
TORSDOF 5
ENDMDL
MODEL 2
REMARK VINA RESULT:      -7.5      1.990      2.588
REMARK  Name = 
REMARK  5 active torsions:
REMARK  status: ('A' for Active; 'I' for Inactive)
REMARK    1  A    between atoms: C_2  and  C_10
REMARK    2  A    between atoms: N_3  and  C_4
REMARK    3  A    between atoms: C_4  and  C_5
REMARK    4  A    between atoms: C_17  and  C_19
REMARK    5  A    between atoms: C_29  and  C_31
REMARK                            x       y       z     vdW  Elec       q    Type
REMARK                         _______ _______ _______ _____ _____    ______ ____
ROOT
ATOM      1  C   UNL     1       1.580   9.666  19.805  0.00  0.00    +0.000 C 
ATOM      2  C   UNL     1       1.997   9.617  21.267  0.00  0.00    +0.000 C 
ATOM      3  O   UNL     1       1.223  10.614  21.920  0.00  0.00    +0.000 OA
ATOM      4  C   UNL     1      -0.026  10.749  21.190  0.00  0.00    +0.000 C 
ATOM      5  C   UNL     1      -0.126  12.276  21.069  0.00  0.00    +0.000 C 
ATOM      6  C   UNL     1      -0.621  12.924  22.350  0.00  0.00    +0.000 C 
ATOM      7  N   UNL     1      -1.755  12.221  22.949  0.00  0.00    +0.000 N 
ATOM      8  C   UNL     1      -2.984  12.768  23.367  0.00  0.00    +0.000 C 
ATOM      9  O   UNL     1      -3.870  12.054  23.835  0.00  0.00    +0.000 OA
ATOM     10  C   UNL     1      -1.494  10.812  23.264  0.00  0.00    +0.000 C 
ATOM     11  C   UNL     1      -1.072  10.010  22.039  0.00  0.00    +0.000 C 
ATOM     12  N   UNL     1       0.174  10.097  19.893  0.00  0.00    +0.000 N 
ATOM     13  C   UNL     1      -0.621  10.180  18.737  0.00  0.00    +0.000 C 
ATOM     14  O   UNL     1      -0.127   9.811  17.663  0.00  0.00    +0.000 OA
ENDROOT
BRANCH   8  15
ATOM     15  C   UNL     1      -3.279  14.225  23.263  0.00  0.00    +0.000 A 
ATOM     16  C   UNL     1      -3.737  14.824  22.082  0.00  0.00    +0.000 A 
ATOM     17  C   UNL     1      -4.054  16.185  22.043  0.00  0.00    +0.000 A 
ATOM     18  C   UNL     1      -3.810  16.992  23.151  0.00  0.00    +0.000 A 
ATOM     19  C   UNL     1      -3.260  16.432  24.301  0.00  0.00    +0.000 A 
ATOM     20  C   UNL     1      -3.016  15.058  24.360  0.00  0.00    +0.000 A 
ATOM     21  F   UNL     1      -2.532  14.566  25.510  0.00  0.00    +0.000 F 
ENDBRANCH   8  15
BRANCH  13  22
ATOM     22  C   UNL     1      -2.055  10.683  18.658  0.00  0.00    +0.000 A 
ATOM     23  C   UNL     1      -2.605  11.811  19.278  0.00  0.00    +0.000 A 
ATOM     24  C   UNL     1      -3.900  12.274  19.030  0.00  0.00    +0.000 A 
ATOM     25  C   UNL     1      -4.724  11.583  18.165  0.00  0.00    +0.000 A 
ATOM     26  C   UNL     1      -4.247  10.419  17.571  0.00  0.00    +0.000 A 
ATOM     27  C   UNL     1      -2.940   9.977  17.814  0.00  0.00    +0.000 A 
ENDBRANCH  13  22
BRANCH   1  29
ATOM     28  O   UNL     1       2.011   8.090  17.984  0.00  0.00    +0.000 OA
ATOM     29  C   UNL     1       1.992   8.306  19.197  0.00  0.00    +0.000 C 
ATOM     30  N   UNL     1       2.207   7.303  20.107  0.00  0.00    +0.000 N 
ATOM     31  H   UNL     1       2.380   7.579  21.076  0.00  0.00    +0.000 HD
BRANCH  30  32
ATOM     32  C   UNL     1       2.499   5.934  19.714  0.00  0.00    +0.000 C 
BRANCH  32  33
ATOM     33  C   UNL     1       1.584   4.891  20.372  0.00  0.00    +0.000 C 
ATOM     34  C   UNL     1       2.219   4.020  21.448  0.00  0.00    +0.000 C 
ATOM     35  C   UNL     1       1.365   2.779  21.391  0.00  0.00    +0.000 C 
ATOM     36  C   UNL     1       1.085   2.659  19.909  0.00  0.00    +0.000 C 
ATOM     37  O   UNL     1       1.040   3.991  19.382  0.00  0.00    +0.000 OA
ENDBRANCH  32  33
ENDBRANCH  30  32
ENDBRANCH   1  29
TORSDOF 5
ENDMDL
MODEL 3
REMARK VINA RESULT:      -7.4      2.519      3.856
REMARK  Name = 
REMARK  5 active torsions:
REMARK  status: ('A' for Active; 'I' for Inactive)
REMARK    1  A    between atoms: C_2  and  C_10
REMARK    2  A    between atoms: N_3  and  C_4
REMARK    3  A    between atoms: C_4  and  C_5
REMARK    4  A    between atoms: C_17  and  C_19
REMARK    5  A    between atoms: C_29  and  C_31
REMARK                            x       y       z     vdW  Elec       q    Type
REMARK                         _______ _______ _______ _____ _____    ______ ____
ROOT
ATOM      1  C   UNL     1       0.929  10.207  20.019  0.00  0.00    +0.000 C 
ATOM      2  C   UNL     1      -0.278   9.576  20.698  0.00  0.00    +0.000 C 
ATOM      3  O   UNL     1      -0.880  10.618  21.456  0.00  0.00    +0.000 OA
ATOM      4  C   UNL     1      -0.592  11.873  20.783  0.00  0.00    +0.000 C 
ATOM      5  C   UNL     1      -0.134  12.736  21.966  0.00  0.00    +0.000 C 
ATOM      6  C   UNL     1      -1.303  13.259  22.784  0.00  0.00    +0.000 C 
ATOM      7  N   UNL     1      -2.396  13.772  21.959  0.00  0.00    +0.000 N 
ATOM      8  C   UNL     1      -3.046  15.018  22.068  0.00  0.00    +0.000 C 
ATOM      9  O   UNL     1      -3.942  15.337  21.287  0.00  0.00    +0.000 OA
ATOM     10  C   UNL     1      -2.949  12.796  21.013  0.00  0.00    +0.000 C 
ATOM     11  C   UNL     1      -1.894  12.251  20.059  0.00  0.00    +0.000 C 
ATOM     12  N   UNL     1       0.493  11.602  19.836  0.00  0.00    +0.000 N 
ATOM     13  C   UNL     1       1.305  12.519  19.146  0.00  0.00    +0.000 C 
ATOM     14  O   UNL     1       2.354  12.099  18.638  0.00  0.00    +0.000 OA
ENDROOT
BRANCH   8  15
ATOM     15  C   UNL     1      -2.686  16.010  23.120  0.00  0.00    +0.000 A 
ATOM     16  C   UNL     1      -3.488  16.249  24.244  0.00  0.00    +0.000 A 
ATOM     17  C   UNL     1      -3.087  17.149  25.235  0.00  0.00    +0.000 A 
ATOM     18  C   UNL     1      -1.933  17.908  25.064  0.00  0.00    +0.000 A 
ATOM     19  C   UNL     1      -1.176  17.756  23.906  0.00  0.00    +0.000 A 
ATOM     20  C   UNL     1      -1.541  16.802  22.953  0.00  0.00    +0.000 A 
ATOM     21  F   UNL     1      -0.748  16.665  21.881  0.00  0.00    +0.000 F 
ENDBRANCH   8  15
BRANCH  13  22
ATOM     22  C   UNL     1       1.030  14.002  18.947  0.00  0.00    +0.000 A 
ATOM     23  C   UNL     1      -0.191  14.615  18.642  0.00  0.00    +0.000 A 
ATOM     24  C   UNL     1      -0.374  16.001  18.621  0.00  0.00    +0.000 A 
ATOM     25  C   UNL     1       0.693  16.840  18.868  0.00  0.00    +0.000 A 
ATOM     26  C   UNL     1       1.943  16.282  19.113  0.00  0.00    +0.000 A 
ATOM     27  C   UNL     1       2.108  14.890  19.150  0.00  0.00    +0.000 A 
ENDBRANCH  13  22
BRANCH   1  29
ATOM     28  O   UNL     1       0.766   9.402  17.715  0.00  0.00    +0.000 OA
ATOM     29  C   UNL     1       1.279   9.286  18.828  0.00  0.00    +0.000 C 
ATOM     30  N   UNL     1       2.108   8.235  19.129  0.00  0.00    +0.000 N 
ATOM     31  H   UNL     1       2.657   8.304  19.988  0.00  0.00    +0.000 HD
BRANCH  30  32
ATOM     32  C   UNL     1       2.459   7.210  18.162  0.00  0.00    +0.000 C 
BRANCH  32  33
ATOM     33  C   UNL     1       2.597   5.805  18.767  0.00  0.00    +0.000 C 
ATOM     34  C   UNL     1       1.820   4.693  18.074  0.00  0.00    +0.000 C 
ATOM     35  C   UNL     1       1.620   3.706  19.196  0.00  0.00    +0.000 C 
ATOM     36  C   UNL     1       1.402   4.618  20.383  0.00  0.00    +0.000 C 
ATOM     37  O   UNL     1       2.178   5.801  20.149  0.00  0.00    +0.000 OA
ENDBRANCH  32  33
ENDBRANCH  30  32
ENDBRANCH   1  29
TORSDOF 5
ENDMDL
MODEL 4
REMARK VINA RESULT:      -7.4      1.869      2.406
REMARK  Name = 
REMARK  5 active torsions:
REMARK  status: ('A' for Active; 'I' for Inactive)
REMARK    1  A    between atoms: C_2  and  C_10
REMARK    2  A    between atoms: N_3  and  C_4
REMARK    3  A    between atoms: C_4  and  C_5
REMARK    4  A    between atoms: C_17  and  C_19
REMARK    5  A    between atoms: C_29  and  C_31
REMARK                            x       y       z     vdW  Elec       q    Type
REMARK                         _______ _______ _______ _____ _____    ______ ____
ROOT
ATOM      1  C   UNL     1       1.594   9.597  19.795  0.00  0.00    +0.000 C 
ATOM      2  C   UNL     1       2.017   9.532  21.255  0.00  0.00    +0.000 C 
ATOM      3  O   UNL     1       1.254  10.529  21.920  0.00  0.00    +0.000 OA
ATOM      4  C   UNL     1       0.003  10.680  21.197  0.00  0.00    +0.000 C 
ATOM      5  C   UNL     1      -0.085  12.208  21.090  0.00  0.00    +0.000 C 
ATOM      6  C   UNL     1      -0.569  12.849  22.379  0.00  0.00    +0.000 C 
ATOM      7  N   UNL     1      -1.706  12.150  22.976  0.00  0.00    +0.000 N 
ATOM      8  C   UNL     1      -2.929  12.702  23.405  0.00  0.00    +0.000 C 
ATOM      9  O   UNL     1      -3.818  11.991  23.870  0.00  0.00    +0.000 OA
ATOM     10  C   UNL     1      -1.455  10.736  23.278  0.00  0.00    +0.000 C 
ATOM     11  C   UNL     1      -1.045   9.942  22.044  0.00  0.00    +0.000 C 
ATOM     12  N   UNL     1       0.192  10.038  19.893  0.00  0.00    +0.000 N 
ATOM     13  C   UNL     1      -0.607  10.138  18.741  0.00  0.00    +0.000 C 
ATOM     14  O   UNL     1      -0.120   9.775  17.662  0.00  0.00    +0.000 OA
ENDROOT
BRANCH   8  15
ATOM     15  C   UNL     1      -3.213  14.163  23.316  0.00  0.00    +0.000 A 
ATOM     16  C   UNL     1      -2.620  15.104  24.168  0.00  0.00    +0.000 A 
ATOM     17  C   UNL     1      -2.872  16.471  24.015  0.00  0.00    +0.000 A 
ATOM     18  C   UNL     1      -3.808  16.909  23.082  0.00  0.00    +0.000 A 
ATOM     19  C   UNL     1      -4.481  15.978  22.295  0.00  0.00    +0.000 A 
ATOM     20  C   UNL     1      -4.171  14.621  22.400  0.00  0.00    +0.000 A 
ATOM     21  F   UNL     1      -4.815  13.776  21.582  0.00  0.00    +0.000 F 
ENDBRANCH   8  15
BRANCH  13  22
ATOM     22  C   UNL     1      -2.037  10.653  18.673  0.00  0.00    +0.000 A 
ATOM     23  C   UNL     1      -2.560  11.815  19.251  0.00  0.00    +0.000 A 
ATOM     24  C   UNL     1      -3.856  12.281  19.012  0.00  0.00    +0.000 A 
ATOM     25  C   UNL     1      -4.708  11.559  18.202  0.00  0.00    +0.000 A 
ATOM     26  C   UNL     1      -4.259  10.361  17.654  0.00  0.00    +0.000 A 
ATOM     27  C   UNL     1      -2.950   9.917  17.887  0.00  0.00    +0.000 A 
ENDBRANCH  13  22
BRANCH   1  29
ATOM     28  O   UNL     1       1.989   8.029  17.959  0.00  0.00    +0.000 OA
ATOM     29  C   UNL     1       1.993   8.239  19.173  0.00  0.00    +0.000 C 
ATOM     30  N   UNL     1       2.225   7.231  20.074  0.00  0.00    +0.000 N 
ATOM     31  H   UNL     1       2.416   7.503  21.040  0.00  0.00    +0.000 HD
BRANCH  30  32
ATOM     32  C   UNL     1       2.506   5.864  19.669  0.00  0.00    +0.000 C 
BRANCH  32  33
ATOM     33  C   UNL     1       1.584   4.821  20.318  0.00  0.00    +0.000 C 
ATOM     34  C   UNL     1       2.195   3.984  21.434  0.00  0.00    +0.000 C 
ATOM     35  C   UNL     1       1.361   2.729  21.374  0.00  0.00    +0.000 C 
ATOM     36  C   UNL     1       1.134   2.573  19.887  0.00  0.00    +0.000 C 
ATOM     37  O   UNL     1       1.088   3.893  19.330  0.00  0.00    +0.000 OA
ENDBRANCH  32  33
ENDBRANCH  30  32
ENDBRANCH   1  29
TORSDOF 5
ENDMDL
MODEL 5
REMARK VINA RESULT:      -7.4      2.318      3.683
REMARK  Name = 
REMARK  5 active torsions:
REMARK  status: ('A' for Active; 'I' for Inactive)
REMARK    1  A    between atoms: C_2  and  C_10
REMARK    2  A    between atoms: N_3  and  C_4
REMARK    3  A    between atoms: C_4  and  C_5
REMARK    4  A    between atoms: C_17  and  C_19
REMARK    5  A    between atoms: C_29  and  C_31
REMARK                            x       y       z     vdW  Elec       q    Type
REMARK                         _______ _______ _______ _____ _____    ______ ____
ROOT
ATOM      1  C   UNL     1       1.026  10.112  19.958  0.00  0.00    +0.000 C 
ATOM      2  C   UNL     1      -0.158   9.467  20.663  0.00  0.00    +0.000 C 
ATOM      3  O   UNL     1      -0.768  10.505  21.417  0.00  0.00    +0.000 OA
ATOM      4  C   UNL     1      -0.515  11.758  20.725  0.00  0.00    +0.000 C 
ATOM      5  C   UNL     1      -0.056  12.644  21.891  0.00  0.00    +0.000 C 
ATOM      6  C   UNL     1      -1.222  13.154  22.720  0.00  0.00    +0.000 C 
ATOM      7  N   UNL     1      -2.337  13.636  21.907  0.00  0.00    +0.000 N 
ATOM      8  C   UNL     1      -3.009  14.870  22.011  0.00  0.00    +0.000 C 
ATOM      9  O   UNL     1      -3.922  15.162  21.240  0.00  0.00    +0.000 OA
ATOM     10  C   UNL     1      -2.885  12.638  20.980  0.00  0.00    +0.000 C 
ATOM     11  C   UNL     1      -1.834  12.101  20.017  0.00  0.00    +0.000 C 
ATOM     12  N   UNL     1       0.561  11.496  19.765  0.00  0.00    +0.000 N 
ATOM     13  C   UNL     1       1.345  12.420  19.052  0.00  0.00    +0.000 C 
ATOM     14  O   UNL     1       2.394  12.014  18.533  0.00  0.00    +0.000 OA
ENDROOT
BRANCH   8  15
ATOM     15  C   UNL     1      -2.652  15.881  23.046  0.00  0.00    +0.000 A 
ATOM     16  C   UNL     1      -1.665  16.856  22.846  0.00  0.00    +0.000 A 
ATOM     17  C   UNL     1      -1.399  17.820  23.822  0.00  0.00    +0.000 A 
ATOM     18  C   UNL     1      -2.036  17.757  25.059  0.00  0.00    +0.000 A 
ATOM     19  C   UNL     1      -2.946  16.735  25.311  0.00  0.00    +0.000 A 
ATOM     20  C   UNL     1      -3.264  15.818  24.306  0.00  0.00    +0.000 A 
ATOM     21  F   UNL     1      -4.184  14.885  24.589  0.00  0.00    +0.000 F 
ENDBRANCH   8  15
BRANCH  13  22
ATOM     22  C   UNL     1       1.038  13.895  18.840  0.00  0.00    +0.000 A 
ATOM     23  C   UNL     1      -0.209  14.489  18.614  0.00  0.00    +0.000 A 
ATOM     24  C   UNL     1      -0.410  15.872  18.575  0.00  0.00    +0.000 A 
ATOM     25  C   UNL     1       0.663  16.727  18.720  0.00  0.00    +0.000 A 
ATOM     26  C   UNL     1       1.935  16.187  18.882  0.00  0.00    +0.000 A 
ATOM     27  C   UNL     1       2.118  14.798  18.939  0.00  0.00    +0.000 A 
ENDBRANCH  13  22
BRANCH   1  29
ATOM     28  O   UNL     1       0.850   9.281  17.664  0.00  0.00    +0.000 OA
ATOM     29  C   UNL     1       1.377   9.184  18.773  0.00  0.00    +0.000 C 
ATOM     30  N   UNL     1       2.223   8.147  19.075  0.00  0.00    +0.000 N 
ATOM     31  H   UNL     1       2.781   8.232  19.928  0.00  0.00    +0.000 HD
BRANCH  30  32
ATOM     32  C   UNL     1       2.578   7.116  18.114  0.00  0.00    +0.000 C 
BRANCH  32  33
ATOM     33  C   UNL     1       2.646   5.704  18.715  0.00  0.00    +0.000 C 
ATOM     34  C   UNL     1       1.834   4.629  18.004  0.00  0.00    +0.000 C 
ATOM     35  C   UNL     1       1.575   3.647  19.117  0.00  0.00    +0.000 C 
ATOM     36  C   UNL     1       1.377   4.562  20.305  0.00  0.00    +0.000 C 
ATOM     37  O   UNL     1       2.205   5.712  20.089  0.00  0.00    +0.000 OA
ENDBRANCH  32  33
ENDBRANCH  30  32
ENDBRANCH   1  29
TORSDOF 5
ENDMDL
MODEL 6
REMARK VINA RESULT:      -7.3      2.896      4.792
REMARK  Name = 
REMARK  5 active torsions:
REMARK  status: ('A' for Active; 'I' for Inactive)
REMARK    1  A    between atoms: C_2  and  C_10
REMARK    2  A    between atoms: N_3  and  C_4
REMARK    3  A    between atoms: C_4  and  C_5
REMARK    4  A    between atoms: C_17  and  C_19
REMARK    5  A    between atoms: C_29  and  C_31
REMARK                            x       y       z     vdW  Elec       q    Type
REMARK                         _______ _______ _______ _____ _____    ______ ____
ROOT
ATOM      1  C   UNL     1       1.222   9.688  18.819  0.00  0.00    +0.000 C 
ATOM      2  C   UNL     1       2.434  10.368  18.199  0.00  0.00    +0.000 C 
ATOM      3  O   UNL     1       2.093  11.744  18.103  0.00  0.00    +0.000 OA
ATOM      4  C   UNL     1       1.157  12.041  19.174  0.00  0.00    +0.000 C 
ATOM      5  C   UNL     1       0.083  12.826  18.408  0.00  0.00    +0.000 C 
ATOM      6  C   UNL     1       0.493  14.266  18.154  0.00  0.00    +0.000 C 
ATOM      7  N   UNL     1       1.091  14.908  19.324  0.00  0.00    +0.000 N 
ATOM      8  C   UNL     1       0.746  16.149  19.895  0.00  0.00    +0.000 C 
ATOM      9  O   UNL     1       1.317  16.564  20.903  0.00  0.00    +0.000 OA
ATOM     10  C   UNL     1       2.275  14.221  19.852  0.00  0.00    +0.000 C 
ATOM     11  C   UNL     1       1.983  12.777  20.240  0.00  0.00    +0.000 C 
ATOM     12  N   UNL     1       0.663  10.753  19.668  0.00  0.00    +0.000 N 
ATOM     13  C   UNL     1      -0.440  10.497  20.501  0.00  0.00    +0.000 C 
ATOM     14  O   UNL     1      -0.874   9.338  20.552  0.00  0.00    +0.000 OA
ENDROOT
BRANCH   8  15
ATOM     15  C   UNL     1      -0.321  17.017  19.321  0.00  0.00    +0.000 A 
ATOM     16  C   UNL     1      -0.102  17.864  18.226  0.00  0.00    +0.000 A 
ATOM     17  C   UNL     1      -1.144  18.621  17.683  0.00  0.00    +0.000 A 
ATOM     18  C   UNL     1      -2.394  18.630  18.297  0.00  0.00    +0.000 A 
ATOM     19  C   UNL     1      -2.601  17.872  19.445  0.00  0.00    +0.000 A 
ATOM     20  C   UNL     1      -1.578  17.059  19.940  0.00  0.00    +0.000 A 
ATOM     21  F   UNL     1      -1.850  16.313  21.020  0.00  0.00    +0.000 F 
ENDBRANCH   8  15
BRANCH  13  22
ATOM     22  C   UNL     1      -1.175  11.509  21.368  0.00  0.00    +0.000 A 
ATOM     23  C   UNL     1      -0.914  11.847  22.701  0.00  0.00    +0.000 A 
ATOM     24  C   UNL     1      -1.553  12.894  23.371  0.00  0.00    +0.000 A 
ATOM     25  C   UNL     1      -2.527  13.630  22.728  0.00  0.00    +0.000 A 
ATOM     26  C   UNL     1      -2.869  13.294  21.422  0.00  0.00    +0.000 A 
ATOM     27  C   UNL     1      -2.207  12.253  20.756  0.00  0.00    +0.000 A 
ENDBRANCH  13  22
BRANCH   1  29
ATOM     28  O   UNL     1       1.836   8.137  20.609  0.00  0.00    +0.000 OA
ATOM     29  C   UNL     1       1.733   8.349  19.400  0.00  0.00    +0.000 C 
ATOM     30  N   UNL     1       2.198   7.452  18.472  0.00  0.00    +0.000 N 
ATOM     31  H   UNL     1       1.904   7.586  17.503  0.00  0.00    +0.000 HD
BRANCH  30  32
ATOM     32  C   UNL     1       2.812   6.187  18.842  0.00  0.00    +0.000 C 
BRANCH  32  33
ATOM     33  C   UNL     1       1.808   5.039  19.025  0.00  0.00    +0.000 C 
ATOM     34  C   UNL     1       1.479   4.655  20.462  0.00  0.00    +0.000 C 
ATOM     35  C   UNL     1       1.073   3.211  20.314  0.00  0.00    +0.000 C 
ATOM     36  C   UNL     1       2.022   2.726  19.241  0.00  0.00    +0.000 C 
ATOM     37  O   UNL     1       2.281   3.840  18.376  0.00  0.00    +0.000 OA
ENDBRANCH  32  33
ENDBRANCH  30  32
ENDBRANCH   1  29
TORSDOF 5
ENDMDL
MODEL 7
REMARK VINA RESULT:      -7.2      1.180      1.431
REMARK  Name = 
REMARK  5 active torsions:
REMARK  status: ('A' for Active; 'I' for Inactive)
REMARK    1  A    between atoms: C_2  and  C_10
REMARK    2  A    between atoms: N_3  and  C_4
REMARK    3  A    between atoms: C_4  and  C_5
REMARK    4  A    between atoms: C_17  and  C_19
REMARK    5  A    between atoms: C_29  and  C_31
REMARK                            x       y       z     vdW  Elec       q    Type
REMARK                         _______ _______ _______ _____ _____    ______ ____
ROOT
ATOM      1  C   UNL     1       1.018  11.035  19.284  0.00  0.00    +0.000 C 
ATOM      2  C   UNL     1       1.666  10.966  20.659  0.00  0.00    +0.000 C 
ATOM      3  O   UNL     1       0.843  11.751  21.510  0.00  0.00    +0.000 OA
ATOM      4  C   UNL     1      -0.511  11.698  20.984  0.00  0.00    +0.000 C 
ATOM      5  C   UNL     1      -0.896  13.182  21.027  0.00  0.00    +0.000 C 
ATOM      6  C   UNL     1      -1.287  13.637  22.423  0.00  0.00    +0.000 C 
ATOM      7  N   UNL     1      -2.169  12.693  23.108  0.00  0.00    +0.000 N 
ATOM      8  C   UNL     1      -3.392  12.967  23.750  0.00  0.00    +0.000 C 
ATOM      9  O   UNL     1      -4.052  12.069  24.270  0.00  0.00    +0.000 OA
ATOM     10  C   UNL     1      -1.616  11.340  23.245  0.00  0.00    +0.000 C 
ATOM     11  C   UNL     1      -1.261  10.718  21.900  0.00  0.00    +0.000 C 
ATOM     12  N   UNL     1      -0.409  11.185  19.615  0.00  0.00    +0.000 N 
ATOM     13  C   UNL     1      -1.380  11.196  18.599  0.00  0.00    +0.000 C 
ATOM     14  O   UNL     1      -1.006  11.001  17.435  0.00  0.00    +0.000 OA
ENDROOT
BRANCH   8  15
ATOM     15  C   UNL     1      -3.952  14.346  23.831  0.00  0.00    +0.000 A 
ATOM     16  C   UNL     1      -4.766  14.895  22.831  0.00  0.00    +0.000 A 
ATOM     17  C   UNL     1      -5.315  16.172  22.971  0.00  0.00    +0.000 A 
ATOM     18  C   UNL     1      -4.967  16.967  24.061  0.00  0.00    +0.000 A 
ATOM     19  C   UNL     1      -4.080  16.475  25.014  0.00  0.00    +0.000 A 
ATOM     20  C   UNL     1      -3.593  15.170  24.907  0.00  0.00    +0.000 A 
ATOM     21  F   UNL     1      -2.781  14.733  25.881  0.00  0.00    +0.000 F 
ENDBRANCH   8  15
BRANCH  13  22
ATOM     22  C   UNL     1      -2.874  11.422  18.777  0.00  0.00    +0.000 A 
ATOM     23  C   UNL     1      -3.509  12.338  19.624  0.00  0.00    +0.000 A 
ATOM     24  C   UNL     1      -4.887  12.574  19.613  0.00  0.00    +0.000 A 
ATOM     25  C   UNL     1      -5.701  11.854  18.763  0.00  0.00    +0.000 A 
ATOM     26  C   UNL     1      -5.128  10.885  17.945  0.00  0.00    +0.000 A 
ATOM     27  C   UNL     1      -3.742  10.673  17.953  0.00  0.00    +0.000 A 
ENDBRANCH  13  22
BRANCH   1  29
ATOM     28  O   UNL     1       1.915   9.890  17.316  0.00  0.00    +0.000 OA
ATOM     29  C   UNL     1       1.561   9.821  18.494  0.00  0.00    +0.000 C 
ATOM     30  N   UNL     1       1.498   8.621  19.155  0.00  0.00    +0.000 N 
ATOM     31  H   UNL     1       1.398   8.651  20.172  0.00  0.00    +0.000 HD
BRANCH  30  32
ATOM     32  C   UNL     1       1.865   7.361  18.531  0.00  0.00    +0.000 C 
BRANCH  32  33
ATOM     33  C   UNL     1       2.955   6.587  19.288  0.00  0.00    +0.000 C 
ATOM     34  C   UNL     1       4.114   6.063  18.450  0.00  0.00    +0.000 C 
ATOM     35  C   UNL     1       4.582   4.886  19.267  0.00  0.00    +0.000 C 
ATOM     36  C   UNL     1       3.278   4.333  19.798  0.00  0.00    +0.000 C 
ATOM     37  O   UNL     1       2.391   5.447  19.971  0.00  0.00    +0.000 OA
ENDBRANCH  32  33
ENDBRANCH  30  32
ENDBRANCH   1  29
TORSDOF 5
ENDMDL
MODEL 8
REMARK VINA RESULT:      -7.2      3.281      5.104
REMARK  Name = 
REMARK  5 active torsions:
REMARK  status: ('A' for Active; 'I' for Inactive)
REMARK    1  A    between atoms: C_2  and  C_10
REMARK    2  A    between atoms: N_3  and  C_4
REMARK    3  A    between atoms: C_4  and  C_5
REMARK    4  A    between atoms: C_17  and  C_19
REMARK    5  A    between atoms: C_29  and  C_31
REMARK                            x       y       z     vdW  Elec       q    Type
REMARK                         _______ _______ _______ _____ _____    ______ ____
ROOT
ATOM      1  C   UNL     1       1.324   9.613  18.757  0.00  0.00    +0.000 C 
ATOM      2  C   UNL     1       2.563  10.291  18.191  0.00  0.00    +0.000 C 
ATOM      3  O   UNL     1       2.233  11.670  18.089  0.00  0.00    +0.000 OA
ATOM      4  C   UNL     1       1.256  11.965  19.124  0.00  0.00    +0.000 C 
ATOM      5  C   UNL     1       0.217  12.759  18.321  0.00  0.00    +0.000 C 
ATOM      6  C   UNL     1       0.644  14.199  18.092  0.00  0.00    +0.000 C 
ATOM      7  N   UNL     1       1.198  14.831  19.288  0.00  0.00    +0.000 N 
ATOM      8  C   UNL     1       0.836  16.070  19.854  0.00  0.00    +0.000 C 
ATOM      9  O   UNL     1       1.368  16.476  20.886  0.00  0.00    +0.000 OA
ATOM     10  C   UNL     1       2.356  14.135  19.859  0.00  0.00    +0.000 C 
ATOM     11  C   UNL     1       2.043  12.690  20.227  0.00  0.00    +0.000 C 
ATOM     12  N   UNL     1       0.737  10.676  19.590  0.00  0.00    +0.000 N 
ATOM     13  C   UNL     1      -0.400  10.421  20.376  0.00  0.00    +0.000 C 
ATOM     14  O   UNL     1      -0.841   9.264  20.403  0.00  0.00    +0.000 OA
ENDROOT
BRANCH   8  15
ATOM     15  C   UNL     1      -0.203  16.947  19.242  0.00  0.00    +0.000 A 
ATOM     16  C   UNL     1      -1.523  17.000  19.711  0.00  0.00    +0.000 A 
ATOM     17  C   UNL     1      -2.452  17.876  19.143  0.00  0.00    +0.000 A 
ATOM     18  C   UNL     1      -2.109  18.631  18.024  0.00  0.00    +0.000 A 
ATOM     19  C   UNL     1      -0.831  18.515  17.484  0.00  0.00    +0.000 A 
ATOM     20  C   UNL     1       0.116  17.694  18.100  0.00  0.00    +0.000 A 
ATOM     21  F   UNL     1       1.345  17.660  17.564  0.00  0.00    +0.000 F 
ENDBRANCH   8  15
BRANCH  13  22
ATOM     22  C   UNL     1      -1.164  11.431  21.220  0.00  0.00    +0.000 A 
ATOM     23  C   UNL     1      -1.983  12.475  20.775  0.00  0.00    +0.000 A 
ATOM     24  C   UNL     1      -2.760  13.264  21.629  0.00  0.00    +0.000 A 
ATOM     25  C   UNL     1      -2.709  13.058  22.992  0.00  0.00    +0.000 A 
ATOM     26  C   UNL     1      -1.861  12.074  23.491  0.00  0.00    +0.000 A 
ATOM     27  C   UNL     1      -1.102  11.278  22.622  0.00  0.00    +0.000 A 
ENDBRANCH  13  22
BRANCH   1  29
ATOM     28  O   UNL     1       1.850   8.045  20.561  0.00  0.00    +0.000 OA
ATOM     29  C   UNL     1       1.806   8.269  19.350  0.00  0.00    +0.000 C 
ATOM     30  N   UNL     1       2.313   7.378  18.438  0.00  0.00    +0.000 N 
ATOM     31  H   UNL     1       2.066   7.522  17.457  0.00  0.00    +0.000 HD
BRANCH  30  32
ATOM     32  C   UNL     1       2.907   6.110  18.825  0.00  0.00    +0.000 C 
BRANCH  32  33
ATOM     33  C   UNL     1       1.906   4.946  18.882  0.00  0.00    +0.000 C 
ATOM     34  C   UNL     1       1.461   4.507  20.271  0.00  0.00    +0.000 C 
ATOM     35  C   UNL     1       1.087   3.066  20.038  0.00  0.00    +0.000 C 
ATOM     36  C   UNL     1       2.130   2.629  19.033  0.00  0.00    +0.000 C 
ATOM     37  O   UNL     1       2.447   3.776  18.233  0.00  0.00    +0.000 OA
ENDBRANCH  32  33
ENDBRANCH  30  32
ENDBRANCH   1  29
TORSDOF 5
ENDMDL
MODEL 9
REMARK VINA RESULT:      -7.2      3.480      5.260
REMARK  Name = 
REMARK  5 active torsions:
REMARK  status: ('A' for Active; 'I' for Inactive)
REMARK    1  A    between atoms: C_2  and  C_10
REMARK    2  A    between atoms: N_3  and  C_4
REMARK    3  A    between atoms: C_4  and  C_5
REMARK    4  A    between atoms: C_17  and  C_19
REMARK    5  A    between atoms: C_29  and  C_31
REMARK                            x       y       z     vdW  Elec       q    Type
REMARK                         _______ _______ _______ _____ _____    ______ ____
ROOT
ATOM      1  C   UNL     1       1.365  16.309  20.462  0.00  0.00    +0.000 C 
ATOM      2  C   UNL     1       0.947  16.897  21.803  0.00  0.00    +0.000 C 
ATOM      3  O   UNL     1      -0.362  16.400  22.047  0.00  0.00    +0.000 OA
ATOM      4  C   UNL     1      -0.473  15.111  21.387  0.00  0.00    +0.000 C 
ATOM      5  C   UNL     1      -1.826  15.266  20.679  0.00  0.00    +0.000 C 
ATOM      6  C   UNL     1      -2.998  15.061  21.624  0.00  0.00    +0.000 C 
ATOM      7  N   UNL     1      -2.828  13.909  22.507  0.00  0.00    +0.000 N 
ATOM      8  C   UNL     1      -3.739  12.859  22.738  0.00  0.00    +0.000 C 
ATOM      9  O   UNL     1      -3.459  11.929  23.493  0.00  0.00    +0.000 OA
ATOM     10  C   UNL     1      -1.621  13.957  23.340  0.00  0.00    +0.000 C 
ATOM     11  C   UNL     1      -0.348  14.070  22.511  0.00  0.00    +0.000 C 
ATOM     12  N   UNL     1       0.645  15.024  20.445  0.00  0.00    +0.000 N 
ATOM     13  C   UNL     1       0.837  14.114  19.391  0.00  0.00    +0.000 C 
ATOM     14  O   UNL     1       1.678  14.393  18.526  0.00  0.00    +0.000 OA
ENDROOT
BRANCH   8  15
ATOM     15  C   UNL     1      -5.077  12.813  22.083  0.00  0.00    +0.000 A 
ATOM     16  C   UNL     1      -6.274  13.001  22.787  0.00  0.00    +0.000 A 
ATOM     17  C   UNL     1      -7.505  13.004  22.125  0.00  0.00    +0.000 A 
ATOM     18  C   UNL     1      -7.569  12.706  20.766  0.00  0.00    +0.000 A 
ATOM     19  C   UNL     1      -6.398  12.418  20.071  0.00  0.00    +0.000 A 
ATOM     20  C   UNL     1      -5.164  12.490  20.721  0.00  0.00    +0.000 A 
ATOM     21  F   UNL     1      -4.066  12.250  19.989  0.00  0.00    +0.000 F 
ENDBRANCH   8  15
BRANCH  13  22
ATOM     22  C   UNL     1       0.110  12.792  19.193  0.00  0.00    +0.000 A 
ATOM     23  C   UNL     1       0.220  11.628  19.962  0.00  0.00    +0.000 A 
ATOM     24  C   UNL     1      -0.598  10.507  19.788  0.00  0.00    +0.000 A 
ATOM     25  C   UNL     1      -1.547  10.497  18.787  0.00  0.00    +0.000 A 
ATOM     26  C   UNL     1      -1.655  11.605  17.952  0.00  0.00    +0.000 A 
ATOM     27  C   UNL     1      -0.841  12.729  18.151  0.00  0.00    +0.000 A 
ENDBRANCH  13  22
BRANCH   1  29
ATOM     28  O   UNL     1       3.604  16.476  21.434  0.00  0.00    +0.000 OA
ATOM     29  C   UNL     1       2.908  16.394  20.420  0.00  0.00    +0.000 C 
ATOM     30  N   UNL     1       3.451  16.510  19.166  0.00  0.00    +0.000 N 
ATOM     31  H   UNL     1       2.865  16.233  18.376  0.00  0.00    +0.000 HD
BRANCH  30  32
ATOM     32  C   UNL     1       4.873  16.707  18.941  0.00  0.00    +0.000 C 
BRANCH  32  33
ATOM     33  C   UNL     1       5.701  15.416  19.032  0.00  0.00    +0.000 C 
ATOM     34  C   UNL     1       7.024  15.516  19.781  0.00  0.00    +0.000 C 
ATOM     35  C   UNL     1       7.824  14.405  19.150  0.00  0.00    +0.000 C 
ATOM     36  C   UNL     1       7.374  14.474  17.707  0.00  0.00    +0.000 C 
ATOM     37  O   UNL     1       6.010  14.913  17.715  0.00  0.00    +0.000 OA
ENDBRANCH  32  33
ENDBRANCH  30  32
ENDBRANCH   1  29
TORSDOF 5
ENDMDL
