MODEL 1
REMARK VINA RESULT:      -7.9      0.000      0.000
REMARK  Name = 
REMARK  8 active torsions:
REMARK  status: ('A' for Active; 'I' for Inactive)
REMARK    1  A    between atoms: C_1  and  N_2
REMARK    2  A    between atoms: C_3  and  C_5
REMARK    3  A    between atoms: C_5  and  C_6
REMARK    4  A    between atoms: C_8  and  N_9
REMARK    5  A    between atoms: N_14  and  C_15
REMARK    6  A    between atoms: C_15  and  C_16
REMARK    7  A    between atoms: C_26  and  O_27
REMARK    8  A    between atoms: C_28  and  O_29
REMARK                            x       y       z     vdW  Elec       q    Type
REMARK                         _______ _______ _______ _____ _____    ______ ____
ROOT
ATOM      1  N   UNL     1       2.237   6.569  19.610  0.00  0.00    +0.000 N 
ATOM      2  C   UNL     1       1.630   6.561  20.838  0.00  0.00    +0.000 A 
ATOM      3  N   UNL     1       1.145   7.746  21.156  0.00  0.00    +0.000 NA
ATOM      4  C   UNL     1       1.398   8.547  20.060  0.00  0.00    +0.000 A 
ATOM      5  C   UNL     1       1.109   9.903  19.782  0.00  0.00    +0.000 A 
ATOM      6  N   UNL     1       0.545  10.755  20.730  0.00  0.00    +0.000 N 
ATOM      7  N   UNL     1       1.482  10.382  18.563  0.00  0.00    +0.000 NA
ATOM      8  C   UNL     1       2.125   9.564  17.707  0.00  0.00    +0.000 A 
ATOM      9  N   UNL     1       2.463   8.263  17.877  0.00  0.00    +0.000 NA
ATOM     10  C   UNL     1       2.063   7.825  19.082  0.00  0.00    +0.000 A 
ATOM     11  H   UNL     1       0.219  10.248  21.549  0.00  0.00    +0.000 HD
ENDROOT
BRANCH   1  15
ATOM     12  C   UNL     1       3.848   3.372  19.410  0.00  0.00    +0.000 C 
ATOM     13  C   UNL     1       3.556   2.588  18.119  0.00  0.00    +0.000 C 
ATOM     14  O   UNL     1       2.727   4.241  19.666  0.00  0.00    +0.000 OA
ATOM     15  C   UNL     1       2.965   5.483  18.974  0.00  0.00    +0.000 C 
ATOM     16  C   UNL     1       4.489   5.678  18.945  0.00  0.00    +0.000 C 
ATOM     17  C   UNL     1       5.064   4.301  19.294  0.00  0.00    +0.000 C 
BRANCH  12  20
ATOM     18  C   UNL     1       5.564   0.527  21.333  0.00  0.00    +0.000 C 
ATOM     19  N   UNL     1       5.229   1.569  20.394  0.00  0.00    +0.000 N 
ATOM     20  C   UNL     1       4.104   2.357  20.554  0.00  0.00    +0.000 C 
ATOM     21  O   UNL     1       3.356   2.255  21.529  0.00  0.00    +0.000 OA
ATOM     22  H   UNL     1       5.877   1.767  19.636  0.00  0.00    +0.000 HD
ENDBRANCH  12  20
BRANCH  16  23
ATOM     23  O   UNL     1       5.020   6.127  17.694  0.00  0.00    +0.000 OA
ATOM     24  H   UNL     1       4.307   6.467  17.127  0.00  0.00    +0.000 HD
ENDBRANCH  16  23
BRANCH  17  25
ATOM     25  O   UNL     1       6.025   3.811  18.354  0.00  0.00    +0.000 OA
ATOM     26  H   UNL     1       5.928   4.341  17.538  0.00  0.00    +0.000 HD
ENDBRANCH  17  25
ENDBRANCH   1  15
BRANCH   6  27
ATOM     27  C   UNL     1      -0.308  11.837  20.277  0.00  0.00    +0.000 C 
BRANCH  27  28
ATOM     28  C   UNL     1      -1.446  12.105  21.240  0.00  0.00    +0.000 A 
ATOM     29  C   UNL     1      -2.547  12.885  20.856  0.00  0.00    +0.000 A 
ATOM     30  C   UNL     1      -3.597  13.121  21.749  0.00  0.00    +0.000 A 
ATOM     31  C   UNL     1      -3.556  12.584  23.032  0.00  0.00    +0.000 A 
ATOM     32  C   UNL     1      -2.469  11.811  23.430  0.00  0.00    +0.000 A 
ATOM     33  C   UNL     1      -1.423  11.578  22.535  0.00  0.00    +0.000 A 
ENDBRANCH  27  28
ENDBRANCH   6  27
TORSDOF 6
ENDMDL
MODEL 2
REMARK VINA RESULT:      -7.9      2.233      3.686
REMARK  Name = 
REMARK  8 active torsions:
REMARK  status: ('A' for Active; 'I' for Inactive)
REMARK    1  A    between atoms: C_1  and  N_2
REMARK    2  A    between atoms: C_3  and  C_5
REMARK    3  A    between atoms: C_5  and  C_6
REMARK    4  A    between atoms: C_8  and  N_9
REMARK    5  A    between atoms: N_14  and  C_15
REMARK    6  A    between atoms: C_15  and  C_16
REMARK    7  A    between atoms: C_26  and  O_27
REMARK    8  A    between atoms: C_28  and  O_29
REMARK                            x       y       z     vdW  Elec       q    Type
REMARK                         _______ _______ _______ _____ _____    ______ ____
ROOT
ATOM      1  N   UNL     1       2.936   7.509  18.371  0.00  0.00    +0.000 N 
ATOM      2  C   UNL     1       2.860   8.370  17.307  0.00  0.00    +0.000 A 
ATOM      3  N   UNL     1       1.952   9.308  17.497  0.00  0.00    +0.000 NA
ATOM      4  C   UNL     1       1.456   9.082  18.765  0.00  0.00    +0.000 A 
ATOM      5  C   UNL     1       0.481   9.750  19.543  0.00  0.00    +0.000 A 
ATOM      6  N   UNL     1      -0.278  10.805  19.040  0.00  0.00    +0.000 N 
ATOM      7  N   UNL     1       0.247   9.269  20.795  0.00  0.00    +0.000 NA
ATOM      8  C   UNL     1       0.919   8.180  21.215  0.00  0.00    +0.000 A 
ATOM      9  N   UNL     1       1.855   7.459  20.550  0.00  0.00    +0.000 NA
ATOM     10  C   UNL     1       2.069   7.975  19.329  0.00  0.00    +0.000 A 
ATOM     11  H   UNL     1       0.071  11.129  18.142  0.00  0.00    +0.000 HD
ENDROOT
BRANCH   1  15
ATOM     12  C   UNL     1       5.410   5.114  17.372  0.00  0.00    +0.000 C 
ATOM     13  C   UNL     1       6.309   4.608  18.513  0.00  0.00    +0.000 C 
ATOM     14  O   UNL     1       4.958   6.439  17.716  0.00  0.00    +0.000 OA
ATOM     15  C   UNL     1       3.743   6.305  18.480  0.00  0.00    +0.000 C 
ATOM     16  C   UNL     1       3.048   5.033  17.970  0.00  0.00    +0.000 C 
ATOM     17  C   UNL     1       4.133   4.283  17.189  0.00  0.00    +0.000 C 
BRANCH  12  20
ATOM     18  C   UNL     1       6.376   4.055  13.810  0.00  0.00    +0.000 C 
ATOM     19  N   UNL     1       5.699   4.258  15.067  0.00  0.00    +0.000 N 
ATOM     20  C   UNL     1       6.224   5.074  16.052  0.00  0.00    +0.000 C 
ATOM     21  O   UNL     1       7.266   5.715  15.896  0.00  0.00    +0.000 OA
ATOM     22  H   UNL     1       4.780   3.841  15.197  0.00  0.00    +0.000 HD
ENDBRANCH  12  20
BRANCH  16  23
ATOM     23  O   UNL     1       2.508   4.186  18.991  0.00  0.00    +0.000 OA
ATOM     24  H   UNL     1       3.200   3.607  19.352  0.00  0.00    +0.000 HD
ENDBRANCH  16  23
BRANCH  17  25
ATOM     25  O   UNL     1       4.317   2.924  17.595  0.00  0.00    +0.000 OA
ATOM     26  H   UNL     1       4.230   2.899  18.569  0.00  0.00    +0.000 HD
ENDBRANCH  17  25
ENDBRANCH   1  15
BRANCH   6  27
ATOM     27  C   UNL     1      -0.729  11.838  19.953  0.00  0.00    +0.000 C 
BRANCH  27  28
ATOM     28  C   UNL     1      -2.217  12.090  19.835  0.00  0.00    +0.000 A 
ATOM     29  C   UNL     1      -2.910  12.800  20.828  0.00  0.00    +0.000 A 
ATOM     30  C   UNL     1      -4.283  13.035  20.707  0.00  0.00    +0.000 A 
ATOM     31  C   UNL     1      -4.977  12.562  19.597  0.00  0.00    +0.000 A 
ATOM     32  C   UNL     1      -4.306  11.853  18.605  0.00  0.00    +0.000 A 
ATOM     33  C   UNL     1      -2.935  11.620  18.730  0.00  0.00    +0.000 A 
ENDBRANCH  27  28
ENDBRANCH   6  27
TORSDOF 6
ENDMDL
MODEL 3
REMARK VINA RESULT:      -7.9      2.091      3.521
REMARK  Name = 
REMARK  8 active torsions:
REMARK  status: ('A' for Active; 'I' for Inactive)
REMARK    1  A    between atoms: C_1  and  N_2
REMARK    2  A    between atoms: C_3  and  C_5
REMARK    3  A    between atoms: C_5  and  C_6
REMARK    4  A    between atoms: C_8  and  N_9
REMARK    5  A    between atoms: N_14  and  C_15
REMARK    6  A    between atoms: C_15  and  C_16
REMARK    7  A    between atoms: C_26  and  O_27
REMARK    8  A    between atoms: C_28  and  O_29
REMARK                            x       y       z     vdW  Elec       q    Type
REMARK                         _______ _______ _______ _____ _____    ______ ____
ROOT
ATOM      1  N   UNL     1       2.284   7.916  18.755  0.00  0.00    +0.000 N 
ATOM      2  C   UNL     1       2.065   8.749  17.689  0.00  0.00    +0.000 A 
ATOM      3  N   UNL     1       1.246   9.737  17.996  0.00  0.00    +0.000 NA
ATOM      4  C   UNL     1       0.964   9.572  19.337  0.00  0.00    +0.000 A 
ATOM      5  C   UNL     1       0.168  10.309  20.244  0.00  0.00    +0.000 A 
ATOM      6  N   UNL     1      -0.619  11.386  19.840  0.00  0.00    +0.000 N 
ATOM      7  N   UNL     1       0.131   9.876  21.534  0.00  0.00    +0.000 NA
ATOM      8  C   UNL     1       0.816   8.767  21.874  0.00  0.00    +0.000 A 
ATOM      9  N   UNL     1       1.591   7.982  21.087  0.00  0.00    +0.000 NA
ATOM     10  C   UNL     1       1.616   8.451  19.829  0.00  0.00    +0.000 A 
ATOM     11  H   UNL     1      -0.414  11.667  18.885  0.00  0.00    +0.000 HD
ENDROOT
BRANCH   1  15
ATOM     12  C   UNL     1       4.554   5.444  17.495  0.00  0.00    +0.000 C 
ATOM     13  C   UNL     1       5.525   4.874  18.543  0.00  0.00    +0.000 C 
ATOM     14  O   UNL     1       4.192   6.778  17.904  0.00  0.00    +0.000 OA
ATOM     15  C   UNL     1       3.044   6.677  18.769  0.00  0.00    +0.000 C 
ATOM     16  C   UNL     1       2.252   5.447  18.297  0.00  0.00    +0.000 C 
ATOM     17  C   UNL     1       3.231   4.672  17.409  0.00  0.00    +0.000 C 
BRANCH  12  20
ATOM     18  C   UNL     1       6.258   3.925  14.408  0.00  0.00    +0.000 C 
ATOM     19  N   UNL     1       5.547   4.132  15.645  0.00  0.00    +0.000 N 
ATOM     20  C   UNL     1       5.248   5.400  16.109  0.00  0.00    +0.000 C 
ATOM     21  O   UNL     1       5.519   6.420  15.471  0.00  0.00    +0.000 OA
ATOM     22  H   UNL     1       5.201   3.319  16.149  0.00  0.00    +0.000 HD
ENDBRANCH  12  20
BRANCH  16  23
ATOM     23  O   UNL     1       1.766   4.601  19.345  0.00  0.00    +0.000 OA
ATOM     24  H   UNL     1       1.274   3.850  18.971  0.00  0.00    +0.000 HD
ENDBRANCH  16  23
BRANCH  17  25
ATOM     25  O   UNL     1       3.389   3.297  17.771  0.00  0.00    +0.000 OA
ATOM     26  H   UNL     1       3.657   2.814  16.965  0.00  0.00    +0.000 HD
ENDBRANCH  17  25
ENDBRANCH   1  15
BRANCH   6  27
ATOM     27  C   UNL     1      -0.860  12.466  20.778  0.00  0.00    +0.000 C 
BRANCH  27  28
ATOM     28  C   UNL     1      -2.324  12.580  21.147  0.00  0.00    +0.000 A 
ATOM     29  C   UNL     1      -2.729  12.607  22.491  0.00  0.00    +0.000 A 
ATOM     30  C   UNL     1      -4.083  12.720  22.823  0.00  0.00    +0.000 A 
ATOM     31  C   UNL     1      -5.043  12.804  21.819  0.00  0.00    +0.000 A 
ATOM     32  C   UNL     1      -4.659  12.775  20.482  0.00  0.00    +0.000 A 
ATOM     33  C   UNL     1      -3.307  12.661  20.155  0.00  0.00    +0.000 A 
ENDBRANCH  27  28
ENDBRANCH   6  27
TORSDOF 6
ENDMDL
MODEL 4
REMARK VINA RESULT:      -7.8      3.898      9.234
REMARK  Name = 
REMARK  8 active torsions:
REMARK  status: ('A' for Active; 'I' for Inactive)
REMARK    1  A    between atoms: C_1  and  N_2
REMARK    2  A    between atoms: C_3  and  C_5
REMARK    3  A    between atoms: C_5  and  C_6
REMARK    4  A    between atoms: C_8  and  N_9
REMARK    5  A    between atoms: N_14  and  C_15
REMARK    6  A    between atoms: C_15  and  C_16
REMARK    7  A    between atoms: C_26  and  O_27
REMARK    8  A    between atoms: C_28  and  O_29
REMARK                            x       y       z     vdW  Elec       q    Type
REMARK                         _______ _______ _______ _____ _____    ______ ____
ROOT
ATOM      1  N   UNL     1       0.462  10.143  20.682  0.00  0.00    +0.000 N 
ATOM      2  C   UNL     1       0.754   9.565  21.890  0.00  0.00    +0.000 A 
ATOM      3  N   UNL     1       1.429   8.440  21.748  0.00  0.00    +0.000 NA
ATOM      4  C   UNL     1       1.636   8.310  20.389  0.00  0.00    +0.000 A 
ATOM      5  C   UNL     1       2.303   7.334  19.614  0.00  0.00    +0.000 A 
ATOM      6  N   UNL     1       2.828   6.170  20.172  0.00  0.00    +0.000 N 
ATOM      7  N   UNL     1       2.346   7.530  18.267  0.00  0.00    +0.000 NA
ATOM      8  C   UNL     1       1.735   8.610  17.742  0.00  0.00    +0.000 A 
ATOM      9  N   UNL     1       1.059   9.592  18.388  0.00  0.00    +0.000 NA
ATOM     10  C   UNL     1       1.055   9.371  19.712  0.00  0.00    +0.000 A 
ATOM     11  H   UNL     1       2.824   6.202  21.188  0.00  0.00    +0.000 HD
ENDROOT
BRANCH   1  15
ATOM     12  C   UNL     1      -2.063  12.122  19.083  0.00  0.00    +0.000 C 
ATOM     13  C   UNL     1      -2.913  12.973  20.042  0.00  0.00    +0.000 C 
ATOM     14  O   UNL     1      -1.590  10.970  19.809  0.00  0.00    +0.000 OA
ATOM     15  C   UNL     1      -0.345  11.327  20.438  0.00  0.00    +0.000 C 
ATOM     16  C   UNL     1       0.322  12.366  19.523  0.00  0.00    +0.000 C 
ATOM     17  C   UNL     1      -0.799  12.840  18.592  0.00  0.00    +0.000 C 
BRANCH  12  20
ATOM     18  C   UNL     1      -2.886  11.014  15.500  0.00  0.00    +0.000 C 
ATOM     19  N   UNL     1      -2.228  11.326  16.745  0.00  0.00    +0.000 N 
ATOM     20  C   UNL     1      -2.934  11.751  17.854  0.00  0.00    +0.000 C 
ATOM     21  O   UNL     1      -4.165  11.836  17.865  0.00  0.00    +0.000 OA
ATOM     22  H   UNL     1      -1.226  11.161  16.820  0.00  0.00    +0.000 HD
ENDBRANCH  12  20
BRANCH  16  23
ATOM     23  O   UNL     1       0.904  13.487  20.198  0.00  0.00    +0.000 OA
ATOM     24  H   UNL     1       0.423  14.302  19.975  0.00  0.00    +0.000 HD
ENDBRANCH  16  23
BRANCH  17  25
ATOM     25  O   UNL     1      -0.970  14.260  18.554  0.00  0.00    +0.000 OA
ATOM     26  H   UNL     1      -0.752  14.554  17.648  0.00  0.00    +0.000 HD
ENDBRANCH  17  25
ENDBRANCH   1  15
BRANCH   6  27
ATOM     27  C   UNL     1       4.000   5.570  19.563  0.00  0.00    +0.000 C 
BRANCH  27  28
ATOM     28  C   UNL     1       3.715   4.184  19.026  0.00  0.00    +0.000 A 
ATOM     29  C   UNL     1       4.259   3.046  19.639  0.00  0.00    +0.000 A 
ATOM     30  C   UNL     1       3.984   1.768  19.141  0.00  0.00    +0.000 A 
ATOM     31  C   UNL     1       3.166   1.616  18.025  0.00  0.00    +0.000 A 
ATOM     32  C   UNL     1       2.620   2.735  17.403  0.00  0.00    +0.000 A 
ATOM     33  C   UNL     1       2.898   4.008  17.904  0.00  0.00    +0.000 A 
ENDBRANCH  27  28
ENDBRANCH   6  27
TORSDOF 6
ENDMDL
MODEL 5
REMARK VINA RESULT:      -7.8      3.962      9.667
REMARK  Name = 
REMARK  8 active torsions:
REMARK  status: ('A' for Active; 'I' for Inactive)
REMARK    1  A    between atoms: C_1  and  N_2
REMARK    2  A    between atoms: C_3  and  C_5
REMARK    3  A    between atoms: C_5  and  C_6
REMARK    4  A    between atoms: C_8  and  N_9
REMARK    5  A    between atoms: N_14  and  C_15
REMARK    6  A    between atoms: C_15  and  C_16
REMARK    7  A    between atoms: C_26  and  O_27
REMARK    8  A    between atoms: C_28  and  O_29
REMARK                            x       y       z     vdW  Elec       q    Type
REMARK                         _______ _______ _______ _____ _____    ______ ____
ROOT
ATOM      1  N   UNL     1       0.290  10.376  20.959  0.00  0.00    +0.000 N 
ATOM      2  C   UNL     1       0.487   9.603  22.073  0.00  0.00    +0.000 A 
ATOM      3  N   UNL     1       1.133   8.488  21.792  0.00  0.00    +0.000 NA
ATOM      4  C   UNL     1       1.419   8.564  20.443  0.00  0.00    +0.000 A 
ATOM      5  C   UNL     1       2.100   7.694  19.561  0.00  0.00    +0.000 A 
ATOM      6  N   UNL     1       2.552   6.436  19.955  0.00  0.00    +0.000 N 
ATOM      7  N   UNL     1       2.233   8.098  18.267  0.00  0.00    +0.000 NA
ATOM      8  C   UNL     1       1.690   9.272  17.888  0.00  0.00    +0.000 A 
ATOM      9  N   UNL     1       1.009  10.168  18.643  0.00  0.00    +0.000 NA
ATOM     10  C   UNL     1       0.915   9.741  19.913  0.00  0.00    +0.000 A 
ATOM     11  H   UNL     1       2.486   6.308  20.961  0.00  0.00    +0.000 HD
ENDROOT
BRANCH   1  15
ATOM     12  C   UNL     1      -2.250  12.751  21.829  0.00  0.00    +0.000 C 
ATOM     13  C   UNL     1      -1.779  14.214  21.850  0.00  0.00    +0.000 C 
ATOM     14  O   UNL     1      -1.113  11.912  22.113  0.00  0.00    +0.000 OA
ATOM     15  C   UNL     1      -0.461  11.616  20.863  0.00  0.00    +0.000 C 
ATOM     16  C   UNL     1      -1.563  11.603  19.791  0.00  0.00    +0.000 C 
ATOM     17  C   UNL     1      -2.759  12.295  20.455  0.00  0.00    +0.000 C 
BRANCH  12  20
ATOM     18  C   UNL     1      -5.630  13.394  23.534  0.00  0.00    +0.000 C 
ATOM     19  N   UNL     1      -4.510  13.374  22.626  0.00  0.00    +0.000 N 
ATOM     20  C   UNL     1      -3.396  12.590  22.863  0.00  0.00    +0.000 C 
ATOM     21  O   UNL     1      -3.316  11.826  23.827  0.00  0.00    +0.000 OA
ATOM     22  H   UNL     1      -4.578  13.900  21.758  0.00  0.00    +0.000 HD
ENDBRANCH  12  20
BRANCH  16  23
ATOM     23  O   UNL     1      -1.230  12.270  18.569  0.00  0.00    +0.000 OA
ATOM     24  H   UNL     1      -0.269  12.405  18.509  0.00  0.00    +0.000 HD
ENDBRANCH  16  23
BRANCH  17  25
ATOM     25  O   UNL     1      -3.303  13.381  19.699  0.00  0.00    +0.000 OA
ATOM     26  H   UNL     1      -2.991  14.209  20.116  0.00  0.00    +0.000 HD
ENDBRANCH  17  25
ENDBRANCH   1  15
BRANCH   6  27
ATOM     27  C   UNL     1       3.739   5.890  19.325  0.00  0.00    +0.000 C 
BRANCH  27  28
ATOM     28  C   UNL     1       3.555   4.441  18.927  0.00  0.00    +0.000 A 
ATOM     29  C   UNL     1       4.168   3.410  19.656  0.00  0.00    +0.000 A 
ATOM     30  C   UNL     1       3.987   2.073  19.285  0.00  0.00    +0.000 A 
ATOM     31  C   UNL     1       3.196   1.755  18.186  0.00  0.00    +0.000 A 
ATOM     32  C   UNL     1       2.584   2.766  17.450  0.00  0.00    +0.000 A 
ATOM     33  C   UNL     1       2.768   4.098  17.823  0.00  0.00    +0.000 A 
ENDBRANCH  27  28
ENDBRANCH   6  27
TORSDOF 6
ENDMDL
MODEL 6
REMARK VINA RESULT:      -7.7      1.575      2.170
REMARK  Name = 
REMARK  8 active torsions:
REMARK  status: ('A' for Active; 'I' for Inactive)
REMARK    1  A    between atoms: C_1  and  N_2
REMARK    2  A    between atoms: C_3  and  C_5
REMARK    3  A    between atoms: C_5  and  C_6
REMARK    4  A    between atoms: C_8  and  N_9
REMARK    5  A    between atoms: N_14  and  C_15
REMARK    6  A    between atoms: C_15  and  C_16
REMARK    7  A    between atoms: C_26  and  O_27
REMARK    8  A    between atoms: C_28  and  O_29
REMARK                            x       y       z     vdW  Elec       q    Type
REMARK                         _______ _______ _______ _____ _____    ______ ____
ROOT
ATOM      1  N   UNL     1       2.605   7.471  18.291  0.00  0.00    +0.000 N 
ATOM      2  C   UNL     1       2.591   8.557  17.455  0.00  0.00    +0.000 A 
ATOM      3  N   UNL     1       1.928   9.571  17.975  0.00  0.00    +0.000 NA
ATOM      4  C   UNL     1       1.541   9.146  19.231  0.00  0.00    +0.000 A 
ATOM      5  C   UNL     1       0.823   9.776  20.274  0.00  0.00    +0.000 A 
ATOM      6  N   UNL     1       0.249  11.038  20.127  0.00  0.00    +0.000 N 
ATOM      7  N   UNL     1       0.636   9.065  21.419  0.00  0.00    +0.000 NA
ATOM      8  C   UNL     1       1.109   7.805  21.493  0.00  0.00    +0.000 A 
ATOM      9  N   UNL     1       1.791   7.105  20.555  0.00  0.00    +0.000 NA
ATOM     10  C   UNL     1       1.969   7.846  19.449  0.00  0.00    +0.000 A 
ATOM     11  H   UNL     1       0.555  11.496  19.272  0.00  0.00    +0.000 HD
ENDROOT
BRANCH   1  15
ATOM     12  C   UNL     1       2.873   3.908  18.579  0.00  0.00    +0.000 C 
ATOM     13  C   UNL     1       3.111   3.174  17.248  0.00  0.00    +0.000 C 
ATOM     14  O   UNL     1       2.169   5.132  18.292  0.00  0.00    +0.000 OA
ATOM     15  C   UNL     1       3.150   6.151  18.019  0.00  0.00    +0.000 C 
ATOM     16  C   UNL     1       4.389   5.797  18.857  0.00  0.00    +0.000 C 
ATOM     17  C   UNL     1       4.171   4.338  19.275  0.00  0.00    +0.000 C 
BRANCH  12  20
ATOM     18  C   UNL     1       1.468   2.527  21.874  0.00  0.00    +0.000 C 
ATOM     19  N   UNL     1       2.090   3.339  20.857  0.00  0.00    +0.000 N 
ATOM     20  C   UNL     1       2.089   2.963  19.527  0.00  0.00    +0.000 C 
ATOM     21  O   UNL     1       1.516   1.948  19.125  0.00  0.00    +0.000 OA
ATOM     22  H   UNL     1       2.476   4.241  21.124  0.00  0.00    +0.000 HD
ENDBRANCH  12  20
BRANCH  16  23
ATOM     23  O   UNL     1       5.641   5.929  18.176  0.00  0.00    +0.000 OA
ATOM     24  H   UNL     1       5.500   5.970  17.215  0.00  0.00    +0.000 HD
ENDBRANCH  16  23
BRANCH  17  25
ATOM     25  O   UNL     1       5.262   3.468  18.960  0.00  0.00    +0.000 OA
ATOM     26  H   UNL     1       6.086   3.976  19.097  0.00  0.00    +0.000 HD
ENDBRANCH  17  25
ENDBRANCH   1  15
BRANCH   6  27
ATOM     27  C   UNL     1       0.131  11.891  21.294  0.00  0.00    +0.000 C 
BRANCH  27  28
ATOM     28  C   UNL     1      -1.314  12.172  21.647  0.00  0.00    +0.000 A 
ATOM     29  C   UNL     1      -2.227  12.598  20.670  0.00  0.00    +0.000 A 
ATOM     30  C   UNL     1      -3.562  12.848  21.004  0.00  0.00    +0.000 A 
ATOM     31  C   UNL     1      -3.997  12.677  22.315  0.00  0.00    +0.000 A 
ATOM     32  C   UNL     1      -3.104  12.258  23.297  0.00  0.00    +0.000 A 
ATOM     33  C   UNL     1      -1.773  12.010  22.959  0.00  0.00    +0.000 A 
ENDBRANCH  27  28
ENDBRANCH   6  27
TORSDOF 6
ENDMDL
MODEL 7
REMARK VINA RESULT:      -7.7      2.572      4.209
REMARK  Name = 
REMARK  8 active torsions:
REMARK  status: ('A' for Active; 'I' for Inactive)
REMARK    1  A    between atoms: C_1  and  N_2
REMARK    2  A    between atoms: C_3  and  C_5
REMARK    3  A    between atoms: C_5  and  C_6
REMARK    4  A    between atoms: C_8  and  N_9
REMARK    5  A    between atoms: N_14  and  C_15
REMARK    6  A    between atoms: C_15  and  C_16
REMARK    7  A    between atoms: C_26  and  O_27
REMARK    8  A    between atoms: C_28  and  O_29
REMARK                            x       y       z     vdW  Elec       q    Type
REMARK                         _______ _______ _______ _____ _____    ______ ____
ROOT
ATOM      1  N   UNL     1       2.532   7.387  18.562  0.00  0.00    +0.000 N 
ATOM      2  C   UNL     1       2.631   8.160  17.435  0.00  0.00    +0.000 A 
ATOM      3  N   UNL     1       1.987   9.304  17.564  0.00  0.00    +0.000 NA
ATOM      4  C   UNL     1       1.493   9.299  18.853  0.00  0.00    +0.000 A 
ATOM      5  C   UNL     1       0.738  10.241  19.590  0.00  0.00    +0.000 A 
ATOM      6  N   UNL     1       0.241  11.411  19.017  0.00  0.00    +0.000 N 
ATOM      7  N   UNL     1       0.436   9.925  20.879  0.00  0.00    +0.000 NA
ATOM      8  C   UNL     1       0.836   8.737  21.374  0.00  0.00    +0.000 A 
ATOM      9  N   UNL     1       1.545   7.762  20.755  0.00  0.00    +0.000 NA
ATOM     10  C   UNL     1       1.837   8.120  19.494  0.00  0.00    +0.000 A 
ATOM     11  H   UNL     1       0.628  11.573  18.091  0.00  0.00    +0.000 HD
ENDROOT
BRANCH   1  15
ATOM     12  C   UNL     1       4.661   4.559  17.997  0.00  0.00    +0.000 C 
ATOM     13  C   UNL     1       5.098   3.821  19.273  0.00  0.00    +0.000 C 
ATOM     14  O   UNL     1       4.403   5.934  18.344  0.00  0.00    +0.000 OA
ATOM     15  C   UNL     1       3.025   6.033  18.753  0.00  0.00    +0.000 C 
ATOM     16  C   UNL     1       2.258   4.965  17.958  0.00  0.00    +0.000 C 
ATOM     17  C   UNL     1       3.344   4.033  17.410  0.00  0.00    +0.000 C 
BRANCH  12  20
ATOM     18  C   UNL     1       6.245   3.901  14.562  0.00  0.00    +0.000 C 
ATOM     19  N   UNL     1       5.331   4.146  15.649  0.00  0.00    +0.000 N 
ATOM     20  C   UNL     1       5.778   4.400  16.932  0.00  0.00    +0.000 C 
ATOM     21  O   UNL     1       6.977   4.486  17.212  0.00  0.00    +0.000 OA
ATOM     22  H   UNL     1       4.335   4.199  15.445  0.00  0.00    +0.000 HD
ENDBRANCH  12  20
BRANCH  16  23
ATOM     23  O   UNL     1       1.304   4.212  18.716  0.00  0.00    +0.000 OA
ATOM     24  H   UNL     1       1.620   3.302  18.849  0.00  0.00    +0.000 HD
ENDBRANCH  16  23
BRANCH  17  25
ATOM     25  O   UNL     1       3.138   2.650  17.713  0.00  0.00    +0.000 OA
ATOM     26  H   UNL     1       2.290   2.582  18.194  0.00  0.00    +0.000 HD
ENDBRANCH  17  25
ENDBRANCH   1  15
BRANCH   6  27
ATOM     27  C   UNL     1       0.086  12.586  19.852  0.00  0.00    +0.000 C 
BRANCH  27  28
ATOM     28  C   UNL     1       0.886  13.761  19.333  0.00  0.00    +0.000 A 
ATOM     29  C   UNL     1       2.101  13.565  18.657  0.00  0.00    +0.000 A 
ATOM     30  C   UNL     1       2.830  14.656  18.173  0.00  0.00    +0.000 A 
ATOM     31  C   UNL     1       2.356  15.951  18.362  0.00  0.00    +0.000 A 
ATOM     32  C   UNL     1       1.155  16.163  19.033  0.00  0.00    +0.000 A 
ATOM     33  C   UNL     1       0.431  15.071  19.514  0.00  0.00    +0.000 A 
ENDBRANCH  27  28
ENDBRANCH   6  27
TORSDOF 6
ENDMDL
MODEL 8
REMARK VINA RESULT:      -7.7      4.279      9.657
REMARK  Name = 
REMARK  8 active torsions:
REMARK  status: ('A' for Active; 'I' for Inactive)
REMARK    1  A    between atoms: C_1  and  N_2
REMARK    2  A    between atoms: C_3  and  C_5
REMARK    3  A    between atoms: C_5  and  C_6
REMARK    4  A    between atoms: C_8  and  N_9
REMARK    5  A    between atoms: N_14  and  C_15
REMARK    6  A    between atoms: C_15  and  C_16
REMARK    7  A    between atoms: C_26  and  O_27
REMARK    8  A    between atoms: C_28  and  O_29
REMARK                            x       y       z     vdW  Elec       q    Type
REMARK                         _______ _______ _______ _____ _____    ______ ____
ROOT
ATOM      1  N   UNL     1       0.160  10.743  21.097  0.00  0.00    +0.000 N 
ATOM      2  C   UNL     1       0.274   9.940  22.202  0.00  0.00    +0.000 A 
ATOM      3  N   UNL     1       0.853   8.789  21.918  0.00  0.00    +0.000 NA
ATOM      4  C   UNL     1       1.183   8.870  20.579  0.00  0.00    +0.000 A 
ATOM      5  C   UNL     1       1.831   7.972  19.700  0.00  0.00    +0.000 A 
ATOM      6  N   UNL     1       2.188   6.680  20.082  0.00  0.00    +0.000 N 
ATOM      7  N   UNL     1       2.027   8.389  18.418  0.00  0.00    +0.000 NA
ATOM      8  C   UNL     1       1.574   9.602  18.046  0.00  0.00    +0.000 A 
ATOM      9  N   UNL     1       0.930  10.527  18.799  0.00  0.00    +0.000 NA
ATOM     10  C   UNL     1       0.773  10.087  20.057  0.00  0.00    +0.000 A 
ATOM     11  H   UNL     1       2.085   6.540  21.084  0.00  0.00    +0.000 HD
ENDROOT
BRANCH   1  15
ATOM     12  C   UNL     1      -1.968  13.423  22.165  0.00  0.00    +0.000 C 
ATOM     13  C   UNL     1      -1.401  14.830  21.914  0.00  0.00    +0.000 C 
ATOM     14  O   UNL     1      -0.858  12.515  22.314  0.00  0.00    +0.000 OA
ATOM     15  C   UNL     1      -0.505  12.031  21.004  0.00  0.00    +0.000 C 
ATOM     16  C   UNL     1      -1.805  12.010  20.185  0.00  0.00    +0.000 C 
ATOM     17  C   UNL     1      -2.784  12.877  20.985  0.00  0.00    +0.000 C 
BRANCH  12  20
ATOM     18  C   UNL     1      -4.614  12.280  24.702  0.00  0.00    +0.000 C 
ATOM     19  N   UNL     1      -3.659  12.354  23.624  0.00  0.00    +0.000 N 
ATOM     20  C   UNL     1      -2.881  13.478  23.418  0.00  0.00    +0.000 C 
ATOM     21  O   UNL     1      -2.915  14.456  24.170  0.00  0.00    +0.000 OA
ATOM     22  H   UNL     1      -3.513  11.530  23.046  0.00  0.00    +0.000 HD
ENDBRANCH  12  20
BRANCH  16  23
ATOM     23  O   UNL     1      -1.689  12.512  18.848  0.00  0.00    +0.000 OA
ATOM     24  H   UNL     1      -2.415  13.128  18.654  0.00  0.00    +0.000 HD
ENDBRANCH  16  23
BRANCH  17  25
ATOM     25  O   UNL     1      -3.396  13.924  20.228  0.00  0.00    +0.000 OA
ATOM     26  H   UNL     1      -3.068  14.772  20.588  0.00  0.00    +0.000 HD
ENDBRANCH  17  25
ENDBRANCH   1  15
BRANCH   6  27
ATOM     27  C   UNL     1       3.354   6.069  19.475  0.00  0.00    +0.000 C 
BRANCH  27  28
ATOM     28  C   UNL     1       3.036   4.720  18.866  0.00  0.00    +0.000 A 
ATOM     29  C   UNL     1       4.041   3.944  18.267  0.00  0.00    +0.000 A 
ATOM     30  C   UNL     1       3.739   2.695  17.714  0.00  0.00    +0.000 A 
ATOM     31  C   UNL     1       2.435   2.211  17.752  0.00  0.00    +0.000 A 
ATOM     32  C   UNL     1       1.427   2.970  18.339  0.00  0.00    +0.000 A 
ATOM     33  C   UNL     1       1.732   4.216  18.889  0.00  0.00    +0.000 A 
ENDBRANCH  27  28
ENDBRANCH   6  27
TORSDOF 6
ENDMDL
MODEL 9
REMARK VINA RESULT:      -7.6      2.058      3.400
REMARK  Name = 
REMARK  8 active torsions:
REMARK  status: ('A' for Active; 'I' for Inactive)
REMARK    1  A    between atoms: C_1  and  N_2
REMARK    2  A    between atoms: C_3  and  C_5
REMARK    3  A    between atoms: C_5  and  C_6
REMARK    4  A    between atoms: C_8  and  N_9
REMARK    5  A    between atoms: N_14  and  C_15
REMARK    6  A    between atoms: C_15  and  C_16
REMARK    7  A    between atoms: C_26  and  O_27
REMARK    8  A    between atoms: C_28  and  O_29
REMARK                            x       y       z     vdW  Elec       q    Type
REMARK                         _______ _______ _______ _____ _____    ______ ____
ROOT
ATOM      1  N   UNL     1       2.300   7.938  19.021  0.00  0.00    +0.000 N 
ATOM      2  C   UNL     1       2.144   8.546  17.802  0.00  0.00    +0.000 A 
ATOM      3  N   UNL     1       1.205   9.472  17.830  0.00  0.00    +0.000 NA
ATOM      4  C   UNL     1       0.769   9.507  19.140  0.00  0.00    +0.000 A 
ATOM      5  C   UNL     1      -0.202  10.294  19.802  0.00  0.00    +0.000 A 
ATOM      6  N   UNL     1      -1.026  11.189  19.122  0.00  0.00    +0.000 N 
ATOM      7  N   UNL     1      -0.365  10.087  21.138  0.00  0.00    +0.000 NA
ATOM      8  C   UNL     1       0.370   9.138  21.749  0.00  0.00    +0.000 A 
ATOM      9  N   UNL     1       1.309   8.323  21.210  0.00  0.00    +0.000 NA
ATOM     10  C   UNL     1       1.452   8.570  19.898  0.00  0.00    +0.000 A 
ATOM     11  H   UNL     1      -0.727  11.324  18.160  0.00  0.00    +0.000 HD
ENDROOT
BRANCH   1  15
ATOM     12  C   UNL     1       4.367   5.086  18.354  0.00  0.00    +0.000 C 
ATOM     13  C   UNL     1       5.656   5.019  19.190  0.00  0.00    +0.000 C 
ATOM     14  O   UNL     1       3.994   6.471  18.220  0.00  0.00    +0.000 OA
ATOM     15  C   UNL     1       3.163   6.815  19.346  0.00  0.00    +0.000 C 
ATOM     16  C   UNL     1       2.409   5.533  19.735  0.00  0.00    +0.000 C 
ATOM     17  C   UNL     1       3.169   4.405  19.029  0.00  0.00    +0.000 C 
BRANCH  12  20
ATOM     18  C   UNL     1       5.625   4.669  14.750  0.00  0.00    +0.000 C 
ATOM     19  N   UNL     1       5.360   5.142  16.086  0.00  0.00    +0.000 N 
ATOM     20  C   UNL     1       4.631   4.393  16.991  0.00  0.00    +0.000 C 
ATOM     21  O   UNL     1       4.214   3.261  16.732  0.00  0.00    +0.000 OA
ATOM     22  H   UNL     1       5.780   6.019  16.384  0.00  0.00    +0.000 HD
ENDBRANCH  12  20
BRANCH  16  23
ATOM     23  O   UNL     1       2.342   5.272  21.142  0.00  0.00    +0.000 OA
ATOM     24  H   UNL     1       1.493   5.579  21.502  0.00  0.00    +0.000 HD
ENDBRANCH  16  23
BRANCH  17  25
ATOM     25  O   UNL     1       3.575   3.340  19.893  0.00  0.00    +0.000 OA
ATOM     26  H   UNL     1       4.135   2.737  19.365  0.00  0.00    +0.000 HD
ENDBRANCH  17  25
ENDBRANCH   1  15
BRANCH   6  27
ATOM     27  C   UNL     1      -1.485  12.379  19.813  0.00  0.00    +0.000 C 
BRANCH  27  28
ATOM     28  C   UNL     1      -2.991  12.396  19.974  0.00  0.00    +0.000 A 
ATOM     29  C   UNL     1      -3.833  11.973  18.934  0.00  0.00    +0.000 A 
ATOM     30  C   UNL     1      -5.222  11.985  19.094  0.00  0.00    +0.000 A 
ATOM     31  C   UNL     1      -5.783  12.420  20.291  0.00  0.00    +0.000 A 
ATOM     32  C   UNL     1      -4.962  12.847  21.332  0.00  0.00    +0.000 A 
ATOM     33  C   UNL     1      -3.576  12.833  21.167  0.00  0.00    +0.000 A 
ENDBRANCH  27  28
ENDBRANCH   6  27
TORSDOF 6
ENDMDL
