MODEL 1
REMARK VINA RESULT:      -8.7      0.000      0.000
REMARK  Name = 
REMARK  4 active torsions:
REMARK  status: ('A' for Active; 'I' for Inactive)
REMARK    1  A    between atoms: C_4  and  C_5
REMARK    2  A    between atoms: C_4  and  C_13
REMARK    3  A    between atoms: C_8  and  O_9
REMARK    4  A    between atoms: C_16  and  O_17
REMARK                            x       y       z     vdW  Elec       q    Type
REMARK                         _______ _______ _______ _____ _____    ______ ____
ROOT
ATOM      1  O   UNL     1       0.514   3.036  17.349  0.00  0.00    +0.000 OA
ATOM      2  C   UNL     1       1.258   3.709  18.030  0.00  0.00    +0.000 C 
ATOM      3  O   UNL     1       1.963   4.807  17.623  0.00  0.00    +0.000 OA
ATOM      4  C   UNL     1       2.772   5.385  18.689  0.00  0.00    +0.000 C 
ATOM      5  C   UNL     1       2.387   4.534  19.863  0.00  0.00    +0.000 A 
ATOM      6  C   UNL     1       2.771   4.609  21.197  0.00  0.00    +0.000 A 
ATOM      7  C   UNL     1       2.322   3.623  22.078  0.00  0.00    +0.000 A 
ATOM      8  C   UNL     1       1.469   2.600  21.633  0.00  0.00    +0.000 A 
ATOM      9  C   UNL     1       1.055   2.555  20.300  0.00  0.00    +0.000 A 
ATOM     10  C   UNL     1       1.535   3.532  19.445  0.00  0.00    +0.000 A 
ENDROOT
BRANCH   4  11
ATOM     11  C   UNL     1       4.235   5.235  18.221  0.00  0.00    +0.000 A 
ATOM     12  C   UNL     1       5.286   5.454  19.136  0.00  0.00    +0.000 A 
ATOM     13  C   UNL     1       6.613   5.156  18.803  0.00  0.00    +0.000 A 
ATOM     14  C   UNL     1       6.915   4.656  17.539  0.00  0.00    +0.000 A 
ATOM     15  C   UNL     1       5.905   4.505  16.591  0.00  0.00    +0.000 A 
ATOM     16 CL   UNL     1       6.231   3.910  15.003  0.00  0.00    +0.000 Cl
ATOM     17  C   UNL     1       4.581   4.804  16.926  0.00  0.00    +0.000 A 
BRANCH  14  18
ATOM     18  O   UNL     1       8.198   4.302  17.228  0.00  0.00    +0.000 OA
ATOM     19  H   UNL     1       8.609   5.007  16.702  0.00  0.00    +0.000 HD
ENDBRANCH  14  18
ENDBRANCH   4  11
BRANCH   4  20
ATOM     20  C   UNL     1       2.349   6.853  18.910  0.00  0.00    +0.000 A 
ATOM     21  C   UNL     1       2.418   7.797  17.866  0.00  0.00    +0.000 A 
ATOM     22  C   UNL     1       2.010   9.124  18.057  0.00  0.00    +0.000 A 
ATOM     23  C   UNL     1       1.532   9.532  19.298  0.00  0.00    +0.000 A 
ATOM     24  C   UNL     1       1.446   8.617  20.348  0.00  0.00    +0.000 A 
ATOM     25 CL   UNL     1       0.877   9.084  21.908  0.00  0.00    +0.000 Cl
ATOM     26  C   UNL     1       1.831   7.287  20.149  0.00  0.00    +0.000 A 
BRANCH  23  27
ATOM     27  O   UNL     1       1.140  10.828  19.489  0.00  0.00    +0.000 OA
ATOM     28  H   UNL     1       1.591  11.401  18.848  0.00  0.00    +0.000 HD
ENDBRANCH  23  27
ENDBRANCH   4  20
TORSDOF 4
ENDMDL
MODEL 2
REMARK VINA RESULT:      -8.3      2.245      4.951
REMARK  Name = 
REMARK  4 active torsions:
REMARK  status: ('A' for Active; 'I' for Inactive)
REMARK    1  A    between atoms: C_4  and  C_5
REMARK    2  A    between atoms: C_4  and  C_13
REMARK    3  A    between atoms: C_8  and  O_9
REMARK    4  A    between atoms: C_16  and  O_17
REMARK                            x       y       z     vdW  Elec       q    Type
REMARK                         _______ _______ _______ _____ _____    ______ ____
ROOT
ATOM      1  O   UNL     1       7.162   5.405  20.039  0.00  0.00    +0.000 OA
ATOM      2  C   UNL     1       6.185   5.463  19.324  0.00  0.00    +0.000 C 
ATOM      3  O   UNL     1       4.889   5.614  19.729  0.00  0.00    +0.000 OA
ATOM      4  C   UNL     1       3.950   5.641  18.614  0.00  0.00    +0.000 C 
ATOM      5  C   UNL     1       4.873   5.583  17.433  0.00  0.00    +0.000 A 
ATOM      6  C   UNL     1       4.600   5.629  16.071  0.00  0.00    +0.000 A 
ATOM      7  C   UNL     1       5.656   5.467  15.171  0.00  0.00    +0.000 A 
ATOM      8  C   UNL     1       6.971   5.300  15.635  0.00  0.00    +0.000 A 
ATOM      9  C   UNL     1       7.242   5.295  17.005  0.00  0.00    +0.000 A 
ATOM     10  C   UNL     1       6.172   5.434  17.872  0.00  0.00    +0.000 A 
ENDROOT
BRANCH   4  11
ATOM     11  C   UNL     1       3.050   4.402  18.805  0.00  0.00    +0.000 A 
ATOM     12  C   UNL     1       2.785   3.556  17.708  0.00  0.00    +0.000 A 
ATOM     13  C   UNL     1       2.126   2.332  17.878  0.00  0.00    +0.000 A 
ATOM     14  C   UNL     1       1.698   1.944  19.145  0.00  0.00    +0.000 A 
ATOM     15  C   UNL     1       1.878   2.797  20.231  0.00  0.00    +0.000 A 
ATOM     16 CL   UNL     1       1.348   2.372  21.818  0.00  0.00    +0.000 Cl
ATOM     17  C   UNL     1       2.536   4.018  20.059  0.00  0.00    +0.000 A 
BRANCH  14  18
ATOM     18  O   UNL     1       1.113   0.723  19.329  0.00  0.00    +0.000 OA
ATOM     19  H   UNL     1       0.225   0.728  18.935  0.00  0.00    +0.000 HD
ENDBRANCH  14  18
ENDBRANCH   4  11
BRANCH   4  20
ATOM     20  C   UNL     1       3.169   6.972  18.639  0.00  0.00    +0.000 A 
ATOM     21  C   UNL     1       3.236   7.879  17.562  0.00  0.00    +0.000 A 
ATOM     22  C   UNL     1       2.507   9.075  17.572  0.00  0.00    +0.000 A 
ATOM     23  C   UNL     1       1.703   9.391  18.664  0.00  0.00    +0.000 A 
ATOM     24  C   UNL     1       1.613   8.508  19.741  0.00  0.00    +0.000 A 
ATOM     25 CL   UNL     1       0.644   8.868  21.122  0.00  0.00    +0.000 Cl
ATOM     26  C   UNL     1       2.322   7.303  19.719  0.00  0.00    +0.000 A 
BRANCH  23  27
ATOM     27  O   UNL     1       0.998  10.562  18.678  0.00  0.00    +0.000 OA
ATOM     28  H   UNL     1       0.056  10.376  18.532  0.00  0.00    +0.000 HD
ENDBRANCH  23  27
ENDBRANCH   4  20
TORSDOF 4
ENDMDL
MODEL 3
REMARK VINA RESULT:      -8.3      1.027      1.378
REMARK  Name = 
REMARK  4 active torsions:
REMARK  status: ('A' for Active; 'I' for Inactive)
REMARK    1  A    between atoms: C_4  and  C_5
REMARK    2  A    between atoms: C_4  and  C_13
REMARK    3  A    between atoms: C_8  and  O_9
REMARK    4  A    between atoms: C_16  and  O_17
REMARK                            x       y       z     vdW  Elec       q    Type
REMARK                         _______ _______ _______ _____ _____    ______ ____
ROOT
ATOM      1  O   UNL     1       0.272   2.776  17.614  0.00  0.00    +0.000 OA
ATOM      2  C   UNL     1       1.085   3.460  18.197  0.00  0.00    +0.000 C 
ATOM      3  O   UNL     1       1.797   4.501  17.673  0.00  0.00    +0.000 OA
ATOM      4  C   UNL     1       2.697   5.114  18.643  0.00  0.00    +0.000 C 
ATOM      5  C   UNL     1       2.366   4.354  19.893  0.00  0.00    +0.000 A 
ATOM      6  C   UNL     1       2.844   4.498  21.190  0.00  0.00    +0.000 A 
ATOM      7  C   UNL     1       2.423   3.588  22.162  0.00  0.00    +0.000 A 
ATOM      8  C   UNL     1       1.506   2.574  21.843  0.00  0.00    +0.000 A 
ATOM      9  C   UNL     1       0.999   2.461  20.547  0.00  0.00    +0.000 A 
ATOM     10  C   UNL     1       1.453   3.363  19.600  0.00  0.00    +0.000 A 
ENDROOT
BRANCH   4  11
ATOM     11  C   UNL     1       4.119   4.877  18.088  0.00  0.00    +0.000 A 
ATOM     12  C   UNL     1       4.289   4.151  16.891  0.00  0.00    +0.000 A 
ATOM     13  C   UNL     1       5.538   4.068  16.264  0.00  0.00    +0.000 A 
ATOM     14  C   UNL     1       6.645   4.690  16.836  0.00  0.00    +0.000 A 
ATOM     15  C   UNL     1       6.519   5.346  18.058  0.00  0.00    +0.000 A 
ATOM     16 CL   UNL     1       7.864   6.115  18.819  0.00  0.00    +0.000 Cl
ATOM     17  C   UNL     1       5.271   5.428  18.683  0.00  0.00    +0.000 A 
BRANCH  14  18
ATOM     18  O   UNL     1       7.852   4.668  16.197  0.00  0.00    +0.000 OA
ATOM     19  H   UNL     1       8.506   5.156  16.724  0.00  0.00    +0.000 HD
ENDBRANCH  14  18
ENDBRANCH   4  11
BRANCH   4  20
ATOM     20  C   UNL     1       2.342   6.608  18.794  0.00  0.00    +0.000 A 
ATOM     21  C   UNL     1       2.424   7.493  17.700  0.00  0.00    +0.000 A 
ATOM     22  C   UNL     1       2.077   8.844  17.829  0.00  0.00    +0.000 A 
ATOM     23  C   UNL     1       1.649   9.337  19.058  0.00  0.00    +0.000 A 
ATOM     24  C   UNL     1       1.552   8.482  20.156  0.00  0.00    +0.000 A 
ATOM     25 CL   UNL     1       1.045   9.055  21.702  0.00  0.00    +0.000 Cl
ATOM     26  C   UNL     1       1.876   7.129  20.020  0.00  0.00    +0.000 A 
BRANCH  23  27
ATOM     27  O   UNL     1       1.317  10.657  19.187  0.00  0.00    +0.000 OA
ATOM     28  H   UNL     1       0.815  10.787  20.008  0.00  0.00    +0.000 HD
ENDBRANCH  23  27
ENDBRANCH   4  20
TORSDOF 4
ENDMDL
MODEL 4
REMARK VINA RESULT:      -8.2      2.236      6.083
REMARK  Name = 
REMARK  4 active torsions:
REMARK  status: ('A' for Active; 'I' for Inactive)
REMARK    1  A    between atoms: C_4  and  C_5
REMARK    2  A    between atoms: C_4  and  C_13
REMARK    3  A    between atoms: C_8  and  O_9
REMARK    4  A    between atoms: C_16  and  O_17
REMARK                            x       y       z     vdW  Elec       q    Type
REMARK                         _______ _______ _______ _____ _____    ______ ____
ROOT
ATOM      1  O   UNL     1       5.545   6.285  14.905  0.00  0.00    +0.000 OA
ATOM      2  C   UNL     1       5.172   6.140  16.050  0.00  0.00    +0.000 C 
ATOM      3  O   UNL     1       3.879   6.037  16.477  0.00  0.00    +0.000 OA
ATOM      4  C   UNL     1       3.773   5.874  17.922  0.00  0.00    +0.000 C 
ATOM      5  C   UNL     1       5.215   5.793  18.329  0.00  0.00    +0.000 A 
ATOM      6  C   UNL     1       5.791   5.584  19.576  0.00  0.00    +0.000 A 
ATOM      7  C   UNL     1       7.182   5.639  19.688  0.00  0.00    +0.000 A 
ATOM      8  C   UNL     1       7.982   5.863  18.556  0.00  0.00    +0.000 A 
ATOM      9  C   UNL     1       7.398   6.032  17.299  0.00  0.00    +0.000 A 
ATOM     10  C   UNL     1       6.016   5.996  17.224  0.00  0.00    +0.000 A 
ENDROOT
BRANCH   4  11
ATOM     11  C   UNL     1       3.021   7.126  18.421  0.00  0.00    +0.000 A 
ATOM     12  C   UNL     1       2.806   8.208  17.542  0.00  0.00    +0.000 A 
ATOM     13  C   UNL     1       1.979   9.280  17.898  0.00  0.00    +0.000 A 
ATOM     14  C   UNL     1       1.369   9.300  19.150  0.00  0.00    +0.000 A 
ATOM     15  C   UNL     1       1.628   8.283  20.066  0.00  0.00    +0.000 A 
ATOM     16 CL   UNL     1       0.914   8.273  21.637  0.00  0.00    +0.000 Cl
ATOM     17  C   UNL     1       2.455   7.215  19.708  0.00  0.00    +0.000 A 
BRANCH  14  18
ATOM     18  O   UNL     1       0.509  10.310  19.479  0.00  0.00    +0.000 OA
ATOM     19  H   UNL     1       0.346  10.296  20.436  0.00  0.00    +0.000 HD
ENDBRANCH  14  18
ENDBRANCH   4  11
BRANCH   4  20
ATOM     20  C   UNL     1       3.037   4.555  18.234  0.00  0.00    +0.000 A 
ATOM     21  C   UNL     1       2.921   3.536  17.267  0.00  0.00    +0.000 A 
ATOM     22  C   UNL     1       2.276   2.328  17.556  0.00  0.00    +0.000 A 
ATOM     23  C   UNL     1       1.726   2.118  18.818  0.00  0.00    +0.000 A 
ATOM     24  C   UNL     1       1.830   3.106  19.796  0.00  0.00    +0.000 A 
ATOM     25 CL   UNL     1       1.147   2.897  21.366  0.00  0.00    +0.000 Cl
ATOM     26  C   UNL     1       2.496   4.303  19.514  0.00  0.00    +0.000 A 
BRANCH  23  27
ATOM     27  O   UNL     1       1.088   0.942  19.099  0.00  0.00    +0.000 OA
ATOM     28  H   UNL     1       1.723   0.309  19.470  0.00  0.00    +0.000 HD
ENDBRANCH  23  27
ENDBRANCH   4  20
TORSDOF 4
ENDMDL
MODEL 5
REMARK VINA RESULT:      -8.2      1.340      5.797
REMARK  Name = 
REMARK  4 active torsions:
REMARK  status: ('A' for Active; 'I' for Inactive)
REMARK    1  A    between atoms: C_4  and  C_5
REMARK    2  A    between atoms: C_4  and  C_13
REMARK    3  A    between atoms: C_8  and  O_9
REMARK    4  A    between atoms: C_16  and  O_17
REMARK                            x       y       z     vdW  Elec       q    Type
REMARK                         _______ _______ _______ _____ _____    ______ ____
ROOT
ATOM      1  O   UNL     1       2.543   3.730  22.382  0.00  0.00    +0.000 OA
ATOM      2  C   UNL     1       2.576   4.128  21.237  0.00  0.00    +0.000 C 
ATOM      3  O   UNL     1       3.370   5.124  20.745  0.00  0.00    +0.000 OA
ATOM      4  C   UNL     1       3.161   5.361  19.321  0.00  0.00    +0.000 C 
ATOM      5  C   UNL     1       2.176   4.285  18.972  0.00  0.00    +0.000 A 
ATOM      6  C   UNL     1       1.613   3.939  17.749  0.00  0.00    +0.000 A 
ATOM      7  C   UNL     1       0.643   2.934  17.721  0.00  0.00    +0.000 A 
ATOM      8  C   UNL     1       0.273   2.263  18.897  0.00  0.00    +0.000 A 
ATOM      9  C   UNL     1       0.873   2.589  20.115  0.00  0.00    +0.000 A 
ATOM     10  C   UNL     1       1.813   3.604  20.116  0.00  0.00    +0.000 A 
ENDROOT
BRANCH   4  11
ATOM     11  C   UNL     1       2.620   6.803  19.222  0.00  0.00    +0.000 A 
ATOM     12  C   UNL     1       2.770   7.523  18.018  0.00  0.00    +0.000 A 
ATOM     13  C   UNL     1       2.141   8.759  17.827  0.00  0.00    +0.000 A 
ATOM     14  C   UNL     1       1.369   9.309  18.848  0.00  0.00    +0.000 A 
ATOM     15  C   UNL     1       1.270   8.656  20.074  0.00  0.00    +0.000 A 
ATOM     16 CL   UNL     1       0.343   9.306  21.377  0.00  0.00    +0.000 Cl
ATOM     17  C   UNL     1       1.900   7.422  20.261  0.00  0.00    +0.000 A 
BRANCH  14  18
ATOM     18  O   UNL     1       0.700  10.483  18.646  0.00  0.00    +0.000 OA
ATOM     19  H   UNL     1      -0.089  10.507  19.213  0.00  0.00    +0.000 HD
ENDBRANCH  14  18
ENDBRANCH   4  11
BRANCH   4  20
ATOM     20  C   UNL     1       4.493   5.155  18.570  0.00  0.00    +0.000 A 
ATOM     21  C   UNL     1       5.731   5.374  19.205  0.00  0.00    +0.000 A 
ATOM     22  C   UNL     1       6.942   5.163  18.532  0.00  0.00    +0.000 A 
ATOM     23  C   UNL     1       6.936   4.735  17.208  0.00  0.00    +0.000 A 
ATOM     24  C   UNL     1       5.724   4.504  16.556  0.00  0.00    +0.000 A 
ATOM     25 CL   UNL     1       5.669   3.991  14.910  0.00  0.00    +0.000 Cl
ATOM     26  C   UNL     1       4.517   4.692  17.237  0.00  0.00    +0.000 A 
BRANCH  23  27
ATOM     27  O   UNL     1       8.116   4.535  16.548  0.00  0.00    +0.000 OA
ATOM     28  H   UNL     1       8.522   3.708  16.851  0.00  0.00    +0.000 HD
ENDBRANCH  23  27
ENDBRANCH   4  20
TORSDOF 4
ENDMDL
MODEL 6
REMARK VINA RESULT:      -8.1      2.132      6.290
REMARK  Name = 
REMARK  4 active torsions:
REMARK  status: ('A' for Active; 'I' for Inactive)
REMARK    1  A    between atoms: C_4  and  C_5
REMARK    2  A    between atoms: C_4  and  C_13
REMARK    3  A    between atoms: C_8  and  O_9
REMARK    4  A    between atoms: C_16  and  O_17
REMARK                            x       y       z     vdW  Elec       q    Type
REMARK                         _______ _______ _______ _____ _____    ______ ____
ROOT
ATOM      1  O   UNL     1       5.548   6.517  14.849  0.00  0.00    +0.000 OA
ATOM      2  C   UNL     1       5.163   6.330  15.983  0.00  0.00    +0.000 C 
ATOM      3  O   UNL     1       3.864   6.217  16.393  0.00  0.00    +0.000 OA
ATOM      4  C   UNL     1       3.743   5.999  17.830  0.00  0.00    +0.000 C 
ATOM      5  C   UNL     1       5.180   5.892  18.247  0.00  0.00    +0.000 A 
ATOM      6  C   UNL     1       5.742   5.630  19.491  0.00  0.00    +0.000 A 
ATOM      7  C   UNL     1       7.132   5.671  19.619  0.00  0.00    +0.000 A 
ATOM      8  C   UNL     1       7.945   5.935  18.505  0.00  0.00    +0.000 A 
ATOM      9  C   UNL     1       7.374   6.157  17.250  0.00  0.00    +0.000 A 
ATOM     10  C   UNL     1       5.994   6.133  17.159  0.00  0.00    +0.000 A 
ENDROOT
BRANCH   4  11
ATOM     11  C   UNL     1       2.993   7.235  18.370  0.00  0.00    +0.000 A 
ATOM     12  C   UNL     1       2.753   8.334  17.519  0.00  0.00    +0.000 A 
ATOM     13  C   UNL     1       1.926   9.392  17.914  0.00  0.00    +0.000 A 
ATOM     14  C   UNL     1       1.343   9.382  19.179  0.00  0.00    +0.000 A 
ATOM     15  C   UNL     1       1.628   8.348  20.067  0.00  0.00    +0.000 A 
ATOM     16 CL   UNL     1       0.947   8.300  21.653  0.00  0.00    +0.000 Cl
ATOM     17  C   UNL     1       2.454   7.292  19.670  0.00  0.00    +0.000 A 
BRANCH  14  18
ATOM     18  O   UNL     1       0.484  10.378  19.547  0.00  0.00    +0.000 OA
ATOM     19  H   UNL     1       0.941  11.234  19.498  0.00  0.00    +0.000 HD
ENDBRANCH  14  18
ENDBRANCH   4  11
BRANCH   4  20
ATOM     20  C   UNL     1       2.995   4.673  18.081  0.00  0.00    +0.000 A 
ATOM     21  C   UNL     1       1.588   4.629  18.149  0.00  0.00    +0.000 A 
ATOM     22  C   UNL     1       0.906   3.422  18.352  0.00  0.00    +0.000 A 
ATOM     23  C   UNL     1       1.620   2.236  18.498  0.00  0.00    +0.000 A 
ATOM     24  C   UNL     1       3.014   2.249  18.428  0.00  0.00    +0.000 A 
ATOM     25 CL   UNL     1       3.939   0.807  18.623  0.00  0.00    +0.000 Cl
ATOM     26  C   UNL     1       3.692   3.451  18.202  0.00  0.00    +0.000 A 
BRANCH  23  27
ATOM     27  O   UNL     1       0.957   1.059  18.703  0.00  0.00    +0.000 OA
ATOM     28  H   UNL     1       0.885   0.576  17.865  0.00  0.00    +0.000 HD
ENDBRANCH  23  27
ENDBRANCH   4  20
TORSDOF 4
ENDMDL
MODEL 7
REMARK VINA RESULT:      -8.0      1.681      5.666
REMARK  Name = 
REMARK  4 active torsions:
REMARK  status: ('A' for Active; 'I' for Inactive)
REMARK    1  A    between atoms: C_4  and  C_5
REMARK    2  A    between atoms: C_4  and  C_13
REMARK    3  A    between atoms: C_8  and  O_9
REMARK    4  A    between atoms: C_16  and  O_17
REMARK                            x       y       z     vdW  Elec       q    Type
REMARK                         _______ _______ _______ _____ _____    ______ ____
ROOT
ATOM      1  O   UNL     1       2.466   3.665  22.435  0.00  0.00    +0.000 OA
ATOM      2  C   UNL     1       2.507   4.062  21.290  0.00  0.00    +0.000 C 
ATOM      3  O   UNL     1       3.312   5.051  20.801  0.00  0.00    +0.000 OA
ATOM      4  C   UNL     1       3.110   5.289  19.376  0.00  0.00    +0.000 C 
ATOM      5  C   UNL     1       2.116   4.222  19.024  0.00  0.00    +0.000 A 
ATOM      6  C   UNL     1       1.555   3.881  17.799  0.00  0.00    +0.000 A 
ATOM      7  C   UNL     1       0.576   2.886  17.766  0.00  0.00    +0.000 A 
ATOM      8  C   UNL     1       0.196   2.218  18.942  0.00  0.00    +0.000 A 
ATOM      9  C   UNL     1       0.794   2.538  20.162  0.00  0.00    +0.000 A 
ATOM     10  C   UNL     1       1.744   3.545  20.166  0.00  0.00    +0.000 A 
ENDROOT
BRANCH   4  11
ATOM     11  C   UNL     1       2.583   6.737  19.274  0.00  0.00    +0.000 A 
ATOM     12  C   UNL     1       2.678   7.429  18.049  0.00  0.00    +0.000 A 
ATOM     13  C   UNL     1       2.055   8.669  17.866  0.00  0.00    +0.000 A 
ATOM     14  C   UNL     1       1.346   9.251  18.914  0.00  0.00    +0.000 A 
ATOM     15  C   UNL     1       1.304   8.625  20.158  0.00  0.00    +0.000 A 
ATOM     16 CL   UNL     1       0.457   9.315  21.494  0.00  0.00    +0.000 Cl
ATOM     17  C   UNL     1       1.927   7.387  20.338  0.00  0.00    +0.000 A 
BRANCH  14  18
ATOM     18  O   UNL     1       0.681  10.430  18.723  0.00  0.00    +0.000 OA
ATOM     19  H   UNL     1       1.316  11.164  18.735  0.00  0.00    +0.000 HD
ENDBRANCH  14  18
ENDBRANCH   4  11
BRANCH   4  20
ATOM     20  C   UNL     1       4.443   5.071  18.630  0.00  0.00    +0.000 A 
ATOM     21  C   UNL     1       4.472   4.518  17.334  0.00  0.00    +0.000 A 
ATOM     22  C   UNL     1       5.679   4.344  16.645  0.00  0.00    +0.000 A 
ATOM     23  C   UNL     1       6.881   4.711  17.242  0.00  0.00    +0.000 A 
ATOM     24  C   UNL     1       6.881   5.267  18.522  0.00  0.00    +0.000 A 
ATOM     25 CL   UNL     1       8.348   5.719  19.309  0.00  0.00    +0.000 Cl
ATOM     26  C   UNL     1       5.674   5.463  19.199  0.00  0.00    +0.000 A 
BRANCH  23  27
ATOM     27  O   UNL     1       8.060   4.534  16.574  0.00  0.00    +0.000 OA
ATOM     28  H   UNL     1       8.506   3.739  16.906  0.00  0.00    +0.000 HD
ENDBRANCH  23  27
ENDBRANCH   4  20
TORSDOF 4
ENDMDL
MODEL 8
REMARK VINA RESULT:      -8.0      1.408      1.656
REMARK  Name = 
REMARK  4 active torsions:
REMARK  status: ('A' for Active; 'I' for Inactive)
REMARK    1  A    between atoms: C_4  and  C_5
REMARK    2  A    between atoms: C_4  and  C_13
REMARK    3  A    between atoms: C_8  and  O_9
REMARK    4  A    between atoms: C_16  and  O_17
REMARK                            x       y       z     vdW  Elec       q    Type
REMARK                         _______ _______ _______ _____ _____    ______ ____
ROOT
ATOM      1  O   UNL     1       0.588   3.567  17.111  0.00  0.00    +0.000 OA
ATOM      2  C   UNL     1       1.271   4.203  17.885  0.00  0.00    +0.000 C 
ATOM      3  O   UNL     1       1.879   5.401  17.637  0.00  0.00    +0.000 OA
ATOM      4  C   UNL     1       2.633   5.898  18.782  0.00  0.00    +0.000 C 
ATOM      5  C   UNL     1       2.321   4.868  19.826  0.00  0.00    +0.000 A 
ATOM      6  C   UNL     1       2.696   4.795  21.163  0.00  0.00    +0.000 A 
ATOM      7  C   UNL     1       2.332   3.665  21.899  0.00  0.00    +0.000 A 
ATOM      8  C   UNL     1       1.571   2.643  21.310  0.00  0.00    +0.000 A 
ATOM      9  C   UNL     1       1.164   2.742  19.978  0.00  0.00    +0.000 A 
ATOM     10  C   UNL     1       1.560   3.862  19.267  0.00  0.00    +0.000 A 
ENDROOT
BRANCH   4  11
ATOM     11  C   UNL     1       4.104   5.938  18.317  0.00  0.00    +0.000 A 
ATOM     12  C   UNL     1       4.412   6.368  17.009  0.00  0.00    +0.000 A 
ATOM     13  C   UNL     1       5.735   6.588  16.610  0.00  0.00    +0.000 A 
ATOM     14  C   UNL     1       6.778   6.358  17.504  0.00  0.00    +0.000 A 
ATOM     15  C   UNL     1       6.505   5.858  18.776  0.00  0.00    +0.000 A 
ATOM     16 CL   UNL     1       7.763   5.537  19.914  0.00  0.00    +0.000 Cl
ATOM     17  C   UNL     1       5.183   5.639  19.172  0.00  0.00    +0.000 A 
BRANCH  14  18
ATOM     18  O   UNL     1       8.067   6.633  17.143  0.00  0.00    +0.000 OA
ATOM     19  H   UNL     1       8.247   7.577  17.280  0.00  0.00    +0.000 HD
ENDBRANCH  14  18
ENDBRANCH   4  11
BRANCH   4  20
ATOM     20  C   UNL     1       2.084   7.282  19.190  0.00  0.00    +0.000 A 
ATOM     21  C   UNL     1       1.918   8.311  18.242  0.00  0.00    +0.000 A 
ATOM     22  C   UNL     1       1.396   9.559  18.606  0.00  0.00    +0.000 A 
ATOM     23  C   UNL     1       1.037   9.803  19.929  0.00  0.00    +0.000 A 
ATOM     24  C   UNL     1       1.186   8.800  20.888  0.00  0.00    +0.000 A 
ATOM     25 CL   UNL     1       0.773   9.066  22.541  0.00  0.00    +0.000 Cl
ATOM     26  C   UNL     1       1.684   7.548  20.518  0.00  0.00    +0.000 A 
BRANCH  23  27
ATOM     27  O   UNL     1       0.535  11.023  20.288  0.00  0.00    +0.000 OA
ATOM     28  H   UNL     1      -0.313  10.904  20.744  0.00  0.00    +0.000 HD
ENDBRANCH  23  27
ENDBRANCH   4  20
TORSDOF 4
ENDMDL
MODEL 9
REMARK VINA RESULT:      -7.9      5.634      8.195
REMARK  Name = 
REMARK  4 active torsions:
REMARK  status: ('A' for Active; 'I' for Inactive)
REMARK    1  A    between atoms: C_4  and  C_5
REMARK    2  A    between atoms: C_4  and  C_13
REMARK    3  A    between atoms: C_8  and  O_9
REMARK    4  A    between atoms: C_16  and  O_17
REMARK                            x       y       z     vdW  Elec       q    Type
REMARK                         _______ _______ _______ _____ _____    ______ ____
ROOT
ATOM      1  O   UNL     1       1.840   8.260  19.459  0.00  0.00    +0.000 OA
ATOM      2  C   UNL     1       1.130   9.223  19.652  0.00  0.00    +0.000 C 
ATOM      3  O   UNL     1       0.729  10.139  18.721  0.00  0.00    +0.000 OA
ATOM      4  C   UNL     1      -0.121  11.182  19.284  0.00  0.00    +0.000 C 
ATOM      5  C   UNL     1      -0.273  10.721  20.703  0.00  0.00    +0.000 A 
ATOM      6  C   UNL     1      -1.014  11.256  21.751  0.00  0.00    +0.000 A 
ATOM      7  C   UNL     1      -0.908  10.666  23.013  0.00  0.00    +0.000 A 
ATOM      8  C   UNL     1      -0.101   9.534  23.208  0.00  0.00    +0.000 A 
ATOM      9  C   UNL     1       0.608   8.978  22.141  0.00  0.00    +0.000 A 
ATOM     10  C   UNL     1       0.502   9.599  20.908  0.00  0.00    +0.000 A 
ENDROOT
BRANCH   4  11
ATOM     11  C   UNL     1       0.669  12.496  19.102  0.00  0.00    +0.000 A 
ATOM     12  C   UNL     1       2.007  12.451  18.658  0.00  0.00    +0.000 A 
ATOM     13  C   UNL     1       2.696  13.618  18.310  0.00  0.00    +0.000 A 
ATOM     14  C   UNL     1       2.067  14.856  18.423  0.00  0.00    +0.000 A 
ATOM     15  C   UNL     1       0.773  14.934  18.934  0.00  0.00    +0.000 A 
ATOM     16 CL   UNL     1      -0.042  16.444  19.113  0.00  0.00    +0.000 Cl
ATOM     17  C   UNL     1       0.087  13.766  19.281  0.00  0.00    +0.000 A 
BRANCH  14  18
ATOM     18  O   UNL     1       2.711  15.993  18.025  0.00  0.00    +0.000 OA
ATOM     19  H   UNL     1       3.626  15.978  18.351  0.00  0.00    +0.000 HD
ENDBRANCH  14  18
ENDBRANCH   4  11
BRANCH   4  20
ATOM     20  C   UNL     1      -1.480  11.180  18.554  0.00  0.00    +0.000 A 
ATOM     21  C   UNL     1      -2.612  11.803  19.116  0.00  0.00    +0.000 A 
ATOM     22  C   UNL     1      -3.840  11.824  18.443  0.00  0.00    +0.000 A 
ATOM     23  C   UNL     1      -3.961  11.216  17.197  0.00  0.00    +0.000 A 
ATOM     24  C   UNL     1      -2.855  10.598  16.613  0.00  0.00    +0.000 A 
ATOM     25 CL   UNL     1      -2.964   9.815  15.080  0.00  0.00    +0.000 Cl
ATOM     26  C   UNL     1      -1.624  10.598  17.276  0.00  0.00    +0.000 A 
BRANCH  23  27
ATOM     27  O   UNL     1      -5.161  11.230  16.542  0.00  0.00    +0.000 OA
ATOM     28  H   UNL     1      -5.845  10.840  17.109  0.00  0.00    +0.000 HD
ENDBRANCH  23  27
ENDBRANCH   4  20
TORSDOF 4
ENDMDL
