MODEL 1
REMARK VINA RESULT:      -9.4      0.000      0.000
REMARK  Name = 
REMARK  7 active torsions:
REMARK  status: ('A' for Active; 'I' for Inactive)
REMARK    1  A    between atoms: C_2  and  O_3
REMARK    2  A    between atoms: C_2  and  C_4
REMARK    3  A    between atoms: N_6  and  C_7
REMARK    4  A    between atoms: C_7  and  C_8
REMARK    5  A    between atoms: C_11  and  C_12
REMARK    6  A    between atoms: C_16  and  C_17
REMARK    7  A    between atoms: C_17  and  C_18
REMARK                            x       y       z     vdW  Elec       q    Type
REMARK                         _______ _______ _______ _____ _____    ______ ____
ROOT
ATOM      1  C   UNL     1       8.405   8.841  18.265  0.00  0.00    +0.000 A 
ATOM      2  C   UNL     1       7.418   8.655  17.319  0.00  0.00    +0.000 A 
ATOM      3  C   UNL     1       6.985   7.316  17.427  0.00  0.00    +0.000 A 
ATOM      4  C   UNL     1       5.986   6.557  16.805  0.00  0.00    +0.000 A 
ATOM      5  C   UNL     1       5.765   5.234  17.215  0.00  0.00    +0.000 A 
ATOM      6  C   UNL     1       6.594   4.663  18.196  0.00  0.00    +0.000 A 
ATOM      7  C   UNL     1       7.624   5.402  18.813  0.00  0.00    +0.000 A 
ATOM      8  C   UNL     1       7.766   6.731  18.412  0.00  0.00    +0.000 A 
ATOM      9  O   UNL     1       8.643   7.652  18.916  0.00  0.00    +0.000 OA
ENDROOT
BRANCH   1  13
ATOM     10  C   UNL     1      10.702  12.213  19.625  0.00  0.00    +0.000 A 
ATOM     11  C   UNL     1       9.885  11.500  20.511  0.00  0.00    +0.000 A 
ATOM     12  C   UNL     1       9.118  10.422  20.050  0.00  0.00    +0.000 A 
ATOM     13  C   UNL     1       9.145  10.027  18.700  0.00  0.00    +0.000 A 
ATOM     14  C   UNL     1       9.935  10.766  17.815  0.00  0.00    +0.000 A 
ATOM     15  C   UNL     1      10.701  11.844  18.273  0.00  0.00    +0.000 A 
BRANCH  10  16
ATOM     16  C   UNL     1      11.582  13.350  20.100  0.00  0.00    +0.000 C 
BRANCH  16  19
ATOM     17  C   UNL     1      11.341  15.350  17.962  0.00  0.00    +0.000 C 
ATOM     18  C   UNL     1      11.886  15.683  19.361  0.00  0.00    +0.000 C 
ATOM     19  N   UNL     1      10.972  14.688  19.962  0.00  0.00    +0.000 NA
ATOM     20  C   UNL     1      10.141  14.749  18.730  0.00  0.00    +0.000 C 
BRANCH  17  22
ATOM     21  O   UNL     1      11.230  17.708  17.245  0.00  0.00    +0.000 OA
ATOM     22  C   UNL     1      11.072  16.517  16.996  0.00  0.00    +0.000 C 
BRANCH  22  23
ATOM     23  O   UNL     1      10.590  16.132  15.783  0.00  0.00    +0.000 OA
ATOM     24  H   UNL     1       9.693  15.750  15.816  0.00  0.00    +0.000 HD
ENDBRANCH  22  23
ENDBRANCH  17  22
ENDBRANCH  16  19
ENDBRANCH  10  16
ENDBRANCH   1  13
BRANCH   5  25
ATOM     25  C   UNL     1       4.612   4.474  16.590  0.00  0.00    +0.000 C 
BRANCH  25  26
ATOM     26  C   UNL     1       3.567   4.000  17.572  0.00  0.00    +0.000 A 
ATOM     27  C   UNL     1       2.763   4.924  18.251  0.00  0.00    +0.000 A 
ATOM     28  C   UNL     1       1.782   4.492  19.144  0.00  0.00    +0.000 A 
ATOM     29  C   UNL     1       1.595   3.130  19.370  0.00  0.00    +0.000 A 
ATOM     30  C   UNL     1       2.390   2.198  18.706  0.00  0.00    +0.000 A 
ATOM     31  C   UNL     1       3.373   2.629  17.812  0.00  0.00    +0.000 A 
ENDBRANCH  25  26
ENDBRANCH   5  25
TORSDOF 7
ENDMDL
MODEL 2
REMARK VINA RESULT:      -9.2      0.864      1.525
REMARK  Name = 
REMARK  7 active torsions:
REMARK  status: ('A' for Active; 'I' for Inactive)
REMARK    1  A    between atoms: C_2  and  O_3
REMARK    2  A    between atoms: C_2  and  C_4
REMARK    3  A    between atoms: N_6  and  C_7
REMARK    4  A    between atoms: C_7  and  C_8
REMARK    5  A    between atoms: C_11  and  C_12
REMARK    6  A    between atoms: C_16  and  C_17
REMARK    7  A    between atoms: C_17  and  C_18
REMARK                            x       y       z     vdW  Elec       q    Type
REMARK                         _______ _______ _______ _____ _____    ______ ____
ROOT
ATOM      1  C   UNL     1       8.536   9.086  18.369  0.00  0.00    +0.000 A 
ATOM      2  C   UNL     1       7.517   8.924  17.453  0.00  0.00    +0.000 A 
ATOM      3  C   UNL     1       7.083   7.584  17.545  0.00  0.00    +0.000 A 
ATOM      4  C   UNL     1       6.061   6.842  16.939  0.00  0.00    +0.000 A 
ATOM      5  C   UNL     1       5.849   5.511  17.327  0.00  0.00    +0.000 A 
ATOM      6  C   UNL     1       6.708   4.916  18.266  0.00  0.00    +0.000 A 
ATOM      7  C   UNL     1       7.761   5.637  18.863  0.00  0.00    +0.000 A 
ATOM      8  C   UNL     1       7.895   6.974  18.489  0.00  0.00    +0.000 A 
ATOM      9  O   UNL     1       8.792   7.881  18.984  0.00  0.00    +0.000 OA
ENDROOT
BRANCH   1  13
ATOM     10  C   UNL     1      10.635  12.641  19.574  0.00  0.00    +0.000 A 
ATOM     11  C   UNL     1      10.655  12.216  18.240  0.00  0.00    +0.000 A 
ATOM     12  C   UNL     1       9.993  11.039  17.865  0.00  0.00    +0.000 A 
ATOM     13  C   UNL     1       9.295  10.259  18.805  0.00  0.00    +0.000 A 
ATOM     14  C   UNL     1       9.310  10.670  20.140  0.00  0.00    +0.000 A 
ATOM     15  C   UNL     1       9.972  11.844  20.518  0.00  0.00    +0.000 A 
BRANCH  10  16
ATOM     16  C   UNL     1      11.296  13.933  20.004  0.00  0.00    +0.000 C 
BRANCH  16  19
ATOM     17  C   UNL     1      10.607  16.405  18.575  0.00  0.00    +0.000 C 
ATOM     18  C   UNL     1      10.996  16.380  20.064  0.00  0.00    +0.000 C 
ATOM     19  N   UNL     1      10.358  15.054  20.215  0.00  0.00    +0.000 NA
ATOM     20  C   UNL     1       9.583  15.316  18.972  0.00  0.00    +0.000 C 
BRANCH  17  22
ATOM     21  O   UNL     1       9.137  18.383  18.440  0.00  0.00    +0.000 OA
ATOM     22  C   UNL     1      10.071  17.725  17.992  0.00  0.00    +0.000 C 
BRANCH  22  23
ATOM     23  O   UNL     1      10.714  18.132  16.864  0.00  0.00    +0.000 OA
ATOM     24  H   UNL     1      10.429  17.665  16.056  0.00  0.00    +0.000 HD
ENDBRANCH  22  23
ENDBRANCH  17  22
ENDBRANCH  16  19
ENDBRANCH  10  16
ENDBRANCH   1  13
BRANCH   5  25
ATOM     25  C   UNL     1       4.672   4.770  16.723  0.00  0.00    +0.000 C 
BRANCH  25  26
ATOM     26  C   UNL     1       3.507   4.572  17.663  0.00  0.00    +0.000 A 
ATOM     27  C   UNL     1       2.577   3.551  17.431  0.00  0.00    +0.000 A 
ATOM     28  C   UNL     1       1.509   3.350  18.307  0.00  0.00    +0.000 A 
ATOM     29  C   UNL     1       1.358   4.168  19.425  0.00  0.00    +0.000 A 
ATOM     30  C   UNL     1       2.272   5.191  19.666  0.00  0.00    +0.000 A 
ATOM     31  C   UNL     1       3.341   5.395  18.789  0.00  0.00    +0.000 A 
ENDBRANCH  25  26
ENDBRANCH   5  25
TORSDOF 7
ENDMDL
MODEL 3
REMARK VINA RESULT:      -9.1      7.886     10.601
REMARK  Name = 
REMARK  7 active torsions:
REMARK  status: ('A' for Active; 'I' for Inactive)
REMARK    1  A    between atoms: C_2  and  O_3
REMARK    2  A    between atoms: C_2  and  C_4
REMARK    3  A    between atoms: N_6  and  C_7
REMARK    4  A    between atoms: C_7  and  C_8
REMARK    5  A    between atoms: C_11  and  C_12
REMARK    6  A    between atoms: C_16  and  C_17
REMARK    7  A    between atoms: C_17  and  C_18
REMARK                            x       y       z     vdW  Elec       q    Type
REMARK                         _______ _______ _______ _____ _____    ______ ____
ROOT
ATOM      1  C   UNL     1       1.245   8.130  20.615  0.00  0.00    +0.000 A 
ATOM      2  C   UNL     1       1.837   8.024  19.373  0.00  0.00    +0.000 A 
ATOM      3  C   UNL     1       2.240   6.680  19.218  0.00  0.00    +0.000 A 
ATOM      4  C   UNL     1       2.822   5.947  18.176  0.00  0.00    +0.000 A 
ATOM      5  C   UNL     1       3.026   4.568  18.329  0.00  0.00    +0.000 A 
ATOM      6  C   UNL     1       2.709   3.951  19.551  0.00  0.00    +0.000 A 
ATOM      7  C   UNL     1       2.150   4.677  20.622  0.00  0.00    +0.000 A 
ATOM      8  C   UNL     1       1.912   6.034  20.400  0.00  0.00    +0.000 A 
ATOM      9  O   UNL     1       1.319   6.917  21.261  0.00  0.00    +0.000 OA
ENDROOT
BRANCH   1  13
ATOM     10  C   UNL     1      -0.952  11.324  22.478  0.00  0.00    +0.000 A 
ATOM     11  C   UNL     1      -0.409  11.481  21.197  0.00  0.00    +0.000 A 
ATOM     12  C   UNL     1       0.331  10.445  20.613  0.00  0.00    +0.000 A 
ATOM     13  C   UNL     1       0.547   9.228  21.286  0.00  0.00    +0.000 A 
ATOM     14  C   UNL     1       0.033   9.092  22.578  0.00  0.00    +0.000 A 
ATOM     15  C   UNL     1      -0.705  10.127  23.164  0.00  0.00    +0.000 A 
BRANCH  10  16
ATOM     16  C   UNL     1      -1.799  12.403  23.118  0.00  0.00    +0.000 C 
BRANCH  16  19
ATOM     17  C   UNL     1      -4.330  13.847  23.487  0.00  0.00    +0.000 C 
ATOM     18  C   UNL     1      -3.855  12.736  24.439  0.00  0.00    +0.000 C 
ATOM     19  N   UNL     1      -3.216  12.030  23.307  0.00  0.00    +0.000 NA
ATOM     20  C   UNL     1      -4.079  12.804  22.374  0.00  0.00    +0.000 C 
BRANCH  17  22
ATOM     21  O   UNL     1      -6.782  13.881  23.212  0.00  0.00    +0.000 OA
ATOM     22  C   UNL     1      -5.761  14.386  23.666  0.00  0.00    +0.000 C 
BRANCH  22  23
ATOM     23  O   UNL     1      -5.830  15.545  24.378  0.00  0.00    +0.000 OA
ATOM     24  H   UNL     1      -5.263  16.258  24.028  0.00  0.00    +0.000 HD
ENDBRANCH  22  23
ENDBRANCH  17  22
ENDBRANCH  16  19
ENDBRANCH  10  16
ENDBRANCH   1  13
BRANCH   5  25
ATOM     25  C   UNL     1       3.567   3.789  17.147  0.00  0.00    +0.000 C 
BRANCH  25  26
ATOM     26  C   UNL     1       4.947   4.208  16.698  0.00  0.00    +0.000 A 
ATOM     27  C   UNL     1       5.989   4.320  17.628  0.00  0.00    +0.000 A 
ATOM     28  C   UNL     1       7.271   4.687  17.217  0.00  0.00    +0.000 A 
ATOM     29  C   UNL     1       7.527   4.946  15.873  0.00  0.00    +0.000 A 
ATOM     30  C   UNL     1       6.500   4.844  14.937  0.00  0.00    +0.000 A 
ATOM     31  C   UNL     1       5.215   4.478  15.346  0.00  0.00    +0.000 A 
ENDBRANCH  25  26
ENDBRANCH   5  25
TORSDOF 7
ENDMDL
MODEL 4
REMARK VINA RESULT:      -9.0      7.704     11.236
REMARK  Name = 
REMARK  7 active torsions:
REMARK  status: ('A' for Active; 'I' for Inactive)
REMARK    1  A    between atoms: C_2  and  O_3
REMARK    2  A    between atoms: C_2  and  C_4
REMARK    3  A    between atoms: N_6  and  C_7
REMARK    4  A    between atoms: C_7  and  C_8
REMARK    5  A    between atoms: C_11  and  C_12
REMARK    6  A    between atoms: C_16  and  C_17
REMARK    7  A    between atoms: C_17  and  C_18
REMARK                            x       y       z     vdW  Elec       q    Type
REMARK                         _______ _______ _______ _____ _____    ______ ____
ROOT
ATOM      1  C   UNL     1       0.817   9.407  20.776  0.00  0.00    +0.000 A 
ATOM      2  C   UNL     1      -0.081   9.347  21.822  0.00  0.00    +0.000 A 
ATOM      3  C   UNL     1      -0.460  10.673  22.124  0.00  0.00    +0.000 A 
ATOM      4  C   UNL     1      -1.369  11.252  23.017  0.00  0.00    +0.000 A 
ATOM      5  C   UNL     1      -1.562  12.641  23.006  0.00  0.00    +0.000 A 
ATOM      6  C   UNL     1      -0.790  13.442  22.147  0.00  0.00    +0.000 A 
ATOM      7  C   UNL     1       0.152  12.881  21.262  0.00  0.00    +0.000 A 
ATOM      8  C   UNL     1       0.265  11.490  21.270  0.00  0.00    +0.000 A 
ATOM      9  O   UNL     1       1.055  10.725  20.456  0.00  0.00    +0.000 OA
ENDROOT
BRANCH   1  13
ATOM     10  C   UNL     1       2.879   6.457  18.423  0.00  0.00    +0.000 A 
ATOM     11  C   UNL     1       2.553   7.706  17.879  0.00  0.00    +0.000 A 
ATOM     12  C   UNL     1       1.854   8.647  18.646  0.00  0.00    +0.000 A 
ATOM     13  C   UNL     1       1.464   8.372  19.970  0.00  0.00    +0.000 A 
ATOM     14  C   UNL     1       1.762   7.111  20.492  0.00  0.00    +0.000 A 
ATOM     15  C   UNL     1       2.458   6.168  19.728  0.00  0.00    +0.000 A 
BRANCH  10  16
ATOM     16  C   UNL     1       3.678   5.437  17.640  0.00  0.00    +0.000 C 
BRANCH  16  19
ATOM     17  C   UNL     1       5.626   4.792  15.538  0.00  0.00    +0.000 C 
ATOM     18  C   UNL     1       5.968   4.748  17.038  0.00  0.00    +0.000 C 
ATOM     19  N   UNL     1       5.044   5.875  17.289  0.00  0.00    +0.000 NA
ATOM     20  C   UNL     1       5.117   6.220  15.843  0.00  0.00    +0.000 C 
BRANCH  17  22
ATOM     21  O   UNL     1       7.771   5.351  14.455  0.00  0.00    +0.000 OA
ATOM     22  C   UNL     1       6.780   4.634  14.531  0.00  0.00    +0.000 C 
BRANCH  22  23
ATOM     23  O   UNL     1       6.611   3.605  13.656  0.00  0.00    +0.000 OA
ATOM     24  H   UNL     1       7.286   2.904  13.735  0.00  0.00    +0.000 HD
ENDBRANCH  22  23
ENDBRANCH  17  22
ENDBRANCH  16  19
ENDBRANCH  10  16
ENDBRANCH   1  13
BRANCH   5  25
ATOM     25  C   UNL     1      -2.625  13.223  23.916  0.00  0.00    +0.000 C 
BRANCH  25  26
ATOM     26  C   UNL     1      -4.043  13.007  23.443  0.00  0.00    +0.000 A 
ATOM     27  C   UNL     1      -5.081  12.844  24.370  0.00  0.00    +0.000 A 
ATOM     28  C   UNL     1      -6.396  12.664  23.940  0.00  0.00    +0.000 A 
ATOM     29  C   UNL     1      -6.689  12.645  22.578  0.00  0.00    +0.000 A 
ATOM     30  C   UNL     1      -5.668  12.801  21.644  0.00  0.00    +0.000 A 
ATOM     31  C   UNL     1      -4.350  12.979  22.073  0.00  0.00    +0.000 A 
ENDBRANCH  25  26
ENDBRANCH   5  25
TORSDOF 7
ENDMDL
MODEL 5
REMARK VINA RESULT:      -8.9      1.444      1.995
REMARK  Name = 
REMARK  7 active torsions:
REMARK  status: ('A' for Active; 'I' for Inactive)
REMARK    1  A    between atoms: C_2  and  O_3
REMARK    2  A    between atoms: C_2  and  C_4
REMARK    3  A    between atoms: N_6  and  C_7
REMARK    4  A    between atoms: C_7  and  C_8
REMARK    5  A    between atoms: C_11  and  C_12
REMARK    6  A    between atoms: C_16  and  C_17
REMARK    7  A    between atoms: C_17  and  C_18
REMARK                            x       y       z     vdW  Elec       q    Type
REMARK                         _______ _______ _______ _____ _____    ______ ____
ROOT
ATOM      1  C   UNL     1       8.497   8.943  18.363  0.00  0.00    +0.000 A 
ATOM      2  C   UNL     1       7.634   8.675  17.320  0.00  0.00    +0.000 A 
ATOM      3  C   UNL     1       7.228   7.329  17.451  0.00  0.00    +0.000 A 
ATOM      4  C   UNL     1       6.330   6.506  16.759  0.00  0.00    +0.000 A 
ATOM      5  C   UNL     1       6.097   5.200  17.214  0.00  0.00    +0.000 A 
ATOM      6  C   UNL     1       6.819   4.709  18.316  0.00  0.00    +0.000 A 
ATOM      7  C   UNL     1       7.749   5.512  19.006  0.00  0.00    +0.000 A 
ATOM      8  C   UNL     1       7.902   6.823  18.552  0.00  0.00    +0.000 A 
ATOM      9  O   UNL     1       8.688   7.797  19.103  0.00  0.00    +0.000 OA
ENDROOT
BRANCH   1  13
ATOM     10  C   UNL     1      10.252  12.649  19.658  0.00  0.00    +0.000 A 
ATOM     11  C   UNL     1      10.044  12.393  18.297  0.00  0.00    +0.000 A 
ATOM     12  C   UNL     1       9.500  11.169  17.885  0.00  0.00    +0.000 A 
ATOM     13  C   UNL     1       9.148  10.173  18.815  0.00  0.00    +0.000 A 
ATOM     14  C   UNL     1       9.393  10.422  20.168  0.00  0.00    +0.000 A 
ATOM     15  C   UNL     1       9.938  11.643  20.581  0.00  0.00    +0.000 A 
BRANCH  10  16
ATOM     16  C   UNL     1      10.790  13.979  20.140  0.00  0.00    +0.000 C 
BRANCH  16  19
ATOM     17  C   UNL     1       9.307  16.427  19.476  0.00  0.00    +0.000 C 
ATOM     18  C   UNL     1      10.126  16.269  20.769  0.00  0.00    +0.000 C 
ATOM     19  N   UNL     1       9.789  14.830  20.816  0.00  0.00    +0.000 NA
ATOM     20  C   UNL     1       8.644  15.097  19.905  0.00  0.00    +0.000 C 
BRANCH  17  22
ATOM     21  O   UNL     1       7.559  18.038  20.137  0.00  0.00    +0.000 OA
ATOM     22  C   UNL     1       8.413  17.671  19.336  0.00  0.00    +0.000 C 
BRANCH  22  23
ATOM     23  O   UNL     1       8.614  18.370  18.185  0.00  0.00    +0.000 OA
ATOM     24  H   UNL     1       8.829  17.810  17.415  0.00  0.00    +0.000 HD
ENDBRANCH  22  23
ENDBRANCH  17  22
ENDBRANCH  16  19
ENDBRANCH  10  16
ENDBRANCH   1  13
BRANCH   5  25
ATOM     25  C   UNL     1       5.047   4.371  16.501  0.00  0.00    +0.000 C 
BRANCH  25  26
ATOM     26  C   UNL     1       3.807   4.094  17.317  0.00  0.00    +0.000 A 
ATOM     27  C   UNL     1       3.330   2.784  17.455  0.00  0.00    +0.000 A 
ATOM     28  C   UNL     1       2.197   2.518  18.225  0.00  0.00    +0.000 A 
ATOM     29  C   UNL     1       1.526   3.558  18.864  0.00  0.00    +0.000 A 
ATOM     30  C   UNL     1       1.986   4.867  18.732  0.00  0.00    +0.000 A 
ATOM     31  C   UNL     1       3.119   5.135  17.961  0.00  0.00    +0.000 A 
ENDBRANCH  25  26
ENDBRANCH   5  25
TORSDOF 7
ENDMDL
MODEL 6
REMARK VINA RESULT:      -8.9      7.658     10.389
REMARK  Name = 
REMARK  7 active torsions:
REMARK  status: ('A' for Active; 'I' for Inactive)
REMARK    1  A    between atoms: C_2  and  O_3
REMARK    2  A    between atoms: C_2  and  C_4
REMARK    3  A    between atoms: N_6  and  C_7
REMARK    4  A    between atoms: C_7  and  C_8
REMARK    5  A    between atoms: C_11  and  C_12
REMARK    6  A    between atoms: C_16  and  C_17
REMARK    7  A    between atoms: C_17  and  C_18
REMARK                            x       y       z     vdW  Elec       q    Type
REMARK                         _______ _______ _______ _____ _____    ______ ____
ROOT
ATOM      1  C   UNL     1       1.250   8.242  20.515  0.00  0.00    +0.000 A 
ATOM      2  C   UNL     1       1.909   8.065  19.316  0.00  0.00    +0.000 A 
ATOM      3  C   UNL     1       2.255   6.699  19.228  0.00  0.00    +0.000 A 
ATOM      4  C   UNL     1       2.862   5.904  18.248  0.00  0.00    +0.000 A 
ATOM      5  C   UNL     1       2.989   4.523  18.458  0.00  0.00    +0.000 A 
ATOM      6  C   UNL     1       2.569   3.964  19.676  0.00  0.00    +0.000 A 
ATOM      7  C   UNL     1       1.983   4.753  20.687  0.00  0.00    +0.000 A 
ATOM      8  C   UNL     1       1.825   6.111  20.408  0.00  0.00    +0.000 A 
ATOM      9  O   UNL     1       1.225   7.049  21.202  0.00  0.00    +0.000 OA
ENDROOT
BRANCH   1  13
ATOM     10  C   UNL     1      -0.614  11.643  22.374  0.00  0.00    +0.000 A 
ATOM     11  C   UNL     1      -0.632  10.389  22.996  0.00  0.00    +0.000 A 
ATOM     12  C   UNL     1      -0.049   9.281  22.367  0.00  0.00    +0.000 A 
ATOM     13  C   UNL     1       0.568   9.394  21.107  0.00  0.00    +0.000 A 
ATOM     14  C   UNL     1       0.550  10.641  20.477  0.00  0.00    +0.000 A 
ATOM     15  C   UNL     1      -0.035  11.748  21.103  0.00  0.00    +0.000 A 
BRANCH  10  16
ATOM     16  C   UNL     1      -1.190  12.869  23.048  0.00  0.00    +0.000 C 
BRANCH  16  19
ATOM     17  C   UNL     1      -4.048  12.985  23.722  0.00  0.00    +0.000 C 
ATOM     18  C   UNL     1      -3.524  12.423  22.389  0.00  0.00    +0.000 C 
ATOM     19  N   UNL     1      -2.412  13.397  22.407  0.00  0.00    +0.000 NA
ATOM     20  C   UNL     1      -3.186  14.221  23.375  0.00  0.00    +0.000 C 
BRANCH  17  22
ATOM     21  O   UNL     1      -6.168  14.245  23.780  0.00  0.00    +0.000 OA
ATOM     22  C   UNL     1      -5.566  13.180  23.876  0.00  0.00    +0.000 C 
BRANCH  22  23
ATOM     23  O   UNL     1      -6.243  12.037  24.173  0.00  0.00    +0.000 OA
ATOM     24  H   UNL     1      -7.175  12.042  23.882  0.00  0.00    +0.000 HD
ENDBRANCH  22  23
ENDBRANCH  17  22
ENDBRANCH  16  19
ENDBRANCH  10  16
ENDBRANCH   1  13
BRANCH   5  25
ATOM     25  C   UNL     1       3.561   3.679  17.335  0.00  0.00    +0.000 C 
BRANCH  25  26
ATOM     26  C   UNL     1       4.912   4.133  16.837  0.00  0.00    +0.000 A 
ATOM     27  C   UNL     1       5.092   4.468  15.488  0.00  0.00    +0.000 A 
ATOM     28  C   UNL     1       6.333   4.907  15.025  0.00  0.00    +0.000 A 
ATOM     29  C   UNL     1       7.409   5.016  15.904  0.00  0.00    +0.000 A 
ATOM     30  C   UNL     1       7.247   4.681  17.246  0.00  0.00    +0.000 A 
ATOM     31  C   UNL     1       6.006   4.240  17.712  0.00  0.00    +0.000 A 
ENDBRANCH  25  26
ENDBRANCH   5  25
TORSDOF 7
ENDMDL
MODEL 7
REMARK VINA RESULT:      -8.8      8.409     11.142
REMARK  Name = 
REMARK  7 active torsions:
REMARK  status: ('A' for Active; 'I' for Inactive)
REMARK    1  A    between atoms: C_2  and  O_3
REMARK    2  A    between atoms: C_2  and  C_4
REMARK    3  A    between atoms: N_6  and  C_7
REMARK    4  A    between atoms: C_7  and  C_8
REMARK    5  A    between atoms: C_11  and  C_12
REMARK    6  A    between atoms: C_16  and  C_17
REMARK    7  A    between atoms: C_17  and  C_18
REMARK                            x       y       z     vdW  Elec       q    Type
REMARK                         _______ _______ _______ _____ _____    ______ ____
ROOT
ATOM      1  C   UNL     1       0.831   8.886  20.582  0.00  0.00    +0.000 A 
ATOM      2  C   UNL     1       1.312   7.646  20.949  0.00  0.00    +0.000 A 
ATOM      3  C   UNL     1       2.149   7.198  19.904  0.00  0.00    +0.000 A 
ATOM      4  C   UNL     1       2.961   6.073  19.715  0.00  0.00    +0.000 A 
ATOM      5  C   UNL     1       3.745   5.972  18.556  0.00  0.00    +0.000 A 
ATOM      6  C   UNL     1       3.654   6.966  17.567  0.00  0.00    +0.000 A 
ATOM      7  C   UNL     1       2.819   8.090  17.725  0.00  0.00    +0.000 A 
ATOM      8  C   UNL     1       2.103   8.174  18.920  0.00  0.00    +0.000 A 
ATOM      9  O   UNL     1       1.291   9.199  19.322  0.00  0.00    +0.000 OA
ENDROOT
BRANCH   1  13
ATOM     10  C   UNL     1      -1.703  11.729  22.579  0.00  0.00    +0.000 A 
ATOM     11  C   UNL     1      -1.428  11.853  21.212  0.00  0.00    +0.000 A 
ATOM     12  C   UNL     1      -0.576  10.938  20.578  0.00  0.00    +0.000 A 
ATOM     13  C   UNL     1       0.021   9.879  21.287  0.00  0.00    +0.000 A 
ATOM     14  C   UNL     1      -0.230   9.784  22.659  0.00  0.00    +0.000 A 
ATOM     15  C   UNL     1      -1.079  10.698  23.294  0.00  0.00    +0.000 A 
BRANCH  10  16
ATOM     16  C   UNL     1      -2.659  12.669  23.283  0.00  0.00    +0.000 C 
BRANCH  16  19
ATOM     17  C   UNL     1      -5.297  13.886  23.714  0.00  0.00    +0.000 C 
ATOM     18  C   UNL     1      -4.791  12.679  24.522  0.00  0.00    +0.000 C 
ATOM     19  N   UNL     1      -4.054  12.187  23.338  0.00  0.00    +0.000 NA
ATOM     20  C   UNL     1      -4.924  13.034  22.479  0.00  0.00    +0.000 C 
BRANCH  17  22
ATOM     21  O   UNL     1      -7.699  13.560  24.174  0.00  0.00    +0.000 OA
ATOM     22  C   UNL     1      -6.768  14.305  23.888  0.00  0.00    +0.000 C 
BRANCH  22  23
ATOM     23  O   UNL     1      -6.996  15.628  23.663  0.00  0.00    +0.000 OA
ATOM     24  H   UNL     1      -6.648  15.951  22.811  0.00  0.00    +0.000 HD
ENDBRANCH  22  23
ENDBRANCH  17  22
ENDBRANCH  16  19
ENDBRANCH  10  16
ENDBRANCH   1  13
BRANCH   5  25
ATOM     25  C   UNL     1       4.687   4.791  18.430  0.00  0.00    +0.000 C 
BRANCH  25  26
ATOM     26  C   UNL     1       5.445   4.729  17.125  0.00  0.00    +0.000 A 
ATOM     27  C   UNL     1       6.769   5.179  17.055  0.00  0.00    +0.000 A 
ATOM     28  C   UNL     1       7.482   5.106  15.858  0.00  0.00    +0.000 A 
ATOM     29  C   UNL     1       6.879   4.583  14.716  0.00  0.00    +0.000 A 
ATOM     30  C   UNL     1       5.561   4.136  14.769  0.00  0.00    +0.000 A 
ATOM     31  C   UNL     1       4.845   4.209  15.966  0.00  0.00    +0.000 A 
ENDBRANCH  25  26
ENDBRANCH   5  25
TORSDOF 7
ENDMDL
MODEL 8
REMARK VINA RESULT:      -8.8      7.680     10.431
REMARK  Name = 
REMARK  7 active torsions:
REMARK  status: ('A' for Active; 'I' for Inactive)
REMARK    1  A    between atoms: C_2  and  O_3
REMARK    2  A    between atoms: C_2  and  C_4
REMARK    3  A    between atoms: N_6  and  C_7
REMARK    4  A    between atoms: C_7  and  C_8
REMARK    5  A    between atoms: C_11  and  C_12
REMARK    6  A    between atoms: C_16  and  C_17
REMARK    7  A    between atoms: C_17  and  C_18
REMARK                            x       y       z     vdW  Elec       q    Type
REMARK                         _______ _______ _______ _____ _____    ______ ____
ROOT
ATOM      1  C   UNL     1       1.241   8.493  20.684  0.00  0.00    +0.000 A 
ATOM      2  C   UNL     1       1.844   8.353  19.450  0.00  0.00    +0.000 A 
ATOM      3  C   UNL     1       2.168   6.988  19.298  0.00  0.00    +0.000 A 
ATOM      4  C   UNL     1       2.721   6.223  18.263  0.00  0.00    +0.000 A 
ATOM      5  C   UNL     1       2.840   4.833  18.417  0.00  0.00    +0.000 A 
ATOM      6  C   UNL     1       2.468   4.235  19.633  0.00  0.00    +0.000 A 
ATOM      7  C   UNL     1       1.939   4.993  20.697  0.00  0.00    +0.000 A 
ATOM      8  C   UNL     1       1.785   6.362  20.474  0.00  0.00    +0.000 A 
ATOM      9  O   UNL     1       1.233   7.277  21.328  0.00  0.00    +0.000 OA
ENDROOT
BRANCH   1  13
ATOM     10  C   UNL     1      -0.763  11.841  22.492  0.00  0.00    +0.000 A 
ATOM     11  C   UNL     1       0.069  12.021  21.380  0.00  0.00    +0.000 A 
ATOM     12  C   UNL     1       0.741  10.927  20.818  0.00  0.00    +0.000 A 
ATOM     13  C   UNL     1       0.601   9.630  21.346  0.00  0.00    +0.000 A 
ATOM     14  C   UNL     1      -0.202   9.466  22.478  0.00  0.00    +0.000 A 
ATOM     15  C   UNL     1      -0.873  10.557  23.042  0.00  0.00    +0.000 A 
BRANCH  10  16
ATOM     16  C   UNL     1      -1.543  12.992  23.092  0.00  0.00    +0.000 C 
BRANCH  16  19
ATOM     17  C   UNL     1      -4.454  12.876  22.709  0.00  0.00    +0.000 C 
ATOM     18  C   UNL     1      -3.450  12.631  21.570  0.00  0.00    +0.000 C 
ATOM     19  N   UNL     1      -2.518  13.610  22.170  0.00  0.00    +0.000 NA
ATOM     20  C   UNL     1      -3.658  14.182  22.936  0.00  0.00    +0.000 C 
BRANCH  17  22
ATOM     21  O   UNL     1      -6.424  13.745  21.506  0.00  0.00    +0.000 OA
ATOM     22  C   UNL     1      -5.945  12.990  22.345  0.00  0.00    +0.000 C 
BRANCH  22  23
ATOM     23  O   UNL     1      -6.755  12.174  23.073  0.00  0.00    +0.000 OA
ATOM     24  H   UNL     1      -6.278  11.480  23.566  0.00  0.00    +0.000 HD
ENDBRANCH  22  23
ENDBRANCH  17  22
ENDBRANCH  16  19
ENDBRANCH  10  16
ENDBRANCH   1  13
BRANCH   5  25
ATOM     25  C   UNL     1       3.350   4.025  17.241  0.00  0.00    +0.000 C 
BRANCH  25  26
ATOM     26  C   UNL     1       4.803   4.259  16.902  0.00  0.00    +0.000 A 
ATOM     27  C   UNL     1       5.213   4.344  15.565  0.00  0.00    +0.000 A 
ATOM     28  C   UNL     1       6.551   4.581  15.246  0.00  0.00    +0.000 A 
ATOM     29  C   UNL     1       7.494   4.734  16.259  0.00  0.00    +0.000 A 
ATOM     30  C   UNL     1       7.103   4.647  17.593  0.00  0.00    +0.000 A 
ATOM     31  C   UNL     1       5.765   4.409  17.915  0.00  0.00    +0.000 A 
ENDBRANCH  25  26
ENDBRANCH   5  25
TORSDOF 7
ENDMDL
MODEL 9
REMARK VINA RESULT:      -8.8      7.846     10.570
REMARK  Name = 
REMARK  7 active torsions:
REMARK  status: ('A' for Active; 'I' for Inactive)
REMARK    1  A    between atoms: C_2  and  O_3
REMARK    2  A    between atoms: C_2  and  C_4
REMARK    3  A    between atoms: N_6  and  C_7
REMARK    4  A    between atoms: C_7  and  C_8
REMARK    5  A    between atoms: C_11  and  C_12
REMARK    6  A    between atoms: C_16  and  C_17
REMARK    7  A    between atoms: C_17  and  C_18
REMARK                            x       y       z     vdW  Elec       q    Type
REMARK                         _______ _______ _______ _____ _____    ______ ____
ROOT
ATOM      1  C   UNL     1       1.288   8.080  20.615  0.00  0.00    +0.000 A 
ATOM      2  C   UNL     1       1.910   7.968  19.389  0.00  0.00    +0.000 A 
ATOM      3  C   UNL     1       2.293   6.618  19.237  0.00  0.00    +0.000 A 
ATOM      4  C   UNL     1       2.890   5.879  18.208  0.00  0.00    +0.000 A 
ATOM      5  C   UNL     1       3.064   4.495  18.361  0.00  0.00    +0.000 A 
ATOM      6  C   UNL     1       2.703   3.879  19.571  0.00  0.00    +0.000 A 
ATOM      7  C   UNL     1       2.130   4.611  20.630  0.00  0.00    +0.000 A 
ATOM      8  C   UNL     1       1.922   5.974  20.408  0.00  0.00    +0.000 A 
ATOM      9  O   UNL     1       1.323   6.863  21.257  0.00  0.00    +0.000 OA
ENDROOT
BRANCH   1  13
ATOM     10  C   UNL     1      -0.903  11.299  22.441  0.00  0.00    +0.000 A 
ATOM     11  C   UNL     1      -0.382  11.431  21.148  0.00  0.00    +0.000 A 
ATOM     12  C   UNL     1       0.356  10.387  20.575  0.00  0.00    +0.000 A 
ATOM     13  C   UNL     1       0.593   9.188  21.272  0.00  0.00    +0.000 A 
ATOM     14  C   UNL     1       0.100   9.078  22.575  0.00  0.00    +0.000 A 
ATOM     15  C   UNL     1      -0.636  10.120  23.150  0.00  0.00    +0.000 A 
BRANCH  10  16
ATOM     16  C   UNL     1      -1.748  12.387  23.069  0.00  0.00    +0.000 C 
BRANCH  16  19
ATOM     17  C   UNL     1      -4.282  13.816  23.472  0.00  0.00    +0.000 C 
ATOM     18  C   UNL     1      -3.777  12.724  24.430  0.00  0.00    +0.000 C 
ATOM     19  N   UNL     1      -3.157  12.006  23.296  0.00  0.00    +0.000 NA
ATOM     20  C   UNL     1      -4.047  12.758  22.370  0.00  0.00    +0.000 C 
BRANCH  17  22
ATOM     21  O   UNL     1      -6.022  15.510  23.912  0.00  0.00    +0.000 OA
ATOM     22  C   UNL     1      -5.713  14.347  23.675  0.00  0.00    +0.000 C 
BRANCH  22  23
ATOM     23  O   UNL     1      -6.674  13.386  23.600  0.00  0.00    +0.000 OA
ATOM     24  H   UNL     1      -6.646  12.860  22.779  0.00  0.00    +0.000 HD
ENDBRANCH  22  23
ENDBRANCH  17  22
ENDBRANCH  16  19
ENDBRANCH  10  16
ENDBRANCH   1  13
BRANCH   5  25
ATOM     25  C   UNL     1       3.622   3.712  17.189  0.00  0.00    +0.000 C 
BRANCH  25  26
ATOM     26  C   UNL     1       4.975   4.180  16.709  0.00  0.00    +0.000 A 
ATOM     27  C   UNL     1       5.194   4.433  15.348  0.00  0.00    +0.000 A 
ATOM     28  C   UNL     1       6.435   4.885  14.900  0.00  0.00    +0.000 A 
ATOM     29  C   UNL     1       7.473   5.090  15.807  0.00  0.00    +0.000 A 
ATOM     30  C   UNL     1       7.272   4.838  17.162  0.00  0.00    +0.000 A 
ATOM     31  C   UNL     1       6.031   4.384  17.613  0.00  0.00    +0.000 A 
ENDBRANCH  25  26
ENDBRANCH   5  25
TORSDOF 7
ENDMDL
