MODEL 1
REMARK VINA RESULT:      -7.8      0.000      0.000
REMARK  Name = 
REMARK  3 active torsions:
REMARK  status: ('A' for Active; 'I' for Inactive)
REMARK    1  A    between atoms: N_3  and  C_4
REMARK    2  A    between atoms: C_4  and  C_5
REMARK    3  A    between atoms: N_11  and  C_12
REMARK                            x       y       z     vdW  Elec       q    Type
REMARK                         _______ _______ _______ _____ _____    ______ ____
ROOT
ATOM      1  O   UNL     1       8.211   7.092  18.600  0.00  0.00    +0.000 OA
ATOM      2  C   UNL     1       7.740   7.854  17.766  0.00  0.00    +0.000 C 
ATOM      3  N   UNL     1       8.061   9.194  17.737  0.00  0.00    +0.000 N 
ATOM      4  N   UNL     1       6.850   7.530  16.770  0.00  0.00    +0.000 N 
ATOM      5  H   UNL     1       7.341   9.814  17.398  0.00  0.00    +0.000 HD
ATOM      6  H   UNL     1       6.737   8.213  16.031  0.00  0.00    +0.000 HD
ENDROOT
BRANCH   4   7
ATOM      7  C   UNL     1       6.054   6.368  16.702  0.00  0.00    +0.000 A 
ATOM      8  C   UNL     1       6.433   5.214  15.976  0.00  0.00    +0.000 A 
ATOM      9  C   UNL     1       5.748   4.003  16.129  0.00  0.00    +0.000 A 
ATOM     10  C   UNL     1       4.722   3.974  17.038  0.00  0.00    +0.000 A 
ATOM     11  C   UNL     1       4.299   5.112  17.688  0.00  0.00    +0.000 A 
ATOM     12  C   UNL     1       4.912   6.332  17.510  0.00  0.00    +0.000 A 
ATOM     13  O   UNL     1       3.321   4.844  18.599  0.00  0.00    +0.000 OA
ATOM     14  C   UNL     1       3.473   3.411  18.677  0.00  0.00    +0.000 C 
ATOM     15  O   UNL     1       4.079   2.862  17.489  0.00  0.00    +0.000 OA
ENDBRANCH   4   7
BRANCH   3  16
ATOM     16  C   UNL     1       8.898   9.719  18.790  0.00  0.00    +0.000 C 
BRANCH  16  17
ATOM     17  C   UNL     1       9.568  10.994  18.372  0.00  0.00    +0.000 A 
ATOM     18  C   UNL     1       8.821  12.083  17.905  0.00  0.00    +0.000 A 
ATOM     19  C   UNL     1       9.465  13.261  17.526  0.00  0.00    +0.000 A 
ATOM     20  C   UNL     1      10.853  13.373  17.624  0.00  0.00    +0.000 A 
ATOM     21  C   UNL     1      11.603  12.294  18.082  0.00  0.00    +0.000 A 
ATOM     22  C   UNL     1      10.965  11.109  18.448  0.00  0.00    +0.000 A 
ENDBRANCH  16  17
ENDBRANCH   3  16
TORSDOF 3
ENDMDL
MODEL 2
REMARK VINA RESULT:      -7.3      5.989      7.767
REMARK  Name = 
REMARK  3 active torsions:
REMARK  status: ('A' for Active; 'I' for Inactive)
REMARK    1  A    between atoms: N_3  and  C_4
REMARK    2  A    between atoms: C_4  and  C_5
REMARK    3  A    between atoms: N_11  and  C_12
REMARK                            x       y       z     vdW  Elec       q    Type
REMARK                         _______ _______ _______ _____ _____    ______ ____
ROOT
ATOM      1  O   UNL     1       4.947   5.492  15.810  0.00  0.00    +0.000 OA
ATOM      2  C   UNL     1       5.389   4.389  16.105  0.00  0.00    +0.000 C 
ATOM      3  N   UNL     1       6.317   3.740  15.321  0.00  0.00    +0.000 N 
ATOM      4  N   UNL     1       5.051   3.640  17.206  0.00  0.00    +0.000 N 
ATOM      5  H   UNL     1       6.275   2.732  15.327  0.00  0.00    +0.000 HD
ATOM      6  H   UNL     1       5.665   2.865  17.427  0.00  0.00    +0.000 HD
ENDROOT
BRANCH   4   7
ATOM      7  C   UNL     1       3.916   3.817  18.026  0.00  0.00    +0.000 A 
ATOM      8  C   UNL     1       2.624   4.073  17.510  0.00  0.00    +0.000 A 
ATOM      9  C   UNL     1       1.489   3.998  18.325  0.00  0.00    +0.000 A 
ATOM     10  C   UNL     1       1.681   3.630  19.633  0.00  0.00    +0.000 A 
ATOM     11  C   UNL     1       2.942   3.457  20.158  0.00  0.00    +0.000 A 
ATOM     12  C   UNL     1       4.081   3.586  19.396  0.00  0.00    +0.000 A 
ATOM     13  O   UNL     1       2.899   3.020  21.450  0.00  0.00    +0.000 OA
ATOM     14  C   UNL     1       1.517   2.610  21.503  0.00  0.00    +0.000 C 
ATOM     15  O   UNL     1       0.707   3.293  20.523  0.00  0.00    +0.000 OA
ENDBRANCH   4   7
BRANCH   3  16
ATOM     16  C   UNL     1       6.693   4.345  14.064  0.00  0.00    +0.000 C 
BRANCH  16  17
ATOM     17  C   UNL     1       6.091   3.613  12.903  0.00  0.00    +0.000 A 
ATOM     18  C   UNL     1       6.834   2.673  12.177  0.00  0.00    +0.000 A 
ATOM     19  C   UNL     1       6.251   2.000  11.104  0.00  0.00    +0.000 A 
ATOM     20  C   UNL     1       4.921   2.241  10.754  0.00  0.00    +0.000 A 
ATOM     21  C   UNL     1       4.177   3.177  11.466  0.00  0.00    +0.000 A 
ATOM     22  C   UNL     1       4.760   3.863  12.531  0.00  0.00    +0.000 A 
ENDBRANCH  16  17
ENDBRANCH   3  16
TORSDOF 3
ENDMDL
MODEL 3
REMARK VINA RESULT:      -7.2      5.861      7.649
REMARK  Name = 
REMARK  3 active torsions:
REMARK  status: ('A' for Active; 'I' for Inactive)
REMARK    1  A    between atoms: N_3  and  C_4
REMARK    2  A    between atoms: C_4  and  C_5
REMARK    3  A    between atoms: N_11  and  C_12
REMARK                            x       y       z     vdW  Elec       q    Type
REMARK                         _______ _______ _______ _____ _____    ______ ____
ROOT
ATOM      1  O   UNL     1       5.177   5.624  15.812  0.00  0.00    +0.000 OA
ATOM      2  C   UNL     1       5.594   4.515  16.117  0.00  0.00    +0.000 C 
ATOM      3  N   UNL     1       6.450   3.806  15.302  0.00  0.00    +0.000 N 
ATOM      4  N   UNL     1       5.295   3.813  17.260  0.00  0.00    +0.000 N 
ATOM      5  H   UNL     1       6.371   2.801  15.344  0.00  0.00    +0.000 HD
ATOM      6  H   UNL     1       5.892   3.023  17.470  0.00  0.00    +0.000 HD
ENDROOT
BRANCH   4   7
ATOM      7  C   UNL     1       4.218   4.059  18.137  0.00  0.00    +0.000 A 
ATOM      8  C   UNL     1       3.049   4.755  17.749  0.00  0.00    +0.000 A 
ATOM      9  C   UNL     1       1.908   4.767  18.559  0.00  0.00    +0.000 A 
ATOM     10  C   UNL     1       1.960   4.046  19.725  0.00  0.00    +0.000 A 
ATOM     11  C   UNL     1       3.120   3.434  20.145  0.00  0.00    +0.000 A 
ATOM     12  C   UNL     1       4.277   3.458  19.400  0.00  0.00    +0.000 A 
ATOM     13  O   UNL     1       2.929   2.711  21.286  0.00  0.00    +0.000 OA
ATOM     14  C   UNL     1       1.487   2.664  21.284  0.00  0.00    +0.000 C 
ATOM     15  O   UNL     1       0.907   3.754  20.537  0.00  0.00    +0.000 OA
ENDBRANCH   4   7
BRANCH   3  16
ATOM     16  C   UNL     1       6.773   4.357  14.007  0.00  0.00    +0.000 C 
BRANCH  16  17
ATOM     17  C   UNL     1       6.066   3.621  12.908  0.00  0.00    +0.000 A 
ATOM     18  C   UNL     1       4.761   3.963  12.533  0.00  0.00    +0.000 A 
ATOM     19  C   UNL     1       4.126   3.267  11.504  0.00  0.00    +0.000 A 
ATOM     20  C   UNL     1       4.787   2.239  10.830  0.00  0.00    +0.000 A 
ATOM     21  C   UNL     1       6.082   1.890  11.200  0.00  0.00    +0.000 A 
ATOM     22  C   UNL     1       6.716   2.573  12.237  0.00  0.00    +0.000 A 
ENDBRANCH  16  17
ENDBRANCH   3  16
TORSDOF 3
ENDMDL
MODEL 4
REMARK VINA RESULT:      -7.1      5.166      6.641
REMARK  Name = 
REMARK  3 active torsions:
REMARK  status: ('A' for Active; 'I' for Inactive)
REMARK    1  A    between atoms: N_3  and  C_4
REMARK    2  A    between atoms: C_4  and  C_5
REMARK    3  A    between atoms: N_11  and  C_12
REMARK                            x       y       z     vdW  Elec       q    Type
REMARK                         _______ _______ _______ _____ _____    ______ ____
ROOT
ATOM      1  O   UNL     1       5.007   3.465  16.902  0.00  0.00    +0.000 OA
ATOM      2  C   UNL     1       4.787   4.667  16.826  0.00  0.00    +0.000 C 
ATOM      3  N   UNL     1       5.686   5.540  16.253  0.00  0.00    +0.000 N 
ATOM      4  N   UNL     1       3.670   5.325  17.281  0.00  0.00    +0.000 N 
ATOM      5  H   UNL     1       5.695   6.476  16.629  0.00  0.00    +0.000 HD
ATOM      6  H   UNL     1       3.537   6.270  16.942  0.00  0.00    +0.000 HD
ENDROOT
BRANCH   4   7
ATOM      7  C   UNL     1       2.723   4.831  18.202  0.00  0.00    +0.000 A 
ATOM      8  C   UNL     1       1.594   4.071  17.815  0.00  0.00    +0.000 A 
ATOM      9  C   UNL     1       0.816   3.393  18.760  0.00  0.00    +0.000 A 
ATOM     10  C   UNL     1       1.218   3.466  20.070  0.00  0.00    +0.000 A 
ATOM     11  C   UNL     1       2.267   4.268  20.461  0.00  0.00    +0.000 A 
ATOM     12  C   UNL     1       3.011   4.997  19.561  0.00  0.00    +0.000 A 
ATOM     13  O   UNL     1       2.542   4.133  21.790  0.00  0.00    +0.000 OA
ATOM     14  C   UNL     1       1.804   2.921  22.051  0.00  0.00    +0.000 C 
ATOM     15  O   UNL     1       0.737   2.718  21.101  0.00  0.00    +0.000 OA
ENDBRANCH   4   7
BRANCH   3  16
ATOM     16  C   UNL     1       6.965   5.022  15.826  0.00  0.00    +0.000 C 
BRANCH  16  17
ATOM     17  C   UNL     1       6.980   4.751  14.352  0.00  0.00    +0.000 A 
ATOM     18  C   UNL     1       7.804   5.487  13.490  0.00  0.00    +0.000 A 
ATOM     19  C   UNL     1       7.805   5.214  12.122  0.00  0.00    +0.000 A 
ATOM     20  C   UNL     1       7.003   4.197  11.601  0.00  0.00    +0.000 A 
ATOM     21  C   UNL     1       6.178   3.465  12.450  0.00  0.00    +0.000 A 
ATOM     22  C   UNL     1       6.162   3.744  13.816  0.00  0.00    +0.000 A 
ENDBRANCH  16  17
ENDBRANCH   3  16
TORSDOF 3
ENDMDL
MODEL 5
REMARK VINA RESULT:      -7.1      5.580      7.491
REMARK  Name = 
REMARK  3 active torsions:
REMARK  status: ('A' for Active; 'I' for Inactive)
REMARK    1  A    between atoms: N_3  and  C_4
REMARK    2  A    between atoms: C_4  and  C_5
REMARK    3  A    between atoms: N_11  and  C_12
REMARK                            x       y       z     vdW  Elec       q    Type
REMARK                         _______ _______ _______ _____ _____    ______ ____
ROOT
ATOM      1  O   UNL     1       5.105   5.650  15.748  0.00  0.00    +0.000 OA
ATOM      2  C   UNL     1       5.890   4.768  16.074  0.00  0.00    +0.000 C 
ATOM      3  N   UNL     1       6.890   4.332  15.232  0.00  0.00    +0.000 N 
ATOM      4  N   UNL     1       5.907   4.087  17.267  0.00  0.00    +0.000 N 
ATOM      5  H   UNL     1       7.157   3.364  15.326  0.00  0.00    +0.000 HD
ATOM      6  H   UNL     1       6.747   3.558  17.469  0.00  0.00    +0.000 HD
ENDROOT
BRANCH   4   7
ATOM      7  C   UNL     1       4.859   4.019  18.209  0.00  0.00    +0.000 A 
ATOM      8  C   UNL     1       4.548   5.077  19.096  0.00  0.00    +0.000 A 
ATOM      9  C   UNL     1       3.362   5.076  19.839  0.00  0.00    +0.000 A 
ATOM     10  C   UNL     1       2.500   4.028  19.641  0.00  0.00    +0.000 A 
ATOM     11  C   UNL     1       2.833   2.958  18.841  0.00  0.00    +0.000 A 
ATOM     12  C   UNL     1       4.021   2.900  18.147  0.00  0.00    +0.000 A 
ATOM     13  O   UNL     1       1.805   2.069  18.725  0.00  0.00    +0.000 OA
ATOM     14  C   UNL     1       0.736   2.896  19.229  0.00  0.00    +0.000 C 
ATOM     15  O   UNL     1       1.219   3.945  20.094  0.00  0.00    +0.000 OA
ENDBRANCH   4   7
BRANCH   3  16
ATOM     16  C   UNL     1       6.937   4.869  13.892  0.00  0.00    +0.000 C 
BRANCH  16  17
ATOM     17  C   UNL     1       6.388   3.894  12.893  0.00  0.00    +0.000 A 
ATOM     18  C   UNL     1       7.227   2.988  12.232  0.00  0.00    +0.000 A 
ATOM     19  C   UNL     1       6.692   2.087  11.310  0.00  0.00    +0.000 A 
ATOM     20  C   UNL     1       5.321   2.067  11.051  0.00  0.00    +0.000 A 
ATOM     21  C   UNL     1       4.482   2.968  11.700  0.00  0.00    +0.000 A 
ATOM     22  C   UNL     1       5.013   3.880  12.612  0.00  0.00    +0.000 A 
ENDBRANCH  16  17
ENDBRANCH   3  16
TORSDOF 3
ENDMDL
MODEL 6
REMARK VINA RESULT:      -7.1      4.930      6.627
REMARK  Name = 
REMARK  3 active torsions:
REMARK  status: ('A' for Active; 'I' for Inactive)
REMARK    1  A    between atoms: N_3  and  C_4
REMARK    2  A    between atoms: C_4  and  C_5
REMARK    3  A    between atoms: N_11  and  C_12
REMARK                            x       y       z     vdW  Elec       q    Type
REMARK                         _______ _______ _______ _____ _____    ______ ____
ROOT
ATOM      1  O   UNL     1       5.523   6.024  17.089  0.00  0.00    +0.000 OA
ATOM      2  C   UNL     1       6.154   5.004  17.334  0.00  0.00    +0.000 C 
ATOM      3  N   UNL     1       7.253   4.629  16.592  0.00  0.00    +0.000 N 
ATOM      4  N   UNL     1       5.889   4.097  18.332  0.00  0.00    +0.000 N 
ATOM      5  H   UNL     1       7.414   3.636  16.511  0.00  0.00    +0.000 HD
ATOM      6  H   UNL     1       6.628   3.438  18.546  0.00  0.00    +0.000 HD
ENDROOT
BRANCH   4   7
ATOM      7  C   UNL     1       4.682   3.969  19.050  0.00  0.00    +0.000 A 
ATOM      8  C   UNL     1       4.099   5.034  19.776  0.00  0.00    +0.000 A 
ATOM      9  C   UNL     1       2.791   4.947  20.267  0.00  0.00    +0.000 A 
ATOM     10  C   UNL     1       2.089   3.804  19.981  0.00  0.00    +0.000 A 
ATOM     11  C   UNL     1       2.677   2.734  19.344  0.00  0.00    +0.000 A 
ATOM     12  C   UNL     1       3.982   2.766  18.905  0.00  0.00    +0.000 A 
ATOM     13  O   UNL     1       1.782   1.737  19.092  0.00  0.00    +0.000 OA
ATOM     14  C   UNL     1       0.560   2.471  19.311  0.00  0.00    +0.000 C 
ATOM     15  O   UNL     1       0.756   3.610  20.175  0.00  0.00    +0.000 OA
ENDBRANCH   4   7
BRANCH   3  16
ATOM     16  C   UNL     1       7.596   5.417  15.432  0.00  0.00    +0.000 C 
BRANCH  16  17
ATOM     17  C   UNL     1       7.097   4.779  14.170  0.00  0.00    +0.000 A 
ATOM     18  C   UNL     1       7.767   4.962  12.954  0.00  0.00    +0.000 A 
ATOM     19  C   UNL     1       7.287   4.354  11.794  0.00  0.00    +0.000 A 
ATOM     20  C   UNL     1       6.149   3.546  11.835  0.00  0.00    +0.000 A 
ATOM     21  C   UNL     1       5.474   3.364  13.039  0.00  0.00    +0.000 A 
ATOM     22  C   UNL     1       5.942   3.982  14.199  0.00  0.00    +0.000 A 
ENDBRANCH  16  17
ENDBRANCH   3  16
TORSDOF 3
ENDMDL
MODEL 7
REMARK VINA RESULT:      -7.1      5.139      6.728
REMARK  Name = 
REMARK  3 active torsions:
REMARK  status: ('A' for Active; 'I' for Inactive)
REMARK    1  A    between atoms: N_3  and  C_4
REMARK    2  A    between atoms: C_4  and  C_5
REMARK    3  A    between atoms: N_11  and  C_12
REMARK                            x       y       z     vdW  Elec       q    Type
REMARK                         _______ _______ _______ _____ _____    ______ ____
ROOT
ATOM      1  O   UNL     1       5.325   5.861  17.152  0.00  0.00    +0.000 OA
ATOM      2  C   UNL     1       5.719   4.707  17.253  0.00  0.00    +0.000 C 
ATOM      3  N   UNL     1       6.778   4.229  16.511  0.00  0.00    +0.000 N 
ATOM      4  N   UNL     1       5.201   3.733  18.072  0.00  0.00    +0.000 N 
ATOM      5  H   UNL     1       6.745   3.249  16.273  0.00  0.00    +0.000 HD
ATOM      6  H   UNL     1       5.775   2.909  18.208  0.00  0.00    +0.000 HD
ENDROOT
BRANCH   4   7
ATOM      7  C   UNL     1       3.939   3.750  18.701  0.00  0.00    +0.000 A 
ATOM      8  C   UNL     1       2.719   3.685  17.986  0.00  0.00    +0.000 A 
ATOM      9  C   UNL     1       1.504   3.457  18.643  0.00  0.00    +0.000 A 
ATOM     10  C   UNL     1       1.554   3.262  20.000  0.00  0.00    +0.000 A 
ATOM     11  C   UNL     1       2.725   3.404  20.710  0.00  0.00    +0.000 A 
ATOM     12  C   UNL     1       3.925   3.691  20.099  0.00  0.00    +0.000 A 
ATOM     13  O   UNL     1       2.563   3.093  22.028  0.00  0.00    +0.000 OA
ATOM     14  C   UNL     1       1.292   2.414  21.943  0.00  0.00    +0.000 C 
ATOM     15  O   UNL     1       0.533   2.819  20.785  0.00  0.00    +0.000 OA
ENDBRANCH   4   7
BRANCH   3  16
ATOM     16  C   UNL     1       7.362   5.097  15.515  0.00  0.00    +0.000 C 
BRANCH  16  17
ATOM     17  C   UNL     1       7.032   4.637  14.127  0.00  0.00    +0.000 A 
ATOM     18  C   UNL     1       5.977   3.745  13.893  0.00  0.00    +0.000 A 
ATOM     19  C   UNL     1       5.685   3.335  12.593  0.00  0.00    +0.000 A 
ATOM     20  C   UNL     1       6.425   3.820  11.513  0.00  0.00    +0.000 A 
ATOM     21  C   UNL     1       7.478   4.703  11.737  0.00  0.00    +0.000 A 
ATOM     22  C   UNL     1       7.783   5.104  13.037  0.00  0.00    +0.000 A 
ENDBRANCH  16  17
ENDBRANCH   3  16
TORSDOF 3
ENDMDL
MODEL 8
REMARK VINA RESULT:      -7.1      5.146      6.629
REMARK  Name = 
REMARK  3 active torsions:
REMARK  status: ('A' for Active; 'I' for Inactive)
REMARK    1  A    between atoms: N_3  and  C_4
REMARK    2  A    between atoms: C_4  and  C_5
REMARK    3  A    between atoms: N_11  and  C_12
REMARK                            x       y       z     vdW  Elec       q    Type
REMARK                         _______ _______ _______ _____ _____    ______ ____
ROOT
ATOM      1  O   UNL     1       4.991   3.477  16.927  0.00  0.00    +0.000 OA
ATOM      2  C   UNL     1       4.765   4.678  16.860  0.00  0.00    +0.000 C 
ATOM      3  N   UNL     1       5.661   5.559  16.294  0.00  0.00    +0.000 N 
ATOM      4  N   UNL     1       3.644   5.328  17.318  0.00  0.00    +0.000 N 
ATOM      5  H   UNL     1       5.665   6.493  16.677  0.00  0.00    +0.000 HD
ATOM      6  H   UNL     1       3.507   6.274  16.985  0.00  0.00    +0.000 HD
ENDROOT
BRANCH   4   7
ATOM      7  C   UNL     1       2.698   4.823  18.234  0.00  0.00    +0.000 A 
ATOM      8  C   UNL     1       1.583   4.043  17.841  0.00  0.00    +0.000 A 
ATOM      9  C   UNL     1       0.809   3.357  18.784  0.00  0.00    +0.000 A 
ATOM     10  C   UNL     1       1.200   3.442  20.096  0.00  0.00    +0.000 A 
ATOM     11  C   UNL     1       2.234   4.261  20.491  0.00  0.00    +0.000 A 
ATOM     12  C   UNL     1       2.974   4.998  19.594  0.00  0.00    +0.000 A 
ATOM     13  O   UNL     1       2.502   4.135  21.823  0.00  0.00    +0.000 OA
ATOM     14  C   UNL     1       1.780   2.913  22.083  0.00  0.00    +0.000 C 
ATOM     15  O   UNL     1       0.723   2.690  21.126  0.00  0.00    +0.000 OA
ENDBRANCH   4   7
BRANCH   3  16
ATOM     16  C   UNL     1       6.943   5.050  15.866  0.00  0.00    +0.000 C 
BRANCH  16  17
ATOM     17  C   UNL     1       6.942   4.730  14.401  0.00  0.00    +0.000 A 
ATOM     18  C   UNL     1       6.134   3.708  13.885  0.00  0.00    +0.000 A 
ATOM     19  C   UNL     1       6.146   3.431  12.518  0.00  0.00    +0.000 A 
ATOM     20  C   UNL     1       6.946   4.177  11.651  0.00  0.00    +0.000 A 
ATOM     21  C   UNL     1       7.755   5.191  12.156  0.00  0.00    +0.000 A 
ATOM     22  C   UNL     1       7.758   5.462  13.524  0.00  0.00    +0.000 A 
ENDBRANCH  16  17
ENDBRANCH   3  16
TORSDOF 3
ENDMDL
MODEL 9
REMARK VINA RESULT:      -7.1      5.931      7.816
REMARK  Name = 
REMARK  3 active torsions:
REMARK  status: ('A' for Active; 'I' for Inactive)
REMARK    1  A    between atoms: N_3  and  C_4
REMARK    2  A    between atoms: C_4  and  C_5
REMARK    3  A    between atoms: N_11  and  C_12
REMARK                            x       y       z     vdW  Elec       q    Type
REMARK                         _______ _______ _______ _____ _____    ______ ____
ROOT
ATOM      1  O   UNL     1       1.806   8.016  20.168  0.00  0.00    +0.000 OA
ATOM      2  C   UNL     1       1.969   8.252  18.978  0.00  0.00    +0.000 C 
ATOM      3  N   UNL     1       1.486   9.400  18.388  0.00  0.00    +0.000 N 
ATOM      4  N   UNL     1       2.620   7.456  18.066  0.00  0.00    +0.000 N 
ATOM      5  H   UNL     1       1.224   9.322  17.417  0.00  0.00    +0.000 HD
ATOM      6  H   UNL     1       2.867   7.892  17.186  0.00  0.00    +0.000 HD
ENDROOT
BRANCH   4   7
ATOM      7  C   UNL     1       2.935   6.090  18.220  0.00  0.00    +0.000 A 
ATOM      8  C   UNL     1       4.106   5.636  18.873  0.00  0.00    +0.000 A 
ATOM      9  C   UNL     1       4.266   4.291  19.224  0.00  0.00    +0.000 A 
ATOM     10  C   UNL     1       3.225   3.443  18.943  0.00  0.00    +0.000 A 
ATOM     11  C   UNL     1       2.120   3.862  18.237  0.00  0.00    +0.000 A 
ATOM     12  C   UNL     1       1.962   5.166  17.822  0.00  0.00    +0.000 A 
ATOM     13  O   UNL     1       1.178   2.881  18.136  0.00  0.00    +0.000 OA
ATOM     14  C   UNL     1       1.678   1.984  19.150  0.00  0.00    +0.000 C 
ATOM     15  O   UNL     1       3.090   2.163  19.387  0.00  0.00    +0.000 OA
ENDBRANCH   4   7
BRANCH   3  16
ATOM     16  C   UNL     1       0.677  10.290  19.187  0.00  0.00    +0.000 C 
BRANCH  16  17
ATOM     17  C   UNL     1      -0.678  10.493  18.577  0.00  0.00    +0.000 A 
ATOM     18  C   UNL     1      -1.087   9.750  17.462  0.00  0.00    +0.000 A 
ATOM     19  C   UNL     1      -2.354   9.952  16.916  0.00  0.00    +0.000 A 
ATOM     20  C   UNL     1      -3.231  10.880  17.481  0.00  0.00    +0.000 A 
ATOM     21  C   UNL     1      -2.830  11.626  18.585  0.00  0.00    +0.000 A 
ATOM     22  C   UNL     1      -1.559  11.438  19.127  0.00  0.00    +0.000 A 
ENDBRANCH  16  17
ENDBRANCH   3  16
TORSDOF 3
ENDMDL
