MODEL 1
REMARK VINA RESULT:      -8.0      0.000      0.000
REMARK  Name = 
REMARK  8 active torsions:
REMARK  status: ('A' for Active; 'I' for Inactive)
REMARK    1  A    between atoms: N_1  and  C_2
REMARK    2  A    between atoms: C_2  and  C_3
REMARK    3  A    between atoms: C_3  and  N_4
REMARK    4  A    between atoms: N_4  and  C_5
REMARK    5  A    between atoms: C_8  and  N_9
REMARK    6  A    between atoms: C_13  and  C_14
REMARK    7  A    between atoms: N_16  and  C_17
REMARK    8  A    between atoms: C_21  and  C_22
REMARK                            x       y       z     vdW  Elec       q    Type
REMARK                         _______ _______ _______ _____ _____    ______ ____
ROOT
ATOM      1  C   UNL     1       3.056   4.495  17.623  0.00  0.00    +0.000 A 
ATOM      2  C   UNL     1       4.046   3.761  16.937  0.00  0.00    +0.000 A 
ATOM      3  C   UNL     1       5.346   4.250  16.753  0.00  0.00    +0.000 A 
ATOM      4  C   UNL     1       5.678   5.514  17.231  0.00  0.00    +0.000 A 
ATOM      5  C   UNL     1       4.718   6.285  17.884  0.00  0.00    +0.000 A 
ATOM      6  C   UNL     1       3.410   5.786  18.082  0.00  0.00    +0.000 A 
ENDROOT
BRANCH   6   7
ATOM      7  C   UNL     1       2.510   6.692  18.861  0.00  0.00    +0.000 C 
ATOM      8  O   UNL     1       2.064   6.244  19.914  0.00  0.00    +0.000 OA
ATOM      9  N   UNL     1       2.297   7.970  18.368  0.00  0.00    +0.000 N 
ATOM     10  H   UNL     1       2.828   8.229  17.542  0.00  0.00    +0.000 HD
BRANCH   9  11
ATOM     11  C   UNL     1       1.496   8.962  18.993  0.00  0.00    +0.000 A 
ATOM     12  C   UNL     1       1.013  10.086  18.314  0.00  0.00    +0.000 A 
ATOM     13  C   UNL     1       0.207  11.031  18.948  0.00  0.00    +0.000 A 
ATOM     14  C   UNL     1      -0.130  10.871  20.287  0.00  0.00    +0.000 A 
ATOM     15  C   UNL     1       0.349   9.767  21.005  0.00  0.00    +0.000 A 
ATOM     16  C   UNL     1       1.171   8.821  20.349  0.00  0.00    +0.000 A 
BRANCH  15  17
ATOM     17  C   UNL     1      -0.025   9.592  22.457  0.00  0.00    +0.000 C 
ATOM     18  F   UNL     1      -0.612  10.691  23.010  0.00  0.00    +0.000 F 
ATOM     19  F   UNL     1      -0.900   8.567  22.649  0.00  0.00    +0.000 F 
ATOM     20  F   UNL     1       1.054   9.314  23.242  0.00  0.00    +0.000 F 
ENDBRANCH  15  17
ENDBRANCH   9  11
ENDBRANCH   6   7
BRANCH   4  21
ATOM     21  N   UNL     1       7.041   6.029  17.053  0.00  0.00    +0.000 N 
ATOM     22  O   UNL     1       7.504   6.037  15.903  0.00  0.00    +0.000 OA
ATOM     23  O   UNL     1       7.645   6.428  18.057  0.00  0.00    +0.000 OA
ENDBRANCH   4  21
BRANCH   1  24
ATOM     24  N   UNL     1       1.757   3.976  17.828  0.00  0.00    +0.000 N 
ATOM     25  H   UNL     1       1.243   4.618  18.437  0.00  0.00    +0.000 HD
BRANCH  24  26
ATOM     26  C   UNL     1       1.630   2.599  18.348  0.00  0.00    +0.000 C 
BRANCH  26  27
ATOM     27  C   UNL     1       1.515   2.588  19.882  0.00  0.00    +0.000 C 
BRANCH  27  28
ATOM     28  N   UNL     1       0.626   3.636  20.390  0.00  0.00    +0.000 NA
ATOM     29  H   UNL     1       0.785   3.746  21.392  0.00  0.00    +0.000 HD
ATOM     30  H   UNL     1      -0.344   3.339  20.301  0.00  0.00    +0.000 HD
ENDBRANCH  27  28
ENDBRANCH  26  27
ENDBRANCH  24  26
ENDBRANCH   1  24
TORSDOF 8
ENDMDL
MODEL 2
REMARK VINA RESULT:      -7.9      2.428      2.768
REMARK  Name = 
REMARK  8 active torsions:
REMARK  status: ('A' for Active; 'I' for Inactive)
REMARK    1  A    between atoms: N_1  and  C_2
REMARK    2  A    between atoms: C_2  and  C_3
REMARK    3  A    between atoms: C_3  and  N_4
REMARK    4  A    between atoms: N_4  and  C_5
REMARK    5  A    between atoms: C_8  and  N_9
REMARK    6  A    between atoms: C_13  and  C_14
REMARK    7  A    between atoms: N_16  and  C_17
REMARK    8  A    between atoms: C_21  and  C_22
REMARK                            x       y       z     vdW  Elec       q    Type
REMARK                         _______ _______ _______ _____ _____    ______ ____
ROOT
ATOM      1  C   UNL     1       2.934   5.043  17.973  0.00  0.00    +0.000 A 
ATOM      2  C   UNL     1       3.899   4.161  17.443  0.00  0.00    +0.000 A 
ATOM      3  C   UNL     1       5.144   4.605  16.979  0.00  0.00    +0.000 A 
ATOM      4  C   UNL     1       5.441   5.965  17.007  0.00  0.00    +0.000 A 
ATOM      5  C   UNL     1       4.501   6.873  17.491  0.00  0.00    +0.000 A 
ATOM      6  C   UNL     1       3.250   6.423  17.973  0.00  0.00    +0.000 A 
ENDROOT
BRANCH   6   7
ATOM      7  C   UNL     1       2.373   7.499  18.527  0.00  0.00    +0.000 C 
ATOM      8  O   UNL     1       2.122   7.434  19.728  0.00  0.00    +0.000 OA
ATOM      9  N   UNL     1       1.964   8.507  17.667  0.00  0.00    +0.000 N 
ATOM     10  H   UNL     1       2.349   8.481  16.727  0.00  0.00    +0.000 HD
BRANCH   9  11
ATOM     11  C   UNL     1       1.155   9.614  18.033  0.00  0.00    +0.000 A 
ATOM     12  C   UNL     1       1.676  10.779  18.606  0.00  0.00    +0.000 A 
ATOM     13  C   UNL     1       0.859  11.861  18.933  0.00  0.00    +0.000 A 
ATOM     14  C   UNL     1      -0.508  11.796  18.692  0.00  0.00    +0.000 A 
ATOM     15  C   UNL     1      -1.070  10.640  18.136  0.00  0.00    +0.000 A 
ATOM     16  C   UNL     1      -0.229   9.548  17.817  0.00  0.00    +0.000 A 
BRANCH  15  17
ATOM     17  C   UNL     1      -2.555  10.575  17.870  0.00  0.00    +0.000 C 
ATOM     18  F   UNL     1      -3.302  11.310  18.743  0.00  0.00    +0.000 F 
ATOM     19  F   UNL     1      -2.881  11.029  16.628  0.00  0.00    +0.000 F 
ATOM     20  F   UNL     1      -3.042   9.305  17.943  0.00  0.00    +0.000 F 
ENDBRANCH  15  17
ENDBRANCH   9  11
ENDBRANCH   6   7
BRANCH   4  21
ATOM     21  N   UNL     1       6.747   6.438  16.533  0.00  0.00    +0.000 N 
ATOM     22  O   UNL     1       7.145   7.535  16.950  0.00  0.00    +0.000 OA
ATOM     23  O   UNL     1       7.375   5.714  15.748  0.00  0.00    +0.000 OA
ENDBRANCH   4  21
BRANCH   1  24
ATOM     24  N   UNL     1       1.694   4.576  18.467  0.00  0.00    +0.000 N 
ATOM     25  H   UNL     1       1.152   5.380  18.794  0.00  0.00    +0.000 HD
BRANCH  24  26
ATOM     26  C   UNL     1       1.708   3.534  19.513  0.00  0.00    +0.000 C 
BRANCH  26  27
ATOM     27  C   UNL     1       2.281   4.074  20.834  0.00  0.00    +0.000 C 
BRANCH  27  28
ATOM     28  N   UNL     1       2.031   3.178  21.967  0.00  0.00    +0.000 NA
ATOM     29  H   UNL     1       1.024   3.036  22.058  0.00  0.00    +0.000 HD
ATOM     30  H   UNL     1       2.321   3.627  22.833  0.00  0.00    +0.000 HD
ENDBRANCH  27  28
ENDBRANCH  26  27
ENDBRANCH  24  26
ENDBRANCH   1  24
TORSDOF 8
ENDMDL
MODEL 3
REMARK VINA RESULT:      -7.9      2.457      2.785
REMARK  Name = 
REMARK  8 active torsions:
REMARK  status: ('A' for Active; 'I' for Inactive)
REMARK    1  A    between atoms: N_1  and  C_2
REMARK    2  A    between atoms: C_2  and  C_3
REMARK    3  A    between atoms: C_3  and  N_4
REMARK    4  A    between atoms: N_4  and  C_5
REMARK    5  A    between atoms: C_8  and  N_9
REMARK    6  A    between atoms: C_13  and  C_14
REMARK    7  A    between atoms: N_16  and  C_17
REMARK    8  A    between atoms: C_21  and  C_22
REMARK                            x       y       z     vdW  Elec       q    Type
REMARK                         _______ _______ _______ _____ _____    ______ ____
ROOT
ATOM      1  C   UNL     1       2.906   5.151  17.788  0.00  0.00    +0.000 A 
ATOM      2  C   UNL     1       3.881   4.287  17.245  0.00  0.00    +0.000 A 
ATOM      3  C   UNL     1       5.161   4.732  16.892  0.00  0.00    +0.000 A 
ATOM      4  C   UNL     1       5.487   6.076  17.047  0.00  0.00    +0.000 A 
ATOM      5  C   UNL     1       4.541   6.969  17.547  0.00  0.00    +0.000 A 
ATOM      6  C   UNL     1       3.254   6.517  17.917  0.00  0.00    +0.000 A 
ENDROOT
BRANCH   6   7
ATOM      7  C   UNL     1       2.370   7.570  18.505  0.00  0.00    +0.000 C 
ATOM      8  O   UNL     1       2.171   7.503  19.715  0.00  0.00    +0.000 OA
ATOM      9  N   UNL     1       1.896   8.562  17.660  0.00  0.00    +0.000 N 
ATOM     10  H   UNL     1       2.243   8.543  16.705  0.00  0.00    +0.000 HD
BRANCH   9  11
ATOM     11  C   UNL     1       1.071   9.647  18.056  0.00  0.00    +0.000 A 
ATOM     12  C   UNL     1       1.568  10.778  18.714  0.00  0.00    +0.000 A 
ATOM     13  C   UNL     1       0.737  11.840  19.068  0.00  0.00    +0.000 A 
ATOM     14  C   UNL     1      -0.620  11.789  18.772  0.00  0.00    +0.000 A 
ATOM     15  C   UNL     1      -1.157  10.666  18.130  0.00  0.00    +0.000 A 
ATOM     16  C   UNL     1      -0.303   9.594  17.783  0.00  0.00    +0.000 A 
BRANCH  15  17
ATOM     17  C   UNL     1      -2.631  10.617  17.804  0.00  0.00    +0.000 C 
ATOM     18  F   UNL     1      -3.391  11.450  18.569  0.00  0.00    +0.000 F 
ATOM     19  F   UNL     1      -2.889  10.961  16.511  0.00  0.00    +0.000 F 
ATOM     20  F   UNL     1      -3.160   9.374  17.972  0.00  0.00    +0.000 F 
ENDBRANCH  15  17
ENDBRANCH   9  11
ENDBRANCH   6   7
BRANCH   4  21
ATOM     21  N   UNL     1       6.830   6.548  16.690  0.00  0.00    +0.000 N 
ATOM     22  O   UNL     1       7.529   5.808  15.983  0.00  0.00    +0.000 OA
ATOM     23  O   UNL     1       7.184   7.658  17.112  0.00  0.00    +0.000 OA
ENDBRANCH   4  21
BRANCH   1  24
ATOM     24  N   UNL     1       1.628   4.681  18.169  0.00  0.00    +0.000 N 
ATOM     25  H   UNL     1       1.013   5.488  18.305  0.00  0.00    +0.000 HD
BRANCH  24  26
ATOM     26  C   UNL     1       1.535   3.790  19.343  0.00  0.00    +0.000 C 
BRANCH  26  27
ATOM     27  C   UNL     1       0.990   2.405  18.952  0.00  0.00    +0.000 C 
BRANCH  27  28
ATOM     28  N   UNL     1       2.046   1.480  18.531  0.00  0.00    +0.000 NA
ATOM     29  H   UNL     1       1.620   0.708  18.017  0.00  0.00    +0.000 HD
ATOM     30  H   UNL     1       2.478   1.055  19.349  0.00  0.00    +0.000 HD
ENDBRANCH  27  28
ENDBRANCH  26  27
ENDBRANCH  24  26
ENDBRANCH   1  24
TORSDOF 8
ENDMDL
MODEL 4
REMARK VINA RESULT:      -7.8      3.792      5.817
REMARK  Name = 
REMARK  8 active torsions:
REMARK  status: ('A' for Active; 'I' for Inactive)
REMARK    1  A    between atoms: N_1  and  C_2
REMARK    2  A    between atoms: C_2  and  C_3
REMARK    3  A    between atoms: C_3  and  N_4
REMARK    4  A    between atoms: N_4  and  C_5
REMARK    5  A    between atoms: C_8  and  N_9
REMARK    6  A    between atoms: C_13  and  C_14
REMARK    7  A    between atoms: N_16  and  C_17
REMARK    8  A    between atoms: C_21  and  C_22
REMARK                            x       y       z     vdW  Elec       q    Type
REMARK                         _______ _______ _______ _____ _____    ______ ____
ROOT
ATOM      1  C   UNL     1       6.794   5.133  15.313  0.00  0.00    +0.000 A 
ATOM      2  C   UNL     1       7.472   5.156  14.076  0.00  0.00    +0.000 A 
ATOM      3  C   UNL     1       7.010   4.452  12.957  0.00  0.00    +0.000 A 
ATOM      4  C   UNL     1       5.861   3.674  13.062  0.00  0.00    +0.000 A 
ATOM      5  C   UNL     1       5.181   3.597  14.276  0.00  0.00    +0.000 A 
ATOM      6  C   UNL     1       5.639   4.320  15.402  0.00  0.00    +0.000 A 
ENDROOT
BRANCH   6   7
ATOM      7  C   UNL     1       4.771   4.200  16.614  0.00  0.00    +0.000 C 
ATOM      8  O   UNL     1       4.739   3.098  17.155  0.00  0.00    +0.000 OA
ATOM      9  N   UNL     1       4.123   5.342  17.060  0.00  0.00    +0.000 N 
ATOM     10  H   UNL     1       4.341   6.204  16.569  0.00  0.00    +0.000 HD
BRANCH   9  11
ATOM     11  C   UNL     1       3.286   5.411  18.204  0.00  0.00    +0.000 A 
ATOM     12  C   UNL     1       3.016   6.608  18.877  0.00  0.00    +0.000 A 
ATOM     13  C   UNL     1       2.169   6.648  19.984  0.00  0.00    +0.000 A 
ATOM     14  C   UNL     1       1.573   5.480  20.446  0.00  0.00    +0.000 A 
ATOM     15  C   UNL     1       1.833   4.259  19.809  0.00  0.00    +0.000 A 
ATOM     16  C   UNL     1       2.699   4.234  18.692  0.00  0.00    +0.000 A 
BRANCH  15  17
ATOM     17  C   UNL     1       1.178   2.994  20.309  0.00  0.00    +0.000 C 
ATOM     18  F   UNL     1       1.886   1.862  20.030  0.00  0.00    +0.000 F 
ATOM     19  F   UNL     1       1.000   2.999  21.659  0.00  0.00    +0.000 F 
ATOM     20  F   UNL     1      -0.058   2.800  19.769  0.00  0.00    +0.000 F 
ENDBRANCH  15  17
ENDBRANCH   9  11
ENDBRANCH   6   7
BRANCH   4  21
ATOM     21  N   UNL     1       5.365   2.941  11.892  0.00  0.00    +0.000 N 
ATOM     22  O   UNL     1       4.304   3.329  11.381  0.00  0.00    +0.000 OA
ATOM     23  O   UNL     1       6.034   1.983  11.482  0.00  0.00    +0.000 OA
ENDBRANCH   4  21
BRANCH   1  24
ATOM     24  N   UNL     1       7.254   5.875  16.426  0.00  0.00    +0.000 N 
ATOM     25  H   UNL     1       8.043   6.454  16.125  0.00  0.00    +0.000 HD
BRANCH  24  26
ATOM     26  C   UNL     1       7.624   5.139  17.651  0.00  0.00    +0.000 C 
BRANCH  26  27
ATOM     27  C   UNL     1       7.770   6.088  18.853  0.00  0.00    +0.000 C 
BRANCH  27  28
ATOM     28  N   UNL     1       7.887   5.373  20.126  0.00  0.00    +0.000 NA
ATOM     29  H   UNL     1       8.870   5.148  20.288  0.00  0.00    +0.000 HD
ATOM     30  H   UNL     1       7.411   4.475  20.063  0.00  0.00    +0.000 HD
ENDBRANCH  27  28
ENDBRANCH  26  27
ENDBRANCH  24  26
ENDBRANCH   1  24
TORSDOF 8
ENDMDL
MODEL 5
REMARK VINA RESULT:      -7.8      2.423      2.837
REMARK  Name = 
REMARK  8 active torsions:
REMARK  status: ('A' for Active; 'I' for Inactive)
REMARK    1  A    between atoms: N_1  and  C_2
REMARK    2  A    between atoms: C_2  and  C_3
REMARK    3  A    between atoms: C_3  and  N_4
REMARK    4  A    between atoms: N_4  and  C_5
REMARK    5  A    between atoms: C_8  and  N_9
REMARK    6  A    between atoms: C_13  and  C_14
REMARK    7  A    between atoms: N_16  and  C_17
REMARK    8  A    between atoms: C_21  and  C_22
REMARK                            x       y       z     vdW  Elec       q    Type
REMARK                         _______ _______ _______ _____ _____    ______ ____
ROOT
ATOM      1  C   UNL     1       2.992   4.996  17.737  0.00  0.00    +0.000 A 
ATOM      2  C   UNL     1       3.894   4.065  17.178  0.00  0.00    +0.000 A 
ATOM      3  C   UNL     1       5.174   4.431  16.745  0.00  0.00    +0.000 A 
ATOM      4  C   UNL     1       5.574   5.761  16.833  0.00  0.00    +0.000 A 
ATOM      5  C   UNL     1       4.700   6.718  17.346  0.00  0.00    +0.000 A 
ATOM      6  C   UNL     1       3.413   6.346  17.798  0.00  0.00    +0.000 A 
ENDROOT
BRANCH   6   7
ATOM      7  C   UNL     1       2.614   7.462  18.389  0.00  0.00    +0.000 C 
ATOM      8  O   UNL     1       2.335   7.362  19.581  0.00  0.00    +0.000 OA
ATOM      9  N   UNL     1       2.303   8.539  17.572  0.00  0.00    +0.000 N 
ATOM     10  H   UNL     1       2.704   8.526  16.639  0.00  0.00    +0.000 HD
BRANCH   9  11
ATOM     11  C   UNL     1       1.578   9.690  17.979  0.00  0.00    +0.000 A 
ATOM     12  C   UNL     1       0.192   9.688  18.164  0.00  0.00    +0.000 A 
ATOM     13  C   UNL     1      -0.489  10.829  18.588  0.00  0.00    +0.000 A 
ATOM     14  C   UNL     1       0.211  12.005  18.834  0.00  0.00    +0.000 A 
ATOM     15  C   UNL     1       1.598  12.050  18.642  0.00  0.00    +0.000 A 
ATOM     16  C   UNL     1       2.273  10.887  18.205  0.00  0.00    +0.000 A 
BRANCH  15  17
ATOM     17  C   UNL     1       2.356  13.327  18.916  0.00  0.00    +0.000 C 
ATOM     18  F   UNL     1       1.610  14.456  18.745  0.00  0.00    +0.000 F 
ATOM     19  F   UNL     1       2.833  13.386  20.190  0.00  0.00    +0.000 F 
ATOM     20  F   UNL     1       3.439  13.473  18.104  0.00  0.00    +0.000 F 
ENDBRANCH  15  17
ENDBRANCH   9  11
ENDBRANCH   6   7
BRANCH   4  21
ATOM     21  N   UNL     1       6.918   6.152  16.391  0.00  0.00    +0.000 N 
ATOM     22  O   UNL     1       7.465   5.446  15.532  0.00  0.00    +0.000 OA
ATOM     23  O   UNL     1       7.423   7.162  16.898  0.00  0.00    +0.000 OA
ENDBRANCH   4  21
BRANCH   1  24
ATOM     24  N   UNL     1       1.714   4.605  18.200  0.00  0.00    +0.000 N 
ATOM     25  H   UNL     1       1.219   5.440  18.524  0.00  0.00    +0.000 HD
BRANCH  24  26
ATOM     26  C   UNL     1       1.639   3.555  19.234  0.00  0.00    +0.000 C 
BRANCH  26  27
ATOM     27  C   UNL     1       1.250   4.142  20.602  0.00  0.00    +0.000 C 
BRANCH  27  28
ATOM     28  N   UNL     1       2.331   4.923  21.210  0.00  0.00    +0.000 NA
ATOM     29  H   UNL     1       2.478   4.593  22.165  0.00  0.00    +0.000 HD
ATOM     30  H   UNL     1       2.045   5.896  21.300  0.00  0.00    +0.000 HD
ENDBRANCH  27  28
ENDBRANCH  26  27
ENDBRANCH  24  26
ENDBRANCH   1  24
TORSDOF 8
ENDMDL
MODEL 6
REMARK VINA RESULT:      -7.8      1.082      1.349
REMARK  Name = 
REMARK  8 active torsions:
REMARK  status: ('A' for Active; 'I' for Inactive)
REMARK    1  A    between atoms: N_1  and  C_2
REMARK    2  A    between atoms: C_2  and  C_3
REMARK    3  A    between atoms: C_3  and  N_4
REMARK    4  A    between atoms: N_4  and  C_5
REMARK    5  A    between atoms: C_8  and  N_9
REMARK    6  A    between atoms: C_13  and  C_14
REMARK    7  A    between atoms: N_16  and  C_17
REMARK    8  A    between atoms: C_21  and  C_22
REMARK                            x       y       z     vdW  Elec       q    Type
REMARK                         _______ _______ _______ _____ _____    ______ ____
ROOT
ATOM      1  C   UNL     1       3.519   4.229  17.660  0.00  0.00    +0.000 A 
ATOM      2  C   UNL     1       4.565   3.580  16.969  0.00  0.00    +0.000 A 
ATOM      3  C   UNL     1       5.718   4.256  16.552  0.00  0.00    +0.000 A 
ATOM      4  C   UNL     1       5.838   5.622  16.792  0.00  0.00    +0.000 A 
ATOM      5  C   UNL     1       4.812   6.307  17.441  0.00  0.00    +0.000 A 
ATOM      6  C   UNL     1       3.654   5.622  17.875  0.00  0.00    +0.000 A 
ENDROOT
BRANCH   6   7
ATOM      7  C   UNL     1       2.672   6.469  18.619  0.00  0.00    +0.000 C 
ATOM      8  O   UNL     1       2.160   5.964  19.615  0.00  0.00    +0.000 OA
ATOM      9  N   UNL     1       2.460   7.762  18.167  0.00  0.00    +0.000 N 
ATOM     10  H   UNL     1       3.046   8.071  17.396  0.00  0.00    +0.000 HD
BRANCH   9  11
ATOM     11  C   UNL     1       1.586   8.706  18.769  0.00  0.00    +0.000 A 
ATOM     12  C   UNL     1       0.910   9.688  18.038  0.00  0.00    +0.000 A 
ATOM     13  C   UNL     1       0.038  10.585  18.655  0.00  0.00    +0.000 A 
ATOM     14  C   UNL     1      -0.172  10.518  20.027  0.00  0.00    +0.000 A 
ATOM     15  C   UNL     1       0.501   9.558  20.795  0.00  0.00    +0.000 A 
ATOM     16  C   UNL     1       1.387   8.660  20.156  0.00  0.00    +0.000 A 
BRANCH  15  17
ATOM     17  C   UNL     1       0.265   9.483  22.284  0.00  0.00    +0.000 C 
ATOM     18  F   UNL     1       1.370   9.126  22.999  0.00  0.00    +0.000 F 
ATOM     19  F   UNL     1      -0.148  10.672  22.806  0.00  0.00    +0.000 F 
ATOM     20  F   UNL     1      -0.698   8.577  22.613  0.00  0.00    +0.000 F 
ENDBRANCH  15  17
ENDBRANCH   9  11
ENDBRANCH   6   7
BRANCH   4  21
ATOM     21  N   UNL     1       7.047   6.336  16.368  0.00  0.00    +0.000 N 
ATOM     22  O   UNL     1       7.690   5.861  15.421  0.00  0.00    +0.000 OA
ATOM     23  O   UNL     1       7.352   7.371  16.977  0.00  0.00    +0.000 OA
ENDBRANCH   4  21
BRANCH   1  24
ATOM     24  N   UNL     1       2.375   3.527  18.104  0.00  0.00    +0.000 N 
ATOM     25  H   UNL     1       1.761   4.184  18.593  0.00  0.00    +0.000 HD
BRANCH  24  26
ATOM     26  C   UNL     1       2.574   2.325  18.938  0.00  0.00    +0.000 C 
BRANCH  26  27
ATOM     27  C   UNL     1       3.465   2.630  20.155  0.00  0.00    +0.000 C 
BRANCH  27  28
ATOM     28  N   UNL     1       4.781   1.991  20.066  0.00  0.00    +0.000 NA
ATOM     29  H   UNL     1       5.385   2.562  19.474  0.00  0.00    +0.000 HD
ATOM     30  H   UNL     1       4.699   1.097  19.586  0.00  0.00    +0.000 HD
ENDBRANCH  27  28
ENDBRANCH  26  27
ENDBRANCH  24  26
ENDBRANCH   1  24
TORSDOF 8
ENDMDL
MODEL 7
REMARK VINA RESULT:      -7.7      1.978      2.544
REMARK  Name = 
REMARK  8 active torsions:
REMARK  status: ('A' for Active; 'I' for Inactive)
REMARK    1  A    between atoms: N_1  and  C_2
REMARK    2  A    between atoms: C_2  and  C_3
REMARK    3  A    between atoms: C_3  and  N_4
REMARK    4  A    between atoms: N_4  and  C_5
REMARK    5  A    between atoms: C_8  and  N_9
REMARK    6  A    between atoms: C_13  and  C_14
REMARK    7  A    between atoms: N_16  and  C_17
REMARK    8  A    between atoms: C_21  and  C_22
REMARK                            x       y       z     vdW  Elec       q    Type
REMARK                         _______ _______ _______ _____ _____    ______ ____
ROOT
ATOM      1  C   UNL     1       3.137   4.532  17.582  0.00  0.00    +0.000 A 
ATOM      2  C   UNL     1       4.146   3.890  16.834  0.00  0.00    +0.000 A 
ATOM      3  C   UNL     1       5.355   4.520  16.512  0.00  0.00    +0.000 A 
ATOM      4  C   UNL     1       5.569   5.837  16.910  0.00  0.00    +0.000 A 
ATOM      5  C   UNL     1       4.583   6.518  17.621  0.00  0.00    +0.000 A 
ATOM      6  C   UNL     1       3.369   5.877  17.959  0.00  0.00    +0.000 A 
ENDROOT
BRANCH   6   7
ATOM      7  C   UNL     1       2.436   6.704  18.784  0.00  0.00    +0.000 C 
ATOM      8  O   UNL     1       2.021   6.190  19.819  0.00  0.00    +0.000 OA
ATOM      9  N   UNL     1       2.161   7.993  18.352  0.00  0.00    +0.000 N 
ATOM     10  H   UNL     1       2.673   8.312  17.535  0.00  0.00    +0.000 HD
BRANCH   9  11
ATOM     11  C   UNL     1       1.322   8.918  19.027  0.00  0.00    +0.000 A 
ATOM     12  C   UNL     1       1.385   9.134  20.408  0.00  0.00    +0.000 A 
ATOM     13  C   UNL     1       0.565  10.069  21.038  0.00  0.00    +0.000 A 
ATOM     14  C   UNL     1      -0.344  10.810  20.293  0.00  0.00    +0.000 A 
ATOM     15  C   UNL     1      -0.449  10.610  18.910  0.00  0.00    +0.000 A 
ATOM     16  C   UNL     1       0.385   9.653  18.286  0.00  0.00    +0.000 A 
BRANCH  15  17
ATOM     17  C   UNL     1      -1.433  11.422  18.103  0.00  0.00    +0.000 C 
ATOM     18  F   UNL     1      -1.803  10.830  16.931  0.00  0.00    +0.000 F 
ATOM     19  F   UNL     1      -2.590  11.661  18.780  0.00  0.00    +0.000 F 
ATOM     20  F   UNL     1      -0.941  12.645  17.760  0.00  0.00    +0.000 F 
ENDBRANCH  15  17
ENDBRANCH   9  11
ENDBRANCH   6   7
BRANCH   4  21
ATOM     21  N   UNL     1       6.837   6.502  16.586  0.00  0.00    +0.000 N 
ATOM     22  O   UNL     1       7.055   7.603  17.110  0.00  0.00    +0.000 OA
ATOM     23  O   UNL     1       7.612   5.924  15.813  0.00  0.00    +0.000 OA
ENDBRANCH   4  21
BRANCH   1  24
ATOM     24  N   UNL     1       1.935   3.871  17.927  0.00  0.00    +0.000 N 
ATOM     25  H   UNL     1       1.402   4.477  18.556  0.00  0.00    +0.000 HD
BRANCH  24  26
ATOM     26  C   UNL     1       2.026   2.517  18.508  0.00  0.00    +0.000 C 
BRANCH  26  27
ATOM     27  C   UNL     1       1.636   2.519  19.996  0.00  0.00    +0.000 C 
BRANCH  27  28
ATOM     28  N   UNL     1       0.603   3.510  20.309  0.00  0.00    +0.000 NA
ATOM     29  H   UNL     1       1.056   4.390  20.559  0.00  0.00    +0.000 HD
ATOM     30  H   UNL     1       0.090   3.224  21.140  0.00  0.00    +0.000 HD
ENDBRANCH  27  28
ENDBRANCH  26  27
ENDBRANCH  24  26
ENDBRANCH   1  24
TORSDOF 8
ENDMDL
MODEL 8
REMARK VINA RESULT:      -7.6      1.826      2.381
REMARK  Name = 
REMARK  8 active torsions:
REMARK  status: ('A' for Active; 'I' for Inactive)
REMARK    1  A    between atoms: N_1  and  C_2
REMARK    2  A    between atoms: C_2  and  C_3
REMARK    3  A    between atoms: C_3  and  N_4
REMARK    4  A    between atoms: N_4  and  C_5
REMARK    5  A    between atoms: C_8  and  N_9
REMARK    6  A    between atoms: C_13  and  C_14
REMARK    7  A    between atoms: N_16  and  C_17
REMARK    8  A    between atoms: C_21  and  C_22
REMARK                            x       y       z     vdW  Elec       q    Type
REMARK                         _______ _______ _______ _____ _____    ______ ____
ROOT
ATOM      1  C   UNL     1       2.730   4.414  18.282  0.00  0.00    +0.000 A 
ATOM      2  C   UNL     1       3.775   3.742  17.612  0.00  0.00    +0.000 A 
ATOM      3  C   UNL     1       5.122   4.068  17.811  0.00  0.00    +0.000 A 
ATOM      4  C   UNL     1       5.457   5.108  18.673  0.00  0.00    +0.000 A 
ATOM      5  C   UNL     1       4.453   5.819  19.328  0.00  0.00    +0.000 A 
ATOM      6  C   UNL     1       3.093   5.481  19.138  0.00  0.00    +0.000 A 
ENDROOT
BRANCH   6   7
ATOM      7  C   UNL     1       2.133   6.281  19.959  0.00  0.00    +0.000 C 
ATOM      8  O   UNL     1       1.443   5.652  20.758  0.00  0.00    +0.000 OA
ATOM      9  N   UNL     1       2.135   7.658  19.799  0.00  0.00    +0.000 N 
ATOM     10  H   UNL     1       2.846   8.038  19.180  0.00  0.00    +0.000 HD
BRANCH   9  11
ATOM     11  C   UNL     1       1.311   8.565  20.515  0.00  0.00    +0.000 A 
ATOM     12  C   UNL     1       1.298   8.639  21.912  0.00  0.00    +0.000 A 
ATOM     13  C   UNL     1       0.495   9.558  22.586  0.00  0.00    +0.000 A 
ATOM     14  C   UNL     1      -0.319  10.427  21.870  0.00  0.00    +0.000 A 
ATOM     15  C   UNL     1      -0.347  10.371  20.470  0.00  0.00    +0.000 A 
ATOM     16  C   UNL     1       0.468   9.428  19.801  0.00  0.00    +0.000 A 
BRANCH  15  17
ATOM     17  C   UNL     1      -1.228  11.320  19.694  0.00  0.00    +0.000 C 
ATOM     18  F   UNL     1      -2.133  11.985  20.467  0.00  0.00    +0.000 F 
ATOM     19  F   UNL     1      -0.513  12.282  19.047  0.00  0.00    +0.000 F 
ATOM     20  F   UNL     1      -1.956  10.686  18.733  0.00  0.00    +0.000 F 
ENDBRANCH  15  17
ENDBRANCH   9  11
ENDBRANCH   6   7
BRANCH   4  21
ATOM     21  N   UNL     1       6.867   5.449  18.896  0.00  0.00    +0.000 N 
ATOM     22  O   UNL     1       7.549   5.740  17.903  0.00  0.00    +0.000 OA
ATOM     23  O   UNL     1       7.290   5.429  20.059  0.00  0.00    +0.000 OA
ENDBRANCH   4  21
BRANCH   1  24
ATOM     24  N   UNL     1       1.376   4.053  18.095  0.00  0.00    +0.000 N 
ATOM     25  H   UNL     1       0.787   4.797  18.478  0.00  0.00    +0.000 HD
BRANCH  24  26
ATOM     26  C   UNL     1       0.924   2.749  18.618  0.00  0.00    +0.000 C 
BRANCH  26  27
ATOM     27  C   UNL     1       1.659   2.381  19.919  0.00  0.00    +0.000 C 
BRANCH  27  28
ATOM     28  N   UNL     1       0.958   2.850  21.117  0.00  0.00    +0.000 NA
ATOM     29  H   UNL     1      -0.048   2.804  20.949  0.00  0.00    +0.000 HD
ATOM     30  H   UNL     1       1.161   3.836  21.271  0.00  0.00    +0.000 HD
ENDBRANCH  27  28
ENDBRANCH  26  27
ENDBRANCH  24  26
ENDBRANCH   1  24
TORSDOF 8
ENDMDL
MODEL 9
REMARK VINA RESULT:      -7.6      0.941      1.192
REMARK  Name = 
REMARK  8 active torsions:
REMARK  status: ('A' for Active; 'I' for Inactive)
REMARK    1  A    between atoms: N_1  and  C_2
REMARK    2  A    between atoms: C_2  and  C_3
REMARK    3  A    between atoms: C_3  and  N_4
REMARK    4  A    between atoms: N_4  and  C_5
REMARK    5  A    between atoms: C_8  and  N_9
REMARK    6  A    between atoms: C_13  and  C_14
REMARK    7  A    between atoms: N_16  and  C_17
REMARK    8  A    between atoms: C_21  and  C_22
REMARK                            x       y       z     vdW  Elec       q    Type
REMARK                         _______ _______ _______ _____ _____    ______ ____
ROOT
ATOM      1  C   UNL     1       4.007   4.228  18.995  0.00  0.00    +0.000 A 
ATOM      2  C   UNL     1       5.184   3.638  18.487  0.00  0.00    +0.000 A 
ATOM      3  C   UNL     1       6.130   4.366  17.755  0.00  0.00    +0.000 A 
ATOM      4  C   UNL     1       5.900   5.712  17.483  0.00  0.00    +0.000 A 
ATOM      5  C   UNL     1       4.733   6.323  17.937  0.00  0.00    +0.000 A 
ATOM      6  C   UNL     1       3.784   5.592  18.689  0.00  0.00    +0.000 A 
ENDROOT
BRANCH   6   7
ATOM      7  C   UNL     1       2.619   6.395  19.170  0.00  0.00    +0.000 C 
ATOM      8  O   UNL     1       1.796   5.802  19.863  0.00  0.00    +0.000 OA
ATOM      9  N   UNL     1       2.586   7.743  18.849  0.00  0.00    +0.000 N 
ATOM     10  H   UNL     1       3.400   8.111  18.364  0.00  0.00    +0.000 HD
BRANCH   9  11
ATOM     11  C   UNL     1       1.570   8.653  19.246  0.00  0.00    +0.000 A 
ATOM     12  C   UNL     1       0.944   9.529  18.353  0.00  0.00    +0.000 A 
ATOM     13  C   UNL     1      -0.068  10.394  18.768  0.00  0.00    +0.000 A 
ATOM     14  C   UNL     1      -0.474  10.401  20.097  0.00  0.00    +0.000 A 
ATOM     15  C   UNL     1       0.142   9.550  21.025  0.00  0.00    +0.000 A 
ATOM     16  C   UNL     1       1.171   8.684  20.590  0.00  0.00    +0.000 A 
BRANCH  15  17
ATOM     17  C   UNL     1      -0.307   9.555  22.467  0.00  0.00    +0.000 C 
ATOM     18  F   UNL     1       0.716   9.435  23.361  0.00  0.00    +0.000 F 
ATOM     19  F   UNL     1      -0.962  10.700  22.804  0.00  0.00    +0.000 F 
ATOM     20  F   UNL     1      -1.166   8.536  22.748  0.00  0.00    +0.000 F 
ENDBRANCH  15  17
ENDBRANCH   9  11
ENDBRANCH   6   7
BRANCH   4  21
ATOM     21  N   UNL     1       6.891   6.485  16.726  0.00  0.00    +0.000 N 
ATOM     22  O   UNL     1       7.458   5.919  15.781  0.00  0.00    +0.000 OA
ATOM     23  O   UNL     1       7.099   7.656  17.072  0.00  0.00    +0.000 OA
ENDBRANCH   4  21
BRANCH   1  24
ATOM     24  N   UNL     1       3.077   3.488  19.760  0.00  0.00    +0.000 N 
ATOM     25  H   UNL     1       3.524   3.215  20.639  0.00  0.00    +0.000 HD
BRANCH  24  26
ATOM     26  C   UNL     1       2.449   2.304  19.140  0.00  0.00    +0.000 C 
BRANCH  26  27
ATOM     27  C   UNL     1       0.932   2.497  18.972  0.00  0.00    +0.000 C 
BRANCH  27  28
ATOM     28  N   UNL     1       0.334   3.257  20.073  0.00  0.00    +0.000 NA
ATOM     29  H   UNL     1       1.046   3.866  20.478  0.00  0.00    +0.000 HD
ATOM     30  H   UNL     1       0.062   2.624  20.822  0.00  0.00    +0.000 HD
ENDBRANCH  27  28
ENDBRANCH  26  27
ENDBRANCH  24  26
ENDBRANCH   1  24
TORSDOF 8
ENDMDL
