MODEL 1
REMARK VINA RESULT:      -8.2      0.000      0.000
REMARK  Name = 
REMARK  3 active torsions:
REMARK  status: ('A' for Active; 'I' for Inactive)
REMARK    1  A    between atoms: C_1  and  N_2
REMARK    2  A    between atoms: N_5  and  N_6
REMARK    3  A    between atoms: C_14  and  C_15
REMARK                            x       y       z     vdW  Elec       q    Type
REMARK                         _______ _______ _______ _____ _____    ______ ____
ROOT
ATOM      1  N   UNL     1      -0.615  11.666  21.733  0.00  0.00    +0.000 N 
ATOM      2  C   UNL     1      -0.265  12.100  20.474  0.00  0.00    +0.000 A 
ATOM      3  C   UNL     1       0.378  11.293  19.624  0.00  0.00    +0.000 A 
ATOM      4  C   UNL     1       0.748   9.950  20.027  0.00  0.00    +0.000 A 
ATOM      5  C   UNL     1       0.414   9.507  21.254  0.00  0.00    +0.000 A 
ATOM      6  C   UNL     1       0.845   8.130  21.591  0.00  0.00    +0.000 A 
ATOM      7  N   UNL     1       1.510   7.328  20.812  0.00  0.00    +0.000 NA
ATOM      8  C   UNL     1       1.845   7.818  19.576  0.00  0.00    +0.000 A 
ATOM      9  C   UNL     1       2.565   7.277  18.523  0.00  0.00    +0.000 A 
ATOM     10  C   UNL     1       2.550   8.282  17.535  0.00  0.00    +0.000 A 
ATOM     11  N   UNL     1       1.891   9.377  17.905  0.00  0.00    +0.000 NA
ATOM     12  N   UNL     1       1.463   9.104  19.168  0.00  0.00    +0.000 N 
ATOM     13  C   UNL     1      -0.322  10.374  22.215  0.00  0.00    +0.000 A 
ATOM     14  O   UNL     1      -0.596   9.942  23.330  0.00  0.00    +0.000 OA
ENDROOT
BRANCH   1  19
ATOM     15  C   UNL     1      -2.980  15.234  25.350  0.00  0.00    +0.000 C 
ATOM     16  N   UNL     1      -2.605  14.660  24.059  0.00  0.00    +0.000 NA
ATOM     17  C   UNL     1      -3.182  13.304  23.917  0.00  0.00    +0.000 C 
ATOM     18  C   UNL     1      -2.700  12.579  22.640  0.00  0.00    +0.000 C 
ATOM     19  N   UNL     1      -1.235  12.544  22.630  0.00  0.00    +0.000 N 
ATOM     20  C   UNL     1      -0.677  13.899  22.648  0.00  0.00    +0.000 C 
ATOM     21  C   UNL     1      -1.131  14.602  23.940  0.00  0.00    +0.000 C 
ENDBRANCH   1  19
BRANCH   9  22
ATOM     22  C   UNL     1       3.194   5.965  18.513  0.00  0.00    +0.000 A 
ATOM     23  C   UNL     1       4.402   5.752  19.193  0.00  0.00    +0.000 A 
ATOM     24  C   UNL     1       4.989   4.483  19.212  0.00  0.00    +0.000 A 
ATOM     25  C   UNL     1       4.378   3.418  18.552  0.00  0.00    +0.000 A 
ATOM     26  C   UNL     1       3.184   3.619  17.868  0.00  0.00    +0.000 A 
ATOM     27  C   UNL     1       2.594   4.883  17.855  0.00  0.00    +0.000 A 
ENDBRANCH   9  22
TORSDOF 2
ENDMDL
MODEL 2
REMARK VINA RESULT:      -7.7      2.529      9.318
REMARK  Name = 
REMARK  3 active torsions:
REMARK  status: ('A' for Active; 'I' for Inactive)
REMARK    1  A    between atoms: C_1  and  N_2
REMARK    2  A    between atoms: N_5  and  N_6
REMARK    3  A    between atoms: C_14  and  C_15
REMARK                            x       y       z     vdW  Elec       q    Type
REMARK                         _______ _______ _______ _____ _____    ______ ____
ROOT
ATOM      1  N   UNL     1       2.619   7.067  18.664  0.00  0.00    +0.000 N 
ATOM      2  C   UNL     1       2.374   6.556  19.919  0.00  0.00    +0.000 A 
ATOM      3  C   UNL     1       1.655   7.244  20.812  0.00  0.00    +0.000 A 
ATOM      4  C   UNL     1       1.143   8.561  20.483  0.00  0.00    +0.000 A 
ATOM      5  C   UNL     1       1.372   9.077  19.261  0.00  0.00    +0.000 A 
ATOM      6  C   UNL     1       0.829  10.433  19.013  0.00  0.00    +0.000 A 
ATOM      7  N   UNL     1       0.164  11.156  19.867  0.00  0.00    +0.000 NA
ATOM      8  C   UNL     1      -0.037  10.603  21.106  0.00  0.00    +0.000 A 
ATOM      9  C   UNL     1      -0.652  11.082  22.250  0.00  0.00    +0.000 A 
ATOM     10  C   UNL     1      -0.530  10.031  23.181  0.00  0.00    +0.000 A 
ATOM     11  N   UNL     1       0.109   8.968  22.696  0.00  0.00    +0.000 NA
ATOM     12  N   UNL     1       0.427   9.318  21.420  0.00  0.00    +0.000 N 
ATOM     13  C   UNL     1       2.150   8.326  18.237  0.00  0.00    +0.000 A 
ATOM     14  O   UNL     1       2.351   8.835  17.138  0.00  0.00    +0.000 OA
ENDROOT
BRANCH   1  19
ATOM     15  C   UNL     1       5.881   4.345  15.009  0.00  0.00    +0.000 C 
ATOM     16  N   UNL     1       5.433   4.874  16.297  0.00  0.00    +0.000 NA
ATOM     17  C   UNL     1       4.128   4.280  16.666  0.00  0.00    +0.000 C 
ATOM     18  C   UNL     1       3.523   4.908  17.941  0.00  0.00    +0.000 C 
ATOM     19  N   UNL     1       3.423   6.359  17.764  0.00  0.00    +0.000 N 
ATOM     20  C   UNL     1       4.740   6.952  17.519  0.00  0.00    +0.000 C 
ATOM     21  C   UNL     1       5.320   6.349  16.227  0.00  0.00    +0.000 C 
ENDBRANCH   1  19
BRANCH   9  22
ATOM     22  C   UNL     1      -1.250  12.400  22.402  0.00  0.00    +0.000 A 
ATOM     23  C   UNL     1      -2.637  12.537  22.554  0.00  0.00    +0.000 A 
ATOM     24  C   UNL     1      -3.207  13.801  22.734  0.00  0.00    +0.000 A 
ATOM     25  C   UNL     1      -2.401  14.938  22.761  0.00  0.00    +0.000 A 
ATOM     26  C   UNL     1      -1.025  14.815  22.603  0.00  0.00    +0.000 A 
ATOM     27  C   UNL     1      -0.454  13.553  22.430  0.00  0.00    +0.000 A 
ENDBRANCH   9  22
TORSDOF 2
ENDMDL
MODEL 3
REMARK VINA RESULT:      -7.7      1.911      2.731
REMARK  Name = 
REMARK  3 active torsions:
REMARK  status: ('A' for Active; 'I' for Inactive)
REMARK    1  A    between atoms: C_1  and  N_2
REMARK    2  A    between atoms: N_5  and  N_6
REMARK    3  A    between atoms: C_14  and  C_15
REMARK                            x       y       z     vdW  Elec       q    Type
REMARK                         _______ _______ _______ _____ _____    ______ ____
ROOT
ATOM      1  N   UNL     1      -0.371  11.204  20.965  0.00  0.00    +0.000 N 
ATOM      2  C   UNL     1      -0.386  10.122  21.818  0.00  0.00    +0.000 A 
ATOM      3  C   UNL     1       0.307   9.016  21.534  0.00  0.00    +0.000 A 
ATOM      4  C   UNL     1       1.067   8.923  20.302  0.00  0.00    +0.000 A 
ATOM      5  C   UNL     1       1.094   9.970  19.456  0.00  0.00    +0.000 A 
ATOM      6  C   UNL     1       1.879   9.785  18.213  0.00  0.00    +0.000 A 
ATOM      7  N   UNL     1       2.531   8.711  17.876  0.00  0.00    +0.000 NA
ATOM      8  C   UNL     1       2.468   7.660  18.755  0.00  0.00    +0.000 A 
ATOM      9  C   UNL     1       2.992   6.378  18.712  0.00  0.00    +0.000 A 
ATOM     10  C   UNL     1       2.575   5.788  19.922  0.00  0.00    +0.000 A 
ATOM     11  N   UNL     1       1.843   6.601  20.681  0.00  0.00    +0.000 NA
ATOM     12  N   UNL     1       1.763   7.754  19.963  0.00  0.00    +0.000 N 
ATOM     13  C   UNL     1       0.351  11.225  19.754  0.00  0.00    +0.000 A 
ATOM     14  O   UNL     1       0.387  12.154  18.954  0.00  0.00    +0.000 OA
ENDROOT
BRANCH   1  19
ATOM     15  C   UNL     1      -3.540  15.712  21.986  0.00  0.00    +0.000 C 
ATOM     16  N   UNL     1      -3.097  14.321  22.056  0.00  0.00    +0.000 NA
ATOM     17  C   UNL     1      -1.750  14.244  22.666  0.00  0.00    +0.000 C 
ATOM     18  C   UNL     1      -1.157  12.819  22.632  0.00  0.00    +0.000 C 
ATOM     19  N   UNL     1      -1.149  12.332  21.251  0.00  0.00    +0.000 N 
ATOM     20  C   UNL     1      -2.506  12.297  20.698  0.00  0.00    +0.000 C 
ATOM     21  C   UNL     1      -3.077  13.727  20.700  0.00  0.00    +0.000 C 
ENDBRANCH   1  19
BRANCH   9  22
ATOM     22  C   UNL     1       3.771   5.817  17.619  0.00  0.00    +0.000 A 
ATOM     23  C   UNL     1       4.557   6.648  16.807  0.00  0.00    +0.000 A 
ATOM     24  C   UNL     1       5.332   6.104  15.778  0.00  0.00    +0.000 A 
ATOM     25  C   UNL     1       5.327   4.730  15.548  0.00  0.00    +0.000 A 
ATOM     26  C   UNL     1       4.545   3.897  16.341  0.00  0.00    +0.000 A 
ATOM     27  C   UNL     1       3.778   4.438  17.373  0.00  0.00    +0.000 A 
ENDBRANCH   9  22
TORSDOF 2
ENDMDL
MODEL 4
REMARK VINA RESULT:      -7.6      1.980      2.943
REMARK  Name = 
REMARK  3 active torsions:
REMARK  status: ('A' for Active; 'I' for Inactive)
REMARK    1  A    between atoms: C_1  and  N_2
REMARK    2  A    between atoms: N_5  and  N_6
REMARK    3  A    between atoms: C_14  and  C_15
REMARK                            x       y       z     vdW  Elec       q    Type
REMARK                         _______ _______ _______ _____ _____    ______ ____
ROOT
ATOM      1  N   UNL     1      -0.208  10.678  20.946  0.00  0.00    +0.000 N 
ATOM      2  C   UNL     1      -0.144   9.585  21.783  0.00  0.00    +0.000 A 
ATOM      3  C   UNL     1       0.591   8.517  21.461  0.00  0.00    +0.000 A 
ATOM      4  C   UNL     1       1.314   8.475  20.205  0.00  0.00    +0.000 A 
ATOM      5  C   UNL     1       1.265   9.533  19.373  0.00  0.00    +0.000 A 
ATOM      6  C   UNL     1       2.017   9.402  18.104  0.00  0.00    +0.000 A 
ATOM      7  N   UNL     1       2.708   8.364  17.731  0.00  0.00    +0.000 NA
ATOM      8  C   UNL     1       2.723   7.300  18.597  0.00  0.00    +0.000 A 
ATOM      9  C   UNL     1       3.305   6.046  18.520  0.00  0.00    +0.000 A 
ATOM     10  C   UNL     1       2.955   5.421  19.734  0.00  0.00    +0.000 A 
ATOM     11  N   UNL     1       2.210   6.189  20.527  0.00  0.00    +0.000 NA
ATOM     12  N   UNL     1       2.053   7.346  19.828  0.00  0.00    +0.000 N 
ATOM     13  C   UNL     1       0.473  10.748  19.713  0.00  0.00    +0.000 A 
ATOM     14  O   UNL     1       0.440  11.687  18.925  0.00  0.00    +0.000 OA
ENDROOT
BRANCH   1  19
ATOM     15  C   UNL     1      -3.527  15.038  22.122  0.00  0.00    +0.000 C 
ATOM     16  N   UNL     1      -3.094  13.643  22.045  0.00  0.00    +0.000 NA
ATOM     17  C   UNL     1      -1.867  13.445  22.850  0.00  0.00    +0.000 C 
ATOM     18  C   UNL     1      -1.269  12.029  22.692  0.00  0.00    +0.000 C 
ATOM     19  N   UNL     1      -1.029  11.763  21.272  0.00  0.00    +0.000 N 
ATOM     20  C   UNL     1      -2.274  11.842  20.504  0.00  0.00    +0.000 C 
ATOM     21  C   UNL     1      -2.845  13.266  20.635  0.00  0.00    +0.000 C 
ENDBRANCH   1  19
BRANCH   9  22
ATOM     22  C   UNL     1       4.074   5.536  17.394  0.00  0.00    +0.000 A 
ATOM     23  C   UNL     1       4.091   4.163  17.109  0.00  0.00    +0.000 A 
ATOM     24  C   UNL     1       4.802   3.679  16.007  0.00  0.00    +0.000 A 
ATOM     25  C   UNL     1       5.503   4.557  15.183  0.00  0.00    +0.000 A 
ATOM     26  C   UNL     1       5.500   5.920  15.461  0.00  0.00    +0.000 A 
ATOM     27  C   UNL     1       4.785   6.405  16.556  0.00  0.00    +0.000 A 
ENDBRANCH   9  22
TORSDOF 2
ENDMDL
MODEL 5
REMARK VINA RESULT:      -7.5      2.101      2.990
REMARK  Name = 
REMARK  3 active torsions:
REMARK  status: ('A' for Active; 'I' for Inactive)
REMARK    1  A    between atoms: C_1  and  N_2
REMARK    2  A    between atoms: N_5  and  N_6
REMARK    3  A    between atoms: C_14  and  C_15
REMARK                            x       y       z     vdW  Elec       q    Type
REMARK                         _______ _______ _______ _____ _____    ______ ____
ROOT
ATOM      1  N   UNL     1      -0.537  11.668  20.437  0.00  0.00    +0.000 N 
ATOM      2  C   UNL     1      -0.573  10.676  21.392  0.00  0.00    +0.000 A 
ATOM      3  C   UNL     1       0.127   9.549  21.238  0.00  0.00    +0.000 A 
ATOM      4  C   UNL     1       0.918   9.335  20.041  0.00  0.00    +0.000 A 
ATOM      5  C   UNL     1       0.966  10.292  19.095  0.00  0.00    +0.000 A 
ATOM      6  C   UNL     1       1.782   9.987  17.897  0.00  0.00    +0.000 A 
ATOM      7  N   UNL     1       2.442   8.886  17.686  0.00  0.00    +0.000 NA
ATOM      8  C   UNL     1       2.358   7.928  18.664  0.00  0.00    +0.000 A 
ATOM      9  C   UNL     1       2.883   6.650  18.763  0.00  0.00    +0.000 A 
ATOM     10  C   UNL     1       2.435   6.182  20.015  0.00  0.00    +0.000 A 
ATOM     11  N   UNL     1       1.684   7.065  20.670  0.00  0.00    +0.000 NA
ATOM     12  N   UNL     1       1.622   8.140  19.838  0.00  0.00    +0.000 N 
ATOM     13  C   UNL     1       0.214  11.569  19.248  0.00  0.00    +0.000 A 
ATOM     14  O   UNL     1       0.271  12.413  18.360  0.00  0.00    +0.000 OA
ENDROOT
BRANCH   1  19
ATOM     15  C   UNL     1      -3.789  16.198  20.996  0.00  0.00    +0.000 C 
ATOM     16  N   UNL     1      -3.010  15.028  21.399  0.00  0.00    +0.000 NA
ATOM     17  C   UNL     1      -1.586  15.214  21.039  0.00  0.00    +0.000 C 
ATOM     18  C   UNL     1      -0.733  13.952  21.299  0.00  0.00    +0.000 C 
ATOM     19  N   UNL     1      -1.323  12.816  20.588  0.00  0.00    +0.000 N 
ATOM     20  C   UNL     1      -2.694  12.566  21.042  0.00  0.00    +0.000 C 
ATOM     21  C   UNL     1      -3.547  13.813  20.746  0.00  0.00    +0.000 C 
ENDBRANCH   1  19
BRANCH   9  22
ATOM     22  C   UNL     1       3.689   5.984  17.750  0.00  0.00    +0.000 A 
ATOM     23  C   UNL     1       3.567   4.603  17.540  0.00  0.00    +0.000 A 
ATOM     24  C   UNL     1       4.317   3.971  16.544  0.00  0.00    +0.000 A 
ATOM     25  C   UNL     1       5.196   4.708  15.752  0.00  0.00    +0.000 A 
ATOM     26  C   UNL     1       5.332   6.077  15.957  0.00  0.00    +0.000 A 
ATOM     27  C   UNL     1       4.578   6.710  16.946  0.00  0.00    +0.000 A 
ENDBRANCH   9  22
TORSDOF 2
ENDMDL
MODEL 6
REMARK VINA RESULT:      -7.5      1.888      2.877
REMARK  Name = 
REMARK  3 active torsions:
REMARK  status: ('A' for Active; 'I' for Inactive)
REMARK    1  A    between atoms: C_1  and  N_2
REMARK    2  A    between atoms: N_5  and  N_6
REMARK    3  A    between atoms: C_14  and  C_15
REMARK                            x       y       z     vdW  Elec       q    Type
REMARK                         _______ _______ _______ _____ _____    ______ ____
ROOT
ATOM      1  N   UNL     1      -0.151  10.409  21.204  0.00  0.00    +0.000 N 
ATOM      2  C   UNL     1       0.038   9.319  22.026  0.00  0.00    +0.000 A 
ATOM      3  C   UNL     1       0.805   8.295  21.641  0.00  0.00    +0.000 A 
ATOM      4  C   UNL     1       1.429   8.298  20.332  0.00  0.00    +0.000 A 
ATOM      5  C   UNL     1       1.256   9.353  19.515  0.00  0.00    +0.000 A 
ATOM      6  C   UNL     1       1.914   9.268  18.190  0.00  0.00    +0.000 A 
ATOM      7  N   UNL     1       2.631   8.272  17.758  0.00  0.00    +0.000 NA
ATOM      8  C   UNL     1       2.773   7.208  18.612  0.00  0.00    +0.000 A 
ATOM      9  C   UNL     1       3.416   5.988  18.482  0.00  0.00    +0.000 A 
ATOM     10  C   UNL     1       3.197   5.342  19.715  0.00  0.00    +0.000 A 
ATOM     11  N   UNL     1       2.475   6.064  20.568  0.00  0.00    +0.000 NA
ATOM     12  N   UNL     1       2.198   7.212  19.891  0.00  0.00    +0.000 N 
ATOM     13  C   UNL     1       0.426  10.520  19.923  0.00  0.00    +0.000 A 
ATOM     14  O   UNL     1       0.280  11.458  19.147  0.00  0.00    +0.000 OA
ENDROOT
BRANCH   1  19
ATOM     15  C   UNL     1      -3.647  14.470  22.846  0.00  0.00    +0.000 C 
ATOM     16  N   UNL     1      -2.446  13.635  22.834  0.00  0.00    +0.000 NA
ATOM     17  C   UNL     1      -1.732  13.788  21.545  0.00  0.00    +0.000 C 
ATOM     18  C   UNL     1      -0.537  12.820  21.404  0.00  0.00    +0.000 C 
ATOM     19  N   UNL     1      -1.004  11.445  21.600  0.00  0.00    +0.000 N 
ATOM     20  C   UNL     1      -1.600  11.276  22.928  0.00  0.00    +0.000 C 
ATOM     21  C   UNL     1      -2.813  12.217  23.048  0.00  0.00    +0.000 C 
ENDBRANCH   1  19
BRANCH   9  22
ATOM     22  C   UNL     1       4.123   5.526  17.296  0.00  0.00    +0.000 A 
ATOM     23  C   UNL     1       4.779   6.440  16.459  0.00  0.00    +0.000 A 
ATOM     24  C   UNL     1       5.487   5.991  15.340  0.00  0.00    +0.000 A 
ATOM     25  C   UNL     1       5.543   4.631  15.044  0.00  0.00    +0.000 A 
ATOM     26  C   UNL     1       4.889   3.716  15.862  0.00  0.00    +0.000 A 
ATOM     27  C   UNL     1       4.189   4.161  16.984  0.00  0.00    +0.000 A 
ENDBRANCH   9  22
TORSDOF 2
ENDMDL
MODEL 7
REMARK VINA RESULT:      -7.4      2.082      2.854
REMARK  Name = 
REMARK  3 active torsions:
REMARK  status: ('A' for Active; 'I' for Inactive)
REMARK    1  A    between atoms: C_1  and  N_2
REMARK    2  A    between atoms: N_5  and  N_6
REMARK    3  A    between atoms: C_14  and  C_15
REMARK                            x       y       z     vdW  Elec       q    Type
REMARK                         _______ _______ _______ _____ _____    ______ ____
ROOT
ATOM      1  N   UNL     1      -0.473  10.920  20.648  0.00  0.00    +0.000 N 
ATOM      2  C   UNL     1      -0.353   9.887  21.552  0.00  0.00    +0.000 A 
ATOM      3  C   UNL     1       0.427   8.834  21.291  0.00  0.00    +0.000 A 
ATOM      4  C   UNL     1       1.141   8.745  20.031  0.00  0.00    +0.000 A 
ATOM      5  C   UNL     1       1.037   9.744  19.135  0.00  0.00    +0.000 A 
ATOM      6  C   UNL     1       1.784   9.566  17.868  0.00  0.00    +0.000 A 
ATOM      7  N   UNL     1       2.518   8.538  17.555  0.00  0.00    +0.000 NA
ATOM      8  C   UNL     1       2.588   7.534  18.486  0.00  0.00    +0.000 A 
ATOM      9  C   UNL     1       3.226   6.304  18.483  0.00  0.00    +0.000 A 
ATOM     10  C   UNL     1       2.915   5.744  19.738  0.00  0.00    +0.000 A 
ATOM     11  N   UNL     1       2.143   6.526  20.489  0.00  0.00    +0.000 NA
ATOM     12  N   UNL     1       1.927   7.628  19.719  0.00  0.00    +0.000 N 
ATOM     13  C   UNL     1       0.193  10.941  19.406  0.00  0.00    +0.000 A 
ATOM     14  O   UNL     1       0.111  11.826  18.560  0.00  0.00    +0.000 OA
ENDROOT
BRANCH   1  19
ATOM     15  C   UNL     1      -3.866  15.227  21.809  0.00  0.00    +0.000 C 
ATOM     16  N   UNL     1      -2.863  14.446  21.088  0.00  0.00    +0.000 NA
ATOM     17  C   UNL     1      -3.458  13.184  20.592  0.00  0.00    +0.000 C 
ATOM     18  C   UNL     1      -2.416  12.240  19.951  0.00  0.00    +0.000 C 
ATOM     19  N   UNL     1      -1.340  11.986  20.913  0.00  0.00    +0.000 N 
ATOM     20  C   UNL     1      -0.678  13.233  21.304  0.00  0.00    +0.000 C 
ATOM     21  C   UNL     1      -1.715  14.153  21.975  0.00  0.00    +0.000 C 
ENDBRANCH   1  19
BRANCH   9  22
ATOM     22  C   UNL     1       4.008   5.759  17.383  0.00  0.00    +0.000 A 
ATOM     23  C   UNL     1       4.759   6.607  16.557  0.00  0.00    +0.000 A 
ATOM     24  C   UNL     1       5.537   6.078  15.522  0.00  0.00    +0.000 A 
ATOM     25  C   UNL     1       5.571   4.703  15.301  0.00  0.00    +0.000 A 
ATOM     26  C   UNL     1       4.824   3.852  16.110  0.00  0.00    +0.000 A 
ATOM     27  C   UNL     1       4.053   4.378  17.147  0.00  0.00    +0.000 A 
ENDBRANCH   9  22
TORSDOF 2
ENDMDL
MODEL 8
REMARK VINA RESULT:      -7.4      1.953      9.072
REMARK  Name = 
REMARK  3 active torsions:
REMARK  status: ('A' for Active; 'I' for Inactive)
REMARK    1  A    between atoms: C_1  and  N_2
REMARK    2  A    between atoms: N_5  and  N_6
REMARK    3  A    between atoms: C_14  and  C_15
REMARK                            x       y       z     vdW  Elec       q    Type
REMARK                         _______ _______ _______ _____ _____    ______ ____
ROOT
ATOM      1  N   UNL     1       2.267   6.814  19.063  0.00  0.00    +0.000 N 
ATOM      2  C   UNL     1       2.342   7.792  18.096  0.00  0.00    +0.000 A 
ATOM      3  C   UNL     1       1.889   9.027  18.332  0.00  0.00    +0.000 A 
ATOM      4  C   UNL     1       1.279   9.353  19.607  0.00  0.00    +0.000 A 
ATOM      5  C   UNL     1       1.196   8.411  20.565  0.00  0.00    +0.000 A 
ATOM      6  C   UNL     1       0.544   8.822  21.831  0.00  0.00    +0.000 A 
ATOM      7  N   UNL     1       0.049   9.998  22.086  0.00  0.00    +0.000 NA
ATOM      8  C   UNL     1       0.138  10.927  21.081  0.00  0.00    +0.000 A 
ATOM      9  C   UNL     1      -0.302  12.237  20.982  0.00  0.00    +0.000 A 
ATOM     10  C   UNL     1       0.102  12.647  19.696  0.00  0.00    +0.000 A 
ATOM     11  N   UNL     1       0.739  11.697  19.015  0.00  0.00    +0.000 NA
ATOM     12  N   UNL     1       0.755  10.628  19.858  0.00  0.00    +0.000 N 
ATOM     13  C   UNL     1       1.712   7.032  20.341  0.00  0.00    +0.000 A 
ATOM     14  O   UNL     1       1.607   6.196  21.233  0.00  0.00    +0.000 OA
ENDROOT
BRANCH   1  19
ATOM     15  C   UNL     1       3.846   1.558  17.930  0.00  0.00    +0.000 C 
ATOM     16  N   UNL     1       3.536   2.965  17.683  0.00  0.00    +0.000 NA
ATOM     17  C   UNL     1       4.453   3.834  18.456  0.00  0.00    +0.000 C 
ATOM     18  C   UNL     1       4.084   5.331  18.360  0.00  0.00    +0.000 C 
ATOM     19  N   UNL     1       2.693   5.512  18.778  0.00  0.00    +0.000 N 
ATOM     20  C   UNL     1       1.782   4.741  17.927  0.00  0.00    +0.000 C 
ATOM     21  C   UNL     1       2.132   3.248  18.057  0.00  0.00    +0.000 C 
ENDBRANCH   1  19
BRANCH   9  22
ATOM     22  C   UNL     1      -1.037  12.963  22.007  0.00  0.00    +0.000 A 
ATOM     23  C   UNL     1      -2.320  12.546  22.390  0.00  0.00    +0.000 A 
ATOM     24  C   UNL     1      -3.012  13.223  23.399  0.00  0.00    +0.000 A 
ATOM     25  C   UNL     1      -2.433  14.322  24.031  0.00  0.00    +0.000 A 
ATOM     26  C   UNL     1      -1.164  14.749  23.654  0.00  0.00    +0.000 A 
ATOM     27  C   UNL     1      -0.470  14.070  22.653  0.00  0.00    +0.000 A 
ENDBRANCH   9  22
TORSDOF 2
ENDMDL
MODEL 9
REMARK VINA RESULT:      -7.4      2.161      3.518
REMARK  Name = 
REMARK  3 active torsions:
REMARK  status: ('A' for Active; 'I' for Inactive)
REMARK    1  A    between atoms: C_1  and  N_2
REMARK    2  A    between atoms: N_5  and  N_6
REMARK    3  A    between atoms: C_14  and  C_15
REMARK                            x       y       z     vdW  Elec       q    Type
REMARK                         _______ _______ _______ _____ _____    ______ ____
ROOT
ATOM      1  N   UNL     1       0.147  10.023  20.426  0.00  0.00    +0.000 N 
ATOM      2  C   UNL     1       0.143   8.944  21.283  0.00  0.00    +0.000 A 
ATOM      3  C   UNL     1       0.935   7.890  21.063  0.00  0.00    +0.000 A 
ATOM      4  C   UNL     1       1.796   7.851  19.897  0.00  0.00    +0.000 A 
ATOM      5  C   UNL     1       1.814   8.896  19.048  0.00  0.00    +0.000 A 
ATOM      6  C   UNL     1       2.708   8.767  17.873  0.00  0.00    +0.000 A 
ATOM      7  N   UNL     1       3.461   7.743  17.597  0.00  0.00    +0.000 NA
ATOM      8  C   UNL     1       3.405   6.692  18.476  0.00  0.00    +0.000 A 
ATOM      9  C   UNL     1       4.022   5.452  18.485  0.00  0.00    +0.000 A 
ATOM     10  C   UNL     1       3.554   4.835  19.663  0.00  0.00    +0.000 A 
ATOM     11  N   UNL     1       2.706   5.593  20.355  0.00  0.00    +0.000 NA
ATOM     12  N   UNL     1       2.600   6.736  19.623  0.00  0.00    +0.000 N 
ATOM     13  C   UNL     1       0.960  10.094  19.277  0.00  0.00    +0.000 A 
ATOM     14  O   UNL     1       0.993  11.021  18.474  0.00  0.00    +0.000 OA
ENDROOT
BRANCH   1  19
ATOM     15  C   UNL     1      -3.388  14.311  21.151  0.00  0.00    +0.000 C 
ATOM     16  N   UNL     1      -2.918  12.926  21.138  0.00  0.00    +0.000 NA
ATOM     17  C   UNL     1      -1.797  12.758  22.091  0.00  0.00    +0.000 C 
ATOM     18  C   UNL     1      -1.153  11.356  22.018  0.00  0.00    +0.000 C 
ATOM     19  N   UNL     1      -0.732  11.090  20.640  0.00  0.00    +0.000 N 
ATOM     20  C   UNL     1      -1.873  11.140  19.722  0.00  0.00    +0.000 C 
ATOM     21  C   UNL     1      -2.486  12.551  19.773  0.00  0.00    +0.000 C 
ENDBRANCH   1  19
BRANCH   9  22
ATOM     22  C   UNL     1       4.925   4.947  17.461  0.00  0.00    +0.000 A 
ATOM     23  C   UNL     1       4.420   4.453  16.250  0.00  0.00    +0.000 A 
ATOM     24  C   UNL     1       5.289   4.001  15.253  0.00  0.00    +0.000 A 
ATOM     25  C   UNL     1       6.668   4.034  15.456  0.00  0.00    +0.000 A 
ATOM     26  C   UNL     1       7.180   4.515  16.657  0.00  0.00    +0.000 A 
ATOM     27  C   UNL     1       6.314   4.973  17.649  0.00  0.00    +0.000 A 
ENDBRANCH   9  22
TORSDOF 2
ENDMDL
