MODEL 1
REMARK VINA RESULT:      -8.0      0.000      0.000
REMARK  Name = 
REMARK  4 active torsions:
REMARK  status: ('A' for Active; 'I' for Inactive)
REMARK    1  A    between atoms: C_2  and  C_10
REMARK    2  A    between atoms: N_3  and  C_4
REMARK    3  A    between atoms: C_12  and  C_13
REMARK    4  A    between atoms: C_21  and  C_22
REMARK                            x       y       z     vdW  Elec       q    Type
REMARK                         _______ _______ _______ _____ _____    ______ ____
ROOT
ATOM      1  C   UNL     1      -2.024  11.534  18.424  0.00  0.00    +0.000 A 
ATOM      2  N   UNL     1      -1.257  12.574  18.693  0.00  0.00    +0.000 NA
ATOM      3  C   UNL     1      -0.031  12.020  19.018  0.00  0.00    +0.000 A 
ATOM      4  C   UNL     1      -0.124  10.631  18.966  0.00  0.00    +0.000 A 
ATOM      5  O   UNL     1      -1.404  10.330  18.586  0.00  0.00    +0.000 OA
ENDROOT
BRANCH   3   6
ATOM      6  C   UNL     1       1.175  12.813  19.271  0.00  0.00    +0.000 A 
ATOM      7  C   UNL     1       2.157  12.931  18.266  0.00  0.00    +0.000 A 
ATOM      8  C   UNL     1       3.207  13.849  18.377  0.00  0.00    +0.000 A 
ATOM      9  C   UNL     1       3.336  14.612  19.530  0.00  0.00    +0.000 A 
ATOM     10 CL   UNL     1       4.592  15.781  19.647  0.00  0.00    +0.000 Cl
ATOM     11  C   UNL     1       2.442  14.443  20.582  0.00  0.00    +0.000 A 
ATOM     12  C   UNL     1       1.365  13.552  20.457  0.00  0.00    +0.000 A 
ATOM     13 CL   UNL     1       0.289  13.482  21.815  0.00  0.00    +0.000 Cl
ENDBRANCH   3   6
BRANCH   4  14
ATOM     14  C   UNL     1       0.768   9.474  19.090  0.00  0.00    +0.000 A 
ATOM     15  C   UNL     1       1.458   9.025  17.949  0.00  0.00    +0.000 A 
ATOM     16  C   UNL     1       2.356   7.955  18.013  0.00  0.00    +0.000 A 
ATOM     17  C   UNL     1       2.535   7.278  19.211  0.00  0.00    +0.000 A 
ATOM     18 CL   UNL     1       3.626   5.951  19.285  0.00  0.00    +0.000 Cl
ATOM     19  C   UNL     1       1.839   7.669  20.349  0.00  0.00    +0.000 A 
ATOM     20  C   UNL     1       0.971   8.770  20.296  0.00  0.00    +0.000 A 
ATOM     21 CL   UNL     1       0.225   9.219  21.794  0.00  0.00    +0.000 Cl
ENDBRANCH   4  14
BRANCH   1  23
ATOM     22  O   UNL     1      -3.634  11.465  16.673  0.00  0.00    +0.000 OA
ATOM     23  C   UNL     1      -3.377  11.556  17.873  0.00  0.00    +0.000 C 
ATOM     24  N   UNL     1      -4.375  11.757  18.816  0.00  0.00    +0.000 N 
ATOM     25  H   UNL     1      -4.049  11.952  19.759  0.00  0.00    +0.000 HD
BRANCH  24  26
ATOM     26  C   UNL     1      -5.728  12.143  18.426  0.00  0.00    +0.000 C 
ATOM     27  C   UNL     1      -6.642  10.918  18.319  0.00  0.00    +0.000 C 
ATOM     28  C   UNL     1      -6.949  10.287  19.678  0.00  0.00    +0.000 C 
ATOM     29  C   UNL     1      -7.445  11.302  20.706  0.00  0.00    +0.000 C 
ATOM     30  C   UNL     1      -6.559  12.542  20.790  0.00  0.00    +0.000 C 
ATOM     31  C   UNL     1      -6.328  13.158  19.411  0.00  0.00    +0.000 C 
ENDBRANCH  24  26
ENDBRANCH   1  23
TORSDOF 4
ENDMDL
MODEL 2
REMARK VINA RESULT:      -7.0      3.259      6.819
REMARK  Name = 
REMARK  4 active torsions:
REMARK  status: ('A' for Active; 'I' for Inactive)
REMARK    1  A    between atoms: C_2  and  C_10
REMARK    2  A    between atoms: N_3  and  C_4
REMARK    3  A    between atoms: C_12  and  C_13
REMARK    4  A    between atoms: C_21  and  C_22
REMARK                            x       y       z     vdW  Elec       q    Type
REMARK                         _______ _______ _______ _____ _____    ______ ____
ROOT
ATOM      1  C   UNL     1       1.253  13.827  19.531  0.00  0.00    +0.000 A 
ATOM      2  N   UNL     1       1.868  12.667  19.671  0.00  0.00    +0.000 NA
ATOM      3  C   UNL     1       0.867  11.727  19.498  0.00  0.00    +0.000 A 
ATOM      4  C   UNL     1      -0.348  12.378  19.294  0.00  0.00    +0.000 A 
ATOM      5  O   UNL     1      -0.090  13.721  19.318  0.00  0.00    +0.000 OA
ENDROOT
BRANCH   3   6
ATOM      6  C   UNL     1       1.113  10.283  19.445  0.00  0.00    +0.000 A 
ATOM      7  C   UNL     1       1.636   9.707  18.269  0.00  0.00    +0.000 A 
ATOM      8  C   UNL     1       2.093   8.384  18.247  0.00  0.00    +0.000 A 
ATOM      9  C   UNL     1       1.963   7.592  19.379  0.00  0.00    +0.000 A 
ATOM     10 CL   UNL     1       2.573   5.984  19.373  0.00  0.00    +0.000 Cl
ATOM     11  C   UNL     1       1.356   8.101  20.522  0.00  0.00    +0.000 A 
ATOM     12  C   UNL     1       0.934   9.439  20.560  0.00  0.00    +0.000 A 
ATOM     13 CL   UNL     1       0.251   9.967  22.064  0.00  0.00    +0.000 Cl
ENDBRANCH   3   6
BRANCH   4  14
ATOM     14  C   UNL     1      -1.731  12.023  18.962  0.00  0.00    +0.000 A 
ATOM     15  C   UNL     1      -1.977  11.266  17.802  0.00  0.00    +0.000 A 
ATOM     16  C   UNL     1      -3.269  10.860  17.456  0.00  0.00    +0.000 A 
ATOM     17  C   UNL     1      -4.347  11.255  18.236  0.00  0.00    +0.000 A 
ATOM     18 CL   UNL     1      -5.938  10.770  17.800  0.00  0.00    +0.000 Cl
ATOM     19  C   UNL     1      -4.144  12.037  19.367  0.00  0.00    +0.000 A 
ATOM     20  C   UNL     1      -2.844  12.408  19.739  0.00  0.00    +0.000 A 
ATOM     21 CL   UNL     1      -2.706  13.309  21.213  0.00  0.00    +0.000 Cl
ENDBRANCH   4  14
BRANCH   1  23
ATOM     22  O   UNL     1       2.734  15.547  20.245  0.00  0.00    +0.000 OA
ATOM     23  C   UNL     1       1.871  15.149  19.463  0.00  0.00    +0.000 C 
ATOM     24  N   UNL     1       1.356  15.971  18.471  0.00  0.00    +0.000 N 
ATOM     25  H   UNL     1       0.556  15.595  17.967  0.00  0.00    +0.000 HD
BRANCH  24  26
ATOM     26  C   UNL     1       1.599  17.410  18.467  0.00  0.00    +0.000 C 
ATOM     27  C   UNL     1       1.280  18.020  17.099  0.00  0.00    +0.000 C 
ATOM     28  C   UNL     1      -0.218  18.026  16.787  0.00  0.00    +0.000 C 
ATOM     29  C   UNL     1      -1.056  18.630  17.911  0.00  0.00    +0.000 C 
ATOM     30  C   UNL     1      -0.716  18.054  19.282  0.00  0.00    +0.000 C 
ATOM     31  C   UNL     1       0.785  18.120  19.560  0.00  0.00    +0.000 C 
ENDBRANCH  24  26
ENDBRANCH   1  23
TORSDOF 4
ENDMDL
MODEL 3
REMARK VINA RESULT:      -7.0      2.913      7.607
REMARK  Name = 
REMARK  4 active torsions:
REMARK  status: ('A' for Active; 'I' for Inactive)
REMARK    1  A    between atoms: C_2  and  C_10
REMARK    2  A    between atoms: N_3  and  C_4
REMARK    3  A    between atoms: C_12  and  C_13
REMARK    4  A    between atoms: C_21  and  C_22
REMARK                            x       y       z     vdW  Elec       q    Type
REMARK                         _______ _______ _______ _____ _____    ______ ____
ROOT
ATOM      1  C   UNL     1       0.577   9.587  20.468  0.00  0.00    +0.000 A 
ATOM      2  N   UNL     1      -0.687   9.598  20.088  0.00  0.00    +0.000 NA
ATOM      3  C   UNL     1      -0.895  10.887  19.629  0.00  0.00    +0.000 A 
ATOM      4  C   UNL     1       0.273  11.629  19.791  0.00  0.00    +0.000 A 
ATOM      5  O   UNL     1       1.209  10.788  20.329  0.00  0.00    +0.000 OA
ENDROOT
BRANCH   3   6
ATOM      6  C   UNL     1      -2.137  11.328  18.988  0.00  0.00    +0.000 A 
ATOM      7  C   UNL     1      -2.420  10.927  17.666  0.00  0.00    +0.000 A 
ATOM      8  C   UNL     1      -3.681  11.134  17.095  0.00  0.00    +0.000 A 
ATOM      9  C   UNL     1      -4.657  11.814  17.811  0.00  0.00    +0.000 A 
ATOM     10 CL   UNL     1      -6.225  12.022  17.135  0.00  0.00    +0.000 Cl
ATOM     11  C   UNL     1      -4.373  12.313  19.077  0.00  0.00    +0.000 A 
ATOM     12  C   UNL     1      -3.123  12.071  19.668  0.00  0.00    +0.000 A 
ATOM     13 CL   UNL     1      -2.919  12.692  21.273  0.00  0.00    +0.000 Cl
ENDBRANCH   3   6
BRANCH   4  14
ATOM     14  C   UNL     1       0.772  12.964  19.448  0.00  0.00    +0.000 A 
ATOM     15  C   UNL     1       0.151  14.088  20.023  0.00  0.00    +0.000 A 
ATOM     16  C   UNL     1       0.608  15.384  19.770  0.00  0.00    +0.000 A 
ATOM     17  C   UNL     1       1.663  15.582  18.888  0.00  0.00    +0.000 A 
ATOM     18 CL   UNL     1       2.213  17.178  18.563  0.00  0.00    +0.000 Cl
ATOM     19  C   UNL     1       2.273  14.497  18.271  0.00  0.00    +0.000 A 
ATOM     20  C   UNL     1       1.843  13.193  18.558  0.00  0.00    +0.000 A 
ATOM     21 CL   UNL     1       2.734  11.916  17.798  0.00  0.00    +0.000 Cl
ENDBRANCH   4  14
BRANCH   1  23
ATOM     22  O   UNL     1       1.842   8.290  22.011  0.00  0.00    +0.000 OA
ATOM     23  C   UNL     1       1.361   8.428  20.887  0.00  0.00    +0.000 C 
ATOM     24  N   UNL     1       1.588   7.498  19.882  0.00  0.00    +0.000 N 
ATOM     25  H   UNL     1       1.262   7.767  18.958  0.00  0.00    +0.000 HD
BRANCH  24  26
ATOM     26  C   UNL     1       2.613   6.466  20.012  0.00  0.00    +0.000 C 
ATOM     27  C   UNL     1       2.094   5.269  20.815  0.00  0.00    +0.000 C 
ATOM     28  C   UNL     1       1.034   4.465  20.060  0.00  0.00    +0.000 C 
ATOM     29  C   UNL     1       1.473   4.082  18.648  0.00  0.00    +0.000 C 
ATOM     30  C   UNL     1       2.027   5.263  17.858  0.00  0.00    +0.000 C 
ATOM     31  C   UNL     1       3.116   5.997  18.638  0.00  0.00    +0.000 C 
ENDBRANCH  24  26
ENDBRANCH   1  23
TORSDOF 4
ENDMDL
MODEL 4
REMARK VINA RESULT:      -7.0      1.175      1.598
REMARK  Name = 
REMARK  4 active torsions:
REMARK  status: ('A' for Active; 'I' for Inactive)
REMARK    1  A    between atoms: C_2  and  C_10
REMARK    2  A    between atoms: N_3  and  C_4
REMARK    3  A    between atoms: C_12  and  C_13
REMARK    4  A    between atoms: C_21  and  C_22
REMARK                            x       y       z     vdW  Elec       q    Type
REMARK                         _______ _______ _______ _____ _____    ______ ____
ROOT
ATOM      1  C   UNL     1      -2.256  11.408  18.262  0.00  0.00    +0.000 A 
ATOM      2  N   UNL     1      -1.652  12.464  18.774  0.00  0.00    +0.000 NA
ATOM      3  C   UNL     1      -0.446  11.974  19.244  0.00  0.00    +0.000 A 
ATOM      4  C   UNL     1      -0.389  10.599  19.023  0.00  0.00    +0.000 A 
ATOM      5  O   UNL     1      -1.553  10.248  18.395  0.00  0.00    +0.000 OA
ENDROOT
BRANCH   3   6
ATOM      6  C   UNL     1       0.617  12.823  19.789  0.00  0.00    +0.000 A 
ATOM      7  C   UNL     1       0.415  13.495  21.012  0.00  0.00    +0.000 A 
ATOM      8  C   UNL     1       1.470  14.131  21.677  0.00  0.00    +0.000 A 
ATOM      9  C   UNL     1       2.728  14.171  21.092  0.00  0.00    +0.000 A 
ATOM     10 CL   UNL     1       4.039  14.902  21.931  0.00  0.00    +0.000 Cl
ATOM     11  C   UNL     1       2.933  13.607  19.838  0.00  0.00    +0.000 A 
ATOM     12  C   UNL     1       1.887  12.933  19.188  0.00  0.00    +0.000 A 
ATOM     13 CL   UNL     1       2.290  12.220  17.659  0.00  0.00    +0.000 Cl
ENDBRANCH   3   6
BRANCH   4  14
ATOM     14  C   UNL     1       0.582   9.512  19.171  0.00  0.00    +0.000 A 
ATOM     15  C   UNL     1       1.258   9.046  18.028  0.00  0.00    +0.000 A 
ATOM     16  C   UNL     1       2.227   8.042  18.111  0.00  0.00    +0.000 A 
ATOM     17  C   UNL     1       2.495   7.444  19.336  0.00  0.00    +0.000 A 
ATOM     18 CL   UNL     1       3.675   6.197  19.434  0.00  0.00    +0.000 Cl
ATOM     19  C   UNL     1       1.817   7.852  20.478  0.00  0.00    +0.000 A 
ATOM     20  C   UNL     1       0.877   8.890  20.403  0.00  0.00    +0.000 A 
ATOM     21 CL   UNL     1       0.159   9.372  21.904  0.00  0.00    +0.000 Cl
ENDBRANCH   4  14
BRANCH   1  23
ATOM     22  O   UNL     1      -3.548  11.488  16.265  0.00  0.00    +0.000 OA
ATOM     23  C   UNL     1      -3.497  11.391  17.491  0.00  0.00    +0.000 C 
ATOM     24  N   UNL     1      -4.649  11.323  18.261  0.00  0.00    +0.000 N 
ATOM     25  H   UNL     1      -4.504  11.381  19.266  0.00  0.00    +0.000 HD
BRANCH  24  26
ATOM     26  C   UNL     1      -5.962  11.634  17.704  0.00  0.00    +0.000 C 
ATOM     27  C   UNL     1      -7.073  10.915  18.474  0.00  0.00    +0.000 C 
ATOM     28  C   UNL     1      -7.270  11.471  19.886  0.00  0.00    +0.000 C 
ATOM     29  C   UNL     1      -7.426  12.990  19.909  0.00  0.00    +0.000 C 
ATOM     30  C   UNL     1      -6.343  13.710  19.111  0.00  0.00    +0.000 C 
ATOM     31  C   UNL     1      -6.225  13.148  17.696  0.00  0.00    +0.000 C 
ENDBRANCH  24  26
ENDBRANCH   1  23
TORSDOF 4
ENDMDL
MODEL 5
REMARK VINA RESULT:      -6.9      2.840      7.717
REMARK  Name = 
REMARK  4 active torsions:
REMARK  status: ('A' for Active; 'I' for Inactive)
REMARK    1  A    between atoms: C_2  and  C_10
REMARK    2  A    between atoms: N_3  and  C_4
REMARK    3  A    between atoms: C_12  and  C_13
REMARK    4  A    between atoms: C_21  and  C_22
REMARK                            x       y       z     vdW  Elec       q    Type
REMARK                         _______ _______ _______ _____ _____    ______ ____
ROOT
ATOM      1  C   UNL     1       0.456  13.996  19.418  0.00  0.00    +0.000 A 
ATOM      2  N   UNL     1       1.092  12.896  19.775  0.00  0.00    +0.000 NA
ATOM      3  C   UNL     1       0.114  11.916  19.763  0.00  0.00    +0.000 A 
ATOM      4  C   UNL     1      -1.110  12.490  19.426  0.00  0.00    +0.000 A 
ATOM      5  O   UNL     1      -0.881  13.821  19.209  0.00  0.00    +0.000 OA
ENDROOT
BRANCH   3   6
ATOM      6  C   UNL     1       0.391  10.493  19.977  0.00  0.00    +0.000 A 
ATOM      7  C   UNL     1       1.095   9.764  18.998  0.00  0.00    +0.000 A 
ATOM      8  C   UNL     1       1.573   8.473  19.253  0.00  0.00    +0.000 A 
ATOM      9  C   UNL     1       1.289   7.861  20.466  0.00  0.00    +0.000 A 
ATOM     10 CL   UNL     1       1.921   6.298  20.806  0.00  0.00    +0.000 Cl
ATOM     11  C   UNL     1       0.507   8.516  21.412  0.00  0.00    +0.000 A 
ATOM     12  C   UNL     1       0.060   9.825  21.174  0.00  0.00    +0.000 A 
ATOM     13 CL   UNL     1      -0.851  10.551  22.458  0.00  0.00    +0.000 Cl
ENDBRANCH   3   6
BRANCH   4  14
ATOM     14  C   UNL     1      -2.479  12.049  19.146  0.00  0.00    +0.000 A 
ATOM     15  C   UNL     1      -3.532  12.565  19.925  0.00  0.00    +0.000 A 
ATOM     16  C   UNL     1      -4.862  12.216  19.678  0.00  0.00    +0.000 A 
ATOM     17  C   UNL     1      -5.159  11.298  18.680  0.00  0.00    +0.000 A 
ATOM     18 CL   UNL     1      -6.795  10.856  18.388  0.00  0.00    +0.000 Cl
ATOM     19  C   UNL     1      -4.141  10.737  17.917  0.00  0.00    +0.000 A 
ATOM     20  C   UNL     1      -2.809  11.120  18.136  0.00  0.00    +0.000 A 
ATOM     21 CL   UNL     1      -1.636  10.423  17.069  0.00  0.00    +0.000 Cl
ENDBRANCH   4  14
BRANCH   1  23
ATOM     22  O   UNL     1       0.450  16.213  18.553  0.00  0.00    +0.000 OA
ATOM     23  C   UNL     1       1.047  15.298  19.119  0.00  0.00    +0.000 C 
ATOM     24  N   UNL     1       2.385  15.411  19.467  0.00  0.00    +0.000 N 
ATOM     25  H   UNL     1       2.821  14.557  19.806  0.00  0.00    +0.000 HD
BRANCH  24  26
ATOM     26  C   UNL     1       3.222  16.490  18.948  0.00  0.00    +0.000 C 
ATOM     27  C   UNL     1       4.279  16.911  19.974  0.00  0.00    +0.000 C 
ATOM     28  C   UNL     1       5.357  15.846  20.185  0.00  0.00    +0.000 C 
ATOM     29  C   UNL     1       5.970  15.355  18.876  0.00  0.00    +0.000 C 
ATOM     30  C   UNL     1       4.922  14.970  17.837  0.00  0.00    +0.000 C 
ATOM     31  C   UNL     1       3.902  16.088  17.630  0.00  0.00    +0.000 C 
ENDBRANCH  24  26
ENDBRANCH   1  23
TORSDOF 4
ENDMDL
MODEL 6
REMARK VINA RESULT:      -6.9      3.003      6.952
REMARK  Name = 
REMARK  4 active torsions:
REMARK  status: ('A' for Active; 'I' for Inactive)
REMARK    1  A    between atoms: C_2  and  C_10
REMARK    2  A    between atoms: N_3  and  C_4
REMARK    3  A    between atoms: C_12  and  C_13
REMARK    4  A    between atoms: C_21  and  C_22
REMARK                            x       y       z     vdW  Elec       q    Type
REMARK                         _______ _______ _______ _____ _____    ______ ____
ROOT
ATOM      1  C   UNL     1       0.656   9.822  19.923  0.00  0.00    +0.000 A 
ATOM      2  N   UNL     1       1.224  11.006  19.796  0.00  0.00    +0.000 NA
ATOM      3  C   UNL     1       0.216  11.819  19.308  0.00  0.00    +0.000 A 
ATOM      4  C   UNL     1      -0.939  11.061  19.123  0.00  0.00    +0.000 A 
ATOM      5  O   UNL     1      -0.646   9.784  19.518  0.00  0.00    +0.000 OA
ENDROOT
BRANCH   3   6
ATOM      6  C   UNL     1       0.358  13.266  19.128  0.00  0.00    +0.000 A 
ATOM      7  C   UNL     1      -0.654  14.130  19.595  0.00  0.00    +0.000 A 
ATOM      8  C   UNL     1      -0.463  15.516  19.647  0.00  0.00    +0.000 A 
ATOM      9  C   UNL     1       0.715  16.067  19.161  0.00  0.00    +0.000 A 
ATOM     10 CL   UNL     1       0.977  17.763  19.273  0.00  0.00    +0.000 Cl
ATOM     11  C   UNL     1       1.688  15.248  18.598  0.00  0.00    +0.000 A 
ATOM     12  C   UNL     1       1.516  13.856  18.582  0.00  0.00    +0.000 A 
ATOM     13 CL   UNL     1       2.830  12.945  17.910  0.00  0.00    +0.000 Cl
ENDBRANCH   3   6
BRANCH   4  14
ATOM     14  C   UNL     1      -2.338  11.282  18.747  0.00  0.00    +0.000 A 
ATOM     15  C   UNL     1      -3.154  12.054  19.595  0.00  0.00    +0.000 A 
ATOM     16  C   UNL     1      -4.484  12.336  19.270  0.00  0.00    +0.000 A 
ATOM     17  C   UNL     1      -5.038  11.802  18.115  0.00  0.00    +0.000 A 
ATOM     18 CL   UNL     1      -6.680  12.135  17.725  0.00  0.00    +0.000 Cl
ATOM     19  C   UNL     1      -4.273  11.002  17.275  0.00  0.00    +0.000 A 
ATOM     20  C   UNL     1      -2.926  10.754  17.578  0.00  0.00    +0.000 A 
ATOM     21 CL   UNL     1      -2.048   9.816  16.415  0.00  0.00    +0.000 Cl
ENDBRANCH   4  14
BRANCH   1  23
ATOM     22  O   UNL     1       1.336   8.474  21.763  0.00  0.00    +0.000 OA
ATOM     23  C   UNL     1       1.230   8.632  20.547  0.00  0.00    +0.000 C 
ATOM     24  N   UNL     1       1.719   7.695  19.648  0.00  0.00    +0.000 N 
ATOM     25  H   UNL     1       1.702   7.978  18.672  0.00  0.00    +0.000 HD
BRANCH  24  26
ATOM     26  C   UNL     1       2.616   6.623  20.073  0.00  0.00    +0.000 C 
ATOM     27  C   UNL     1       1.846   5.512  20.793  0.00  0.00    +0.000 C 
ATOM     28  C   UNL     1       0.940   4.714  19.854  0.00  0.00    +0.000 C 
ATOM     29  C   UNL     1       1.669   4.213  18.609  0.00  0.00    +0.000 C 
ATOM     30  C   UNL     1       2.468   5.308  17.908  0.00  0.00    +0.000 C 
ATOM     31  C   UNL     1       3.392   6.037  18.883  0.00  0.00    +0.000 C 
ENDBRANCH  24  26
ENDBRANCH   1  23
TORSDOF 4
ENDMDL
MODEL 7
REMARK VINA RESULT:      -6.9      0.895      4.441
REMARK  Name = 
REMARK  4 active torsions:
REMARK  status: ('A' for Active; 'I' for Inactive)
REMARK    1  A    between atoms: C_2  and  C_10
REMARK    2  A    between atoms: N_3  and  C_4
REMARK    3  A    between atoms: C_12  and  C_13
REMARK    4  A    between atoms: C_21  and  C_22
REMARK                            x       y       z     vdW  Elec       q    Type
REMARK                         _______ _______ _______ _____ _____    ______ ____
ROOT
ATOM      1  C   UNL     1      -2.175  11.388  18.137  0.00  0.00    +0.000 A 
ATOM      2  N   UNL     1      -1.668  10.169  18.112  0.00  0.00    +0.000 NA
ATOM      3  C   UNL     1      -0.349  10.340  18.492  0.00  0.00    +0.000 A 
ATOM      4  C   UNL     1      -0.100  11.695  18.701  0.00  0.00    +0.000 A 
ATOM      5  O   UNL     1      -1.275  12.357  18.469  0.00  0.00    +0.000 OA
ENDROOT
BRANCH   3   6
ATOM      6  C   UNL     1       0.577   9.229  18.726  0.00  0.00    +0.000 A 
ATOM      7  C   UNL     1       1.356   8.733  17.660  0.00  0.00    +0.000 A 
ATOM      8  C   UNL     1       2.405   7.833  17.880  0.00  0.00    +0.000 A 
ATOM      9  C   UNL     1       2.643   7.354  19.161  0.00  0.00    +0.000 A 
ATOM     10 CL   UNL     1       3.966   6.292  19.446  0.00  0.00    +0.000 Cl
ATOM     11  C   UNL     1       1.826   7.745  20.216  0.00  0.00    +0.000 A 
ATOM     12  C   UNL     1       0.799   8.678  20.005  0.00  0.00    +0.000 A 
ATOM     13 CL   UNL     1      -0.106   9.129  21.413  0.00  0.00    +0.000 Cl
ENDBRANCH   3   6
BRANCH   4  14
ATOM     14  C   UNL     1       0.994  12.539  19.188  0.00  0.00    +0.000 A 
ATOM     15  C   UNL     1       2.006  12.925  18.288  0.00  0.00    +0.000 A 
ATOM     16  C   UNL     1       3.052  13.764  18.681  0.00  0.00    +0.000 A 
ATOM     17  C   UNL     1       3.136  14.188  20.001  0.00  0.00    +0.000 A 
ATOM     18 CL   UNL     1       4.433  15.206  20.488  0.00  0.00    +0.000 Cl
ATOM     19  C   UNL     1       2.176  13.793  20.926  0.00  0.00    +0.000 A 
ATOM     20  C   UNL     1       1.102  12.987  20.522  0.00  0.00    +0.000 A 
ATOM     21 CL   UNL     1      -0.078  12.630  21.740  0.00  0.00    +0.000 Cl
ENDBRANCH   4  14
BRANCH   1  23
ATOM     22  O   UNL     1      -4.178  11.727  16.897  0.00  0.00    +0.000 OA
ATOM     23  C   UNL     1      -3.578  11.762  17.971  0.00  0.00    +0.000 C 
ATOM     24  N   UNL     1      -4.185  12.233  19.127  0.00  0.00    +0.000 N 
ATOM     25  H   UNL     1      -3.567  12.346  19.927  0.00  0.00    +0.000 HD
BRANCH  24  26
ATOM     26  C   UNL     1      -5.450  12.960  19.084  0.00  0.00    +0.000 C 
ATOM     27  C   UNL     1      -6.640  11.995  19.076  0.00  0.00    +0.000 C 
ATOM     28  C   UNL     1      -6.822  11.267  20.409  0.00  0.00    +0.000 C 
ATOM     29  C   UNL     1      -6.841  12.216  21.606  0.00  0.00    +0.000 C 
ATOM     30  C   UNL     1      -5.679  13.204  21.599  0.00  0.00    +0.000 C 
ATOM     31  C   UNL     1      -5.576  13.938  20.263  0.00  0.00    +0.000 C 
ENDBRANCH  24  26
ENDBRANCH   1  23
TORSDOF 4
ENDMDL
MODEL 8
REMARK VINA RESULT:      -6.9      1.379      1.824
REMARK  Name = 
REMARK  4 active torsions:
REMARK  status: ('A' for Active; 'I' for Inactive)
REMARK    1  A    between atoms: C_2  and  C_10
REMARK    2  A    between atoms: N_3  and  C_4
REMARK    3  A    between atoms: C_12  and  C_13
REMARK    4  A    between atoms: C_21  and  C_22
REMARK                            x       y       z     vdW  Elec       q    Type
REMARK                         _______ _______ _______ _____ _____    ______ ____
ROOT
ATOM      1  C   UNL     1      -1.964  12.070  19.595  0.00  0.00    +0.000 A 
ATOM      2  N   UNL     1      -1.093  13.059  19.662  0.00  0.00    +0.000 NA
ATOM      3  C   UNL     1       0.141  12.434  19.592  0.00  0.00    +0.000 A 
ATOM      4  C   UNL     1      -0.045  11.055  19.521  0.00  0.00    +0.000 A 
ATOM      5  O   UNL     1      -1.395  10.832  19.526  0.00  0.00    +0.000 OA
ENDROOT
BRANCH   3   6
ATOM      6  C   UNL     1       1.412  13.158  19.505  0.00  0.00    +0.000 A 
ATOM      7  C   UNL     1       2.241  12.980  18.379  0.00  0.00    +0.000 A 
ATOM      8  C   UNL     1       3.345  13.809  18.147  0.00  0.00    +0.000 A 
ATOM      9  C   UNL     1       3.682  14.781  19.078  0.00  0.00    +0.000 A 
ATOM     10 CL   UNL     1       5.003  15.839  18.772  0.00  0.00    +0.000 Cl
ATOM     11  C   UNL     1       2.944  14.912  20.250  0.00  0.00    +0.000 A 
ATOM     12  C   UNL     1       1.814  14.109  20.465  0.00  0.00    +0.000 A 
ATOM     13 CL   UNL     1       0.945  14.415  21.934  0.00  0.00    +0.000 Cl
ENDBRANCH   3   6
BRANCH   4  14
ATOM     14  C   UNL     1       0.775   9.854  19.337  0.00  0.00    +0.000 A 
ATOM     15  C   UNL     1       1.310   9.587  18.063  0.00  0.00    +0.000 A 
ATOM     16  C   UNL     1       2.135   8.483  17.834  0.00  0.00    +0.000 A 
ATOM     17  C   UNL     1       2.394   7.591  18.867  0.00  0.00    +0.000 A 
ATOM     18 CL   UNL     1       3.395   6.222  18.580  0.00  0.00    +0.000 Cl
ATOM     19  C   UNL     1       1.849   7.802  20.128  0.00  0.00    +0.000 A 
ATOM     20  C   UNL     1       1.057   8.934  20.369  0.00  0.00    +0.000 A 
ATOM     21 CL   UNL     1       0.505   9.139  21.999  0.00  0.00    +0.000 Cl
ENDBRANCH   4  14
BRANCH   1  23
ATOM     22  O   UNL     1      -4.040  11.923  18.441  0.00  0.00    +0.000 OA
ATOM     23  C   UNL     1      -3.415  12.181  19.469  0.00  0.00    +0.000 C 
ATOM     24  N   UNL     1      -4.051  12.674  20.599  0.00  0.00    +0.000 N 
ATOM     25  H   UNL     1      -3.433  12.981  21.347  0.00  0.00    +0.000 HD
BRANCH  24  26
ATOM     26  C   UNL     1      -5.424  13.168  20.551  0.00  0.00    +0.000 C 
ATOM     27  C   UNL     1      -6.240  12.647  21.738  0.00  0.00    +0.000 C 
ATOM     28  C   UNL     1      -5.808  13.263  23.070  0.00  0.00    +0.000 C 
ATOM     29  C   UNL     1      -5.740  14.787  23.025  0.00  0.00    +0.000 C 
ATOM     30  C   UNL     1      -4.960  15.312  21.823  0.00  0.00    +0.000 C 
ATOM     31  C   UNL     1      -5.468  14.703  20.518  0.00  0.00    +0.000 C 
ENDBRANCH  24  26
ENDBRANCH   1  23
TORSDOF 4
ENDMDL
MODEL 9
REMARK VINA RESULT:      -6.8      2.846      6.870
REMARK  Name = 
REMARK  4 active torsions:
REMARK  status: ('A' for Active; 'I' for Inactive)
REMARK    1  A    between atoms: C_2  and  C_10
REMARK    2  A    between atoms: N_3  and  C_4
REMARK    3  A    between atoms: C_12  and  C_13
REMARK    4  A    between atoms: C_21  and  C_22
REMARK                            x       y       z     vdW  Elec       q    Type
REMARK                         _______ _______ _______ _____ _____    ______ ____
ROOT
ATOM      1  C   UNL     1       0.741   9.806  19.854  0.00  0.00    +0.000 A 
ATOM      2  N   UNL     1       1.358  10.959  19.674  0.00  0.00    +0.000 NA
ATOM      3  C   UNL     1       0.376  11.798  19.178  0.00  0.00    +0.000 A 
ATOM      4  C   UNL     1      -0.815  11.087  19.043  0.00  0.00    +0.000 A 
ATOM      5  O   UNL     1      -0.570   9.813  19.476  0.00  0.00    +0.000 OA
ENDROOT
BRANCH   3   6
ATOM      6  C   UNL     1       0.577  13.231  18.945  0.00  0.00    +0.000 A 
ATOM      7  C   UNL     1      -0.443  14.144  19.283  0.00  0.00    +0.000 A 
ATOM      8  C   UNL     1      -0.213  15.525  19.288  0.00  0.00    +0.000 A 
ATOM      9  C   UNL     1       1.017  16.019  18.880  0.00  0.00    +0.000 A 
ATOM     10 CL   UNL     1       1.322  17.711  18.937  0.00  0.00    +0.000 Cl
ATOM     11  C   UNL     1       2.009  15.149  18.440  0.00  0.00    +0.000 A 
ATOM     12  C   UNL     1       1.795  13.762  18.474  0.00  0.00    +0.000 A 
ATOM     13 CL   UNL     1       3.132  12.785  17.959  0.00  0.00    +0.000 Cl
ENDBRANCH   3   6
BRANCH   4  14
ATOM     14  C   UNL     1      -2.211  11.357  18.688  0.00  0.00    +0.000 A 
ATOM     15  C   UNL     1      -2.667  10.997  17.406  0.00  0.00    +0.000 A 
ATOM     16  C   UNL     1      -3.998  11.189  17.024  0.00  0.00    +0.000 A 
ATOM     17  C   UNL     1      -4.884  11.800  17.901  0.00  0.00    +0.000 A 
ATOM     18 CL   UNL     1      -6.517  12.052  17.424  0.00  0.00    +0.000 Cl
ATOM     19  C   UNL     1      -4.457  12.206  19.160  0.00  0.00    +0.000 A 
ATOM     20  C   UNL     1      -3.133  11.974  19.560  0.00  0.00    +0.000 A 
ATOM     21 CL   UNL     1      -2.738  12.443  21.181  0.00  0.00    +0.000 Cl
ENDBRANCH   4  14
BRANCH   1  23
ATOM     22  O   UNL     1       1.337   8.465  21.728  0.00  0.00    +0.000 OA
ATOM     23  C   UNL     1       1.275   8.613  20.507  0.00  0.00    +0.000 C 
ATOM     24  N   UNL     1       1.782   7.662  19.634  0.00  0.00    +0.000 N 
ATOM     25  H   UNL     1       1.804   7.937  18.655  0.00  0.00    +0.000 HD
BRANCH  24  26
ATOM     26  C   UNL     1       2.648   6.581  20.098  0.00  0.00    +0.000 C 
ATOM     27  C   UNL     1       1.828   5.440  20.707  0.00  0.00    +0.000 C 
ATOM     28  C   UNL     1       1.017   4.670  19.662  0.00  0.00    +0.000 C 
ATOM     29  C   UNL     1       1.859   4.220  18.471  0.00  0.00    +0.000 C 
ATOM     30  C   UNL     1       2.707   5.345  17.884  0.00  0.00    +0.000 C 
ATOM     31  C   UNL     1       3.533   6.044  18.963  0.00  0.00    +0.000 C 
ENDBRANCH  24  26
ENDBRANCH   1  23
TORSDOF 4
ENDMDL
