MODEL 1
REMARK VINA RESULT:      -9.0      0.000      0.000
REMARK  Name = 
REMARK  3 active torsions:
REMARK  status: ('A' for Active; 'I' for Inactive)
REMARK    1  A    between atoms: C_5  and  C_6
REMARK    2  A    between atoms: N_8  and  C_9
REMARK    3  A    between atoms: C_16  and  C_17
REMARK                            x       y       z     vdW  Elec       q    Type
REMARK                         _______ _______ _______ _____ _____    ______ ____
ROOT
ATOM      1  C   UNL     1       3.434   4.773  17.893  0.00  0.00    +0.000 A 
ATOM      2  N   UNL     1       4.132   4.154  16.930  0.00  0.00    +0.000 NA
ATOM      3  N   UNL     1       4.685   5.139  16.182  0.00  0.00    +0.000 N 
ATOM      4  C   UNL     1       4.338   6.390  16.648  0.00  0.00    +0.000 A 
ATOM      5  C   UNL     1       3.493   6.179  17.711  0.00  0.00    +0.000 A 
ENDROOT
BRANCH   5   6
ATOM      6  C   UNL     1       2.787   7.218  18.492  0.00  0.00    +0.000 A 
ATOM      7  N   UNL     1       2.248   8.279  17.939  0.00  0.00    +0.000 NA
ATOM      8  C   UNL     1       1.648   8.965  18.958  0.00  0.00    +0.000 A 
ATOM      9  C   UNL     1       1.015  10.213  18.935  0.00  0.00    +0.000 A 
ATOM     10  C   UNL     1       0.492  10.695  20.135  0.00  0.00    +0.000 A 
ATOM     11 CL   UNL     1      -0.051  12.328  20.215  0.00  0.00    +0.000 Cl
ATOM     12  C   UNL     1       0.469   9.907  21.290  0.00  0.00    +0.000 A 
ATOM     13  C   UNL     1       1.099   8.656  21.325  0.00  0.00    +0.000 A 
ATOM     14  C   UNL     1       1.743   8.255  20.153  0.00  0.00    +0.000 A 
ATOM     15  N   UNL     1       2.566   7.202  19.845  0.00  0.00    +0.000 N 
ATOM     16  H   UNL     1       2.895   6.498  20.488  0.00  0.00    +0.000 HD
ENDBRANCH   5   6
BRANCH   1  21
ATOM     17  F   UNL     1       1.093   1.900  22.096  0.00  0.00    +0.000 F 
ATOM     18  C   UNL     1       1.655   2.584  21.087  0.00  0.00    +0.000 A 
ATOM     19  C   UNL     1       0.841   3.161  20.124  0.00  0.00    +0.000 A 
ATOM     20  C   UNL     1       1.424   3.880  19.085  0.00  0.00    +0.000 A 
ATOM     21  C   UNL     1       2.825   4.002  18.981  0.00  0.00    +0.000 A 
ATOM     22  C   UNL     1       3.622   3.417  19.976  0.00  0.00    +0.000 A 
ATOM     23  C   UNL     1       3.037   2.707  21.027  0.00  0.00    +0.000 A 
ENDBRANCH   1  21
BRANCH   3  24
ATOM     24  C   UNL     1       5.530   4.810  15.084  0.00  0.00    +0.000 A 
ATOM     25  C   UNL     1       6.796   5.412  14.998  0.00  0.00    +0.000 A 
ATOM     26  C   UNL     1       7.637   5.133  13.918  0.00  0.00    +0.000 A 
ATOM     27  C   UNL     1       7.221   4.254  12.922  0.00  0.00    +0.000 A 
ATOM     28  C   UNL     1       5.969   3.645  13.005  0.00  0.00    +0.000 A 
ATOM     29  C   UNL     1       5.121   3.917  14.085  0.00  0.00    +0.000 A 
ENDBRANCH   3  24
TORSDOF 3
ENDMDL
MODEL 2
REMARK VINA RESULT:      -9.0      0.827      1.885
REMARK  Name = 
REMARK  3 active torsions:
REMARK  status: ('A' for Active; 'I' for Inactive)
REMARK    1  A    between atoms: C_5  and  C_6
REMARK    2  A    between atoms: N_8  and  C_9
REMARK    3  A    between atoms: C_16  and  C_17
REMARK                            x       y       z     vdW  Elec       q    Type
REMARK                         _______ _______ _______ _____ _____    ______ ____
ROOT
ATOM      1  C   UNL     1       3.219   5.006  18.303  0.00  0.00    +0.000 A 
ATOM      2  N   UNL     1       3.998   4.401  17.395  0.00  0.00    +0.000 NA
ATOM      3  N   UNL     1       4.529   5.394  16.641  0.00  0.00    +0.000 N 
ATOM      4  C   UNL     1       4.088   6.636  17.049  0.00  0.00    +0.000 A 
ATOM      5  C   UNL     1       3.205   6.407  18.078  0.00  0.00    +0.000 A 
ENDROOT
BRANCH   5   6
ATOM      6  C   UNL     1       2.403   7.425  18.791  0.00  0.00    +0.000 A 
ATOM      7  N   UNL     1       2.180   7.377  20.083  0.00  0.00    +0.000 NA
ATOM      8  C   UNL     1       1.460   8.501  20.378  0.00  0.00    +0.000 A 
ATOM      9  C   UNL     1       0.880   8.890  21.590  0.00  0.00    +0.000 A 
ATOM     10  C   UNL     1       0.178  10.095  21.614  0.00  0.00    +0.000 A 
ATOM     11 CL   UNL     1      -0.774  10.482  22.998  0.00  0.00    +0.000 Cl
ATOM     12  C   UNL     1       0.170  10.957  20.513  0.00  0.00    +0.000 A 
ATOM     13  C   UNL     1       0.747  10.578  19.294  0.00  0.00    +0.000 A 
ATOM     14  C   UNL     1       1.319   9.306  19.249  0.00  0.00    +0.000 A 
ATOM     15  N   UNL     1       1.836   8.542  18.234  0.00  0.00    +0.000 N 
ATOM     16  H   UNL     1       1.857   8.790  17.257  0.00  0.00    +0.000 HD
ENDBRANCH   5   6
BRANCH   1  21
ATOM     17  F   UNL     1       0.893   1.978  22.404  0.00  0.00    +0.000 F 
ATOM     18  C   UNL     1       1.448   2.707  21.424  0.00  0.00    +0.000 A 
ATOM     19  C   UNL     1       2.818   2.922  21.432  0.00  0.00    +0.000 A 
ATOM     20  C   UNL     1       3.395   3.668  20.410  0.00  0.00    +0.000 A 
ATOM     21  C   UNL     1       2.605   4.233  19.387  0.00  0.00    +0.000 A 
ATOM     22  C   UNL     1       1.223   3.989  19.398  0.00  0.00    +0.000 A 
ATOM     23  C   UNL     1       0.646   3.229  20.417  0.00  0.00    +0.000 A 
ENDBRANCH   1  21
BRANCH   3  24
ATOM     24  C   UNL     1       5.443   5.084  15.596  0.00  0.00    +0.000 A 
ATOM     25  C   UNL     1       5.005   4.288  14.524  0.00  0.00    +0.000 A 
ATOM     26  C   UNL     1       5.886   3.943  13.497  0.00  0.00    +0.000 A 
ATOM     27  C   UNL     1       7.205   4.387  13.533  0.00  0.00    +0.000 A 
ATOM     28  C   UNL     1       7.645   5.185  14.589  0.00  0.00    +0.000 A 
ATOM     29  C   UNL     1       6.769   5.539  15.620  0.00  0.00    +0.000 A 
ENDBRANCH   3  24
TORSDOF 3
ENDMDL
MODEL 3
REMARK VINA RESULT:      -9.0      0.812      1.366
REMARK  Name = 
REMARK  3 active torsions:
REMARK  status: ('A' for Active; 'I' for Inactive)
REMARK    1  A    between atoms: C_5  and  C_6
REMARK    2  A    between atoms: N_8  and  C_9
REMARK    3  A    between atoms: C_16  and  C_17
REMARK                            x       y       z     vdW  Elec       q    Type
REMARK                         _______ _______ _______ _____ _____    ______ ____
ROOT
ATOM      1  C   UNL     1       3.202   4.997  18.222  0.00  0.00    +0.000 A 
ATOM      2  N   UNL     1       3.980   4.377  17.323  0.00  0.00    +0.000 NA
ATOM      3  N   UNL     1       4.538   5.360  16.576  0.00  0.00    +0.000 N 
ATOM      4  C   UNL     1       4.115   6.610  16.978  0.00  0.00    +0.000 A 
ATOM      5  C   UNL     1       3.217   6.397  17.997  0.00  0.00    +0.000 A 
ENDROOT
BRANCH   5   6
ATOM      6  C   UNL     1       2.427   7.430  18.701  0.00  0.00    +0.000 A 
ATOM      7  N   UNL     1       2.203   7.397  19.993  0.00  0.00    +0.000 NA
ATOM      8  C   UNL     1       1.495   8.531  20.278  0.00  0.00    +0.000 A 
ATOM      9  C   UNL     1       0.919   8.937  21.487  0.00  0.00    +0.000 A 
ATOM     10  C   UNL     1       0.230  10.150  21.500  0.00  0.00    +0.000 A 
ATOM     11 CL   UNL     1      -0.717  10.560  22.880  0.00  0.00    +0.000 Cl
ATOM     12  C   UNL     1       0.231  11.002  20.391  0.00  0.00    +0.000 A 
ATOM     13  C   UNL     1       0.804  10.606  19.175  0.00  0.00    +0.000 A 
ATOM     14  C   UNL     1       1.362   9.328  19.142  0.00  0.00    +0.000 A 
ATOM     15  N   UNL     1       1.871   8.549  18.134  0.00  0.00    +0.000 N 
ATOM     16  H   UNL     1       1.895   8.788  17.155  0.00  0.00    +0.000 HD
ENDBRANCH   5   6
BRANCH   1  21
ATOM     17  F   UNL     1       0.707   2.159  22.360  0.00  0.00    +0.000 F 
ATOM     18  C   UNL     1       1.307   2.835  21.368  0.00  0.00    +0.000 A 
ATOM     19  C   UNL     1       0.647   2.993  20.158  0.00  0.00    +0.000 A 
ATOM     20  C   UNL     1       1.266   3.703  19.135  0.00  0.00    +0.000 A 
ATOM     21  C   UNL     1       2.561   4.236  19.299  0.00  0.00    +0.000 A 
ATOM     22  C   UNL     1       3.200   4.070  20.537  0.00  0.00    +0.000 A 
ATOM     23  C   UNL     1       2.574   3.369  21.570  0.00  0.00    +0.000 A 
ENDBRANCH   1  21
BRANCH   3  24
ATOM     24  C   UNL     1       5.458   5.032  15.540  0.00  0.00    +0.000 A 
ATOM     25  C   UNL     1       6.771   5.525  15.618  0.00  0.00    +0.000 A 
ATOM     26  C   UNL     1       7.690   5.245  14.604  0.00  0.00    +0.000 A 
ATOM     27  C   UNL     1       7.305   4.475  13.510  0.00  0.00    +0.000 A 
ATOM     28  C   UNL     1       6.006   3.974  13.430  0.00  0.00    +0.000 A 
ATOM     29  C   UNL     1       5.080   4.247  14.443  0.00  0.00    +0.000 A 
ENDBRANCH   3  24
TORSDOF 3
ENDMDL
MODEL 4
REMARK VINA RESULT:      -8.9      0.689      1.413
REMARK  Name = 
REMARK  3 active torsions:
REMARK  status: ('A' for Active; 'I' for Inactive)
REMARK    1  A    between atoms: C_5  and  C_6
REMARK    2  A    between atoms: N_8  and  C_9
REMARK    3  A    between atoms: C_16  and  C_17
REMARK                            x       y       z     vdW  Elec       q    Type
REMARK                         _______ _______ _______ _____ _____    ______ ____
ROOT
ATOM      1  C   UNL     1       3.160   5.135  18.318  0.00  0.00    +0.000 A 
ATOM      2  N   UNL     1       3.929   4.509  17.416  0.00  0.00    +0.000 NA
ATOM      3  N   UNL     1       4.513   5.488  16.684  0.00  0.00    +0.000 N 
ATOM      4  C   UNL     1       4.116   6.742  17.099  0.00  0.00    +0.000 A 
ATOM      5  C   UNL     1       3.207   6.537  18.111  0.00  0.00    +0.000 A 
ENDROOT
BRANCH   5   6
ATOM      6  C   UNL     1       2.435   7.579  18.822  0.00  0.00    +0.000 A 
ATOM      7  N   UNL     1       1.877   8.595  18.207  0.00  0.00    +0.000 NA
ATOM      8  C   UNL     1       1.216   9.299  19.175  0.00  0.00    +0.000 A 
ATOM      9  C   UNL     1       0.538  10.519  19.078  0.00  0.00    +0.000 A 
ATOM     10  C   UNL     1      -0.045  11.029  20.238  0.00  0.00    +0.000 A 
ATOM     11 CL   UNL     1      -0.652  12.642  20.230  0.00  0.00    +0.000 Cl
ATOM     12  C   UNL     1      -0.080  10.289  21.424  0.00  0.00    +0.000 A 
ATOM     13  C   UNL     1       0.596   9.066  21.533  0.00  0.00    +0.000 A 
ATOM     14  C   UNL     1       1.295   8.642  20.402  0.00  0.00    +0.000 A 
ATOM     15  N   UNL     1       2.168   7.610  20.167  0.00  0.00    +0.000 N 
ATOM     16  H   UNL     1       2.500   6.948  20.850  0.00  0.00    +0.000 HD
ENDBRANCH   5   6
BRANCH   1  21
ATOM     17  F   UNL     1       0.677   2.166  22.370  0.00  0.00    +0.000 F 
ATOM     18  C   UNL     1       1.268   2.880  21.400  0.00  0.00    +0.000 A 
ATOM     19  C   UNL     1       2.431   3.579  21.686  0.00  0.00    +0.000 A 
ATOM     20  C   UNL     1       3.050   4.310  20.678  0.00  0.00    +0.000 A 
ATOM     21  C   UNL     1       2.496   4.375  19.382  0.00  0.00    +0.000 A 
ATOM     22  C   UNL     1       1.325   3.649  19.119  0.00  0.00    +0.000 A 
ATOM     23  C   UNL     1       0.711   2.904  20.128  0.00  0.00    +0.000 A 
ENDBRANCH   1  21
BRANCH   3  24
ATOM     24  C   UNL     1       5.431   5.152  15.650  0.00  0.00    +0.000 A 
ATOM     25  C   UNL     1       4.981   4.382  14.565  0.00  0.00    +0.000 A 
ATOM     26  C   UNL     1       5.865   4.012  13.549  0.00  0.00    +0.000 A 
ATOM     27  C   UNL     1       7.199   4.408  13.608  0.00  0.00    +0.000 A 
ATOM     28  C   UNL     1       7.651   5.181  14.677  0.00  0.00    +0.000 A 
ATOM     29  C   UNL     1       6.772   5.559  15.698  0.00  0.00    +0.000 A 
ENDBRANCH   3  24
TORSDOF 3
ENDMDL
MODEL 5
REMARK VINA RESULT:      -7.9      2.723      7.197
REMARK  Name = 
REMARK  3 active torsions:
REMARK  status: ('A' for Active; 'I' for Inactive)
REMARK    1  A    between atoms: C_5  and  C_6
REMARK    2  A    between atoms: N_8  and  C_9
REMARK    3  A    between atoms: C_16  and  C_17
REMARK                            x       y       z     vdW  Elec       q    Type
REMARK                         _______ _______ _______ _____ _____    ______ ____
ROOT
ATOM      1  C   UNL     1       1.887   6.683  19.970  0.00  0.00    +0.000 A 
ATOM      2  N   UNL     1       1.243   7.668  20.612  0.00  0.00    +0.000 NA
ATOM      3  N   UNL     1       1.386   8.771  19.838  0.00  0.00    +0.000 N 
ATOM      4  C   UNL     1       2.129   8.507  18.706  0.00  0.00    +0.000 A 
ATOM      5  C   UNL     1       2.505   7.188  18.797  0.00  0.00    +0.000 A 
ENDROOT
BRANCH   5   6
ATOM      6  C   UNL     1       3.386   6.459  17.859  0.00  0.00    +0.000 A 
ATOM      7  N   UNL     1       4.297   7.057  17.128  0.00  0.00    +0.000 NA
ATOM      8  C   UNL     1       4.937   6.063  16.442  0.00  0.00    +0.000 A 
ATOM      9  C   UNL     1       5.922   6.159  15.454  0.00  0.00    +0.000 A 
ATOM     10  C   UNL     1       6.402   4.971  14.901  0.00  0.00    +0.000 A 
ATOM     11 CL   UNL     1       7.409   5.045  13.505  0.00  0.00    +0.000 Cl
ATOM     12  C   UNL     1       6.024   3.724  15.409  0.00  0.00    +0.000 A 
ATOM     13  C   UNL     1       5.038   3.616  16.399  0.00  0.00    +0.000 A 
ATOM     14  C   UNL     1       4.466   4.811  16.836  0.00  0.00    +0.000 A 
ATOM     15  N   UNL     1       3.406   5.102  17.658  0.00  0.00    +0.000 N 
ATOM     16  H   UNL     1       2.792   4.432  18.093  0.00  0.00    +0.000 HD
ENDBRANCH   5   6
BRANCH   1  21
ATOM     17  F   UNL     1       1.505   1.429  21.880  0.00  0.00    +0.000 F 
ATOM     18  C   UNL     1       1.600   2.686  21.420  0.00  0.00    +0.000 A 
ATOM     19  C   UNL     1       0.709   3.122  20.451  0.00  0.00    +0.000 A 
ATOM     20  C   UNL     1       0.801   4.429  19.983  0.00  0.00    +0.000 A 
ATOM     21  C   UNL     1       1.803   5.302  20.455  0.00  0.00    +0.000 A 
ATOM     22  C   UNL     1       2.683   4.836  21.444  0.00  0.00    +0.000 A 
ATOM     23  C   UNL     1       2.582   3.529  21.924  0.00  0.00    +0.000 A 
ENDBRANCH   1  21
BRANCH   3  24
ATOM     24  C   UNL     1       0.779   9.998  20.226  0.00  0.00    +0.000 A 
ATOM     25  C   UNL     1       0.266  10.120  21.529  0.00  0.00    +0.000 A 
ATOM     26  C   UNL     1      -0.361  11.301  21.931  0.00  0.00    +0.000 A 
ATOM     27  C   UNL     1      -0.481  12.364  21.040  0.00  0.00    +0.000 A 
ATOM     28  C   UNL     1       0.033  12.254  19.748  0.00  0.00    +0.000 A 
ATOM     29  C   UNL     1       0.666  11.075  19.337  0.00  0.00    +0.000 A 
ENDBRANCH   3  24
TORSDOF 3
ENDMDL
MODEL 6
REMARK VINA RESULT:      -7.9      2.730      7.226
REMARK  Name = 
REMARK  3 active torsions:
REMARK  status: ('A' for Active; 'I' for Inactive)
REMARK    1  A    between atoms: C_5  and  C_6
REMARK    2  A    between atoms: N_8  and  C_9
REMARK    3  A    between atoms: C_16  and  C_17
REMARK                            x       y       z     vdW  Elec       q    Type
REMARK                         _______ _______ _______ _____ _____    ______ ____
ROOT
ATOM      1  C   UNL     1       1.874   6.754  19.909  0.00  0.00    +0.000 A 
ATOM      2  N   UNL     1       1.237   7.756  20.531  0.00  0.00    +0.000 NA
ATOM      3  N   UNL     1       1.398   8.844  19.741  0.00  0.00    +0.000 N 
ATOM      4  C   UNL     1       2.145   8.554  18.618  0.00  0.00    +0.000 A 
ATOM      5  C   UNL     1       2.506   7.233  18.733  0.00  0.00    +0.000 A 
ENDROOT
BRANCH   5   6
ATOM      6  C   UNL     1       3.386   6.479  17.813  0.00  0.00    +0.000 A 
ATOM      7  N   UNL     1       4.266   7.062  17.034  0.00  0.00    +0.000 NA
ATOM      8  C   UNL     1       4.916   6.051  16.384  0.00  0.00    +0.000 A 
ATOM      9  C   UNL     1       5.878   6.121  15.371  0.00  0.00    +0.000 A 
ATOM     10  C   UNL     1       6.376   4.920  14.866  0.00  0.00    +0.000 A 
ATOM     11 CL   UNL     1       7.352   4.948  13.447  0.00  0.00    +0.000 Cl
ATOM     12  C   UNL     1       6.039   3.691  15.443  0.00  0.00    +0.000 A 
ATOM     13  C   UNL     1       5.077   3.608  16.458  0.00  0.00    +0.000 A 
ATOM     14  C   UNL     1       4.485   4.809  16.849  0.00  0.00    +0.000 A 
ATOM     15  N   UNL     1       3.436   5.115  17.678  0.00  0.00    +0.000 N 
ATOM     16  H   UNL     1       2.847   4.453  18.159  0.00  0.00    +0.000 HD
ENDBRANCH   5   6
BRANCH   1  21
ATOM     17  F   UNL     1       1.549   1.486  21.792  0.00  0.00    +0.000 F 
ATOM     18  C   UNL     1       1.623   2.749  21.344  0.00  0.00    +0.000 A 
ATOM     19  C   UNL     1       2.593   3.596  21.860  0.00  0.00    +0.000 A 
ATOM     20  C   UNL     1       2.676   4.901  21.387  0.00  0.00    +0.000 A 
ATOM     21  C   UNL     1       1.772   5.382  20.416  0.00  0.00    +0.000 A 
ATOM     22  C   UNL     1       0.810   4.499  19.905  0.00  0.00    +0.000 A 
ATOM     23  C   UNL     1       0.734   3.184  20.370  0.00  0.00    +0.000 A 
ENDBRANCH   1  21
BRANCH   3  24
ATOM     24  C   UNL     1       0.801  10.084  20.105  0.00  0.00    +0.000 A 
ATOM     25  C   UNL     1       0.775  11.127  19.165  0.00  0.00    +0.000 A 
ATOM     26  C   UNL     1       0.222  12.365  19.502  0.00  0.00    +0.000 A 
ATOM     27  C   UNL     1      -0.306  12.569  20.775  0.00  0.00    +0.000 A 
ATOM     28  C   UNL     1      -0.291  11.535  21.710  0.00  0.00    +0.000 A 
ATOM     29  C   UNL     1       0.258  10.290  21.381  0.00  0.00    +0.000 A 
ENDBRANCH   3  24
TORSDOF 3
ENDMDL
MODEL 7
REMARK VINA RESULT:      -7.7      2.781      7.230
REMARK  Name = 
REMARK  3 active torsions:
REMARK  status: ('A' for Active; 'I' for Inactive)
REMARK    1  A    between atoms: C_5  and  C_6
REMARK    2  A    between atoms: N_8  and  C_9
REMARK    3  A    between atoms: C_16  and  C_17
REMARK                            x       y       z     vdW  Elec       q    Type
REMARK                         _______ _______ _______ _____ _____    ______ ____
ROOT
ATOM      1  C   UNL     1       1.916   6.632  20.006  0.00  0.00    +0.000 A 
ATOM      2  N   UNL     1       1.160   7.572  20.591  0.00  0.00    +0.000 NA
ATOM      3  N   UNL     1       1.380   8.712  19.893  0.00  0.00    +0.000 N 
ATOM      4  C   UNL     1       2.282   8.517  18.868  0.00  0.00    +0.000 A 
ATOM      5  C   UNL     1       2.679   7.203  18.956  0.00  0.00    +0.000 A 
ENDROOT
BRANCH   5   6
ATOM      6  C   UNL     1       3.704   6.538  18.123  0.00  0.00    +0.000 A 
ATOM      7  N   UNL     1       3.887   6.826  16.855  0.00  0.00    +0.000 NA
ATOM      8  C   UNL     1       4.941   6.058  16.447  0.00  0.00    +0.000 A 
ATOM      9  C   UNL     1       5.485   5.905  15.167  0.00  0.00    +0.000 A 
ATOM     10  C   UNL     1       6.566   5.037  15.023  0.00  0.00    +0.000 A 
ATOM     11 CL   UNL     1       7.093   4.612  13.438  0.00  0.00    +0.000 Cl
ATOM     12  C   UNL     1       7.182   4.447  16.132  0.00  0.00    +0.000 A 
ATOM     13  C   UNL     1       6.647   4.592  17.418  0.00  0.00    +0.000 A 
ATOM     14  C   UNL     1       5.478   5.349  17.521  0.00  0.00    +0.000 A 
ATOM     15  N   UNL     1       4.602   5.593  18.547  0.00  0.00    +0.000 N 
ATOM     16  H   UNL     1       4.650   5.199  19.474  0.00  0.00    +0.000 HD
ENDBRANCH   5   6
BRANCH   1  21
ATOM     17  F   UNL     1       1.566   1.252  21.534  0.00  0.00    +0.000 F 
ATOM     18  C   UNL     1       1.646   2.541  21.170  0.00  0.00    +0.000 A 
ATOM     19  C   UNL     1       2.397   3.418  21.938  0.00  0.00    +0.000 A 
ATOM     20  C   UNL     1       2.488   4.751  21.554  0.00  0.00    +0.000 A 
ATOM     21  C   UNL     1       1.804   5.228  20.416  0.00  0.00    +0.000 A 
ATOM     22  C   UNL     1       1.061   4.316  19.652  0.00  0.00    +0.000 A 
ATOM     23  C   UNL     1       0.981   2.974  20.030  0.00  0.00    +0.000 A 
ENDBRANCH   1  21
BRANCH   3  24
ATOM     24  C   UNL     1       0.689   9.906  20.243  0.00  0.00    +0.000 A 
ATOM     25  C   UNL     1       0.287  10.092  21.576  0.00  0.00    +0.000 A 
ATOM     26  C   UNL     1      -0.418  11.240  21.946  0.00  0.00    +0.000 A 
ATOM     27  C   UNL     1      -0.725  12.206  20.990  0.00  0.00    +0.000 A 
ATOM     28  C   UNL     1      -0.321  12.032  19.667  0.00  0.00    +0.000 A 
ATOM     29  C   UNL     1       0.389  10.887  19.288  0.00  0.00    +0.000 A 
ENDBRANCH   3  24
TORSDOF 3
ENDMDL
MODEL 8
REMARK VINA RESULT:      -7.7      2.794      7.180
REMARK  Name = 
REMARK  3 active torsions:
REMARK  status: ('A' for Active; 'I' for Inactive)
REMARK    1  A    between atoms: C_5  and  C_6
REMARK    2  A    between atoms: N_8  and  C_9
REMARK    3  A    between atoms: C_16  and  C_17
REMARK                            x       y       z     vdW  Elec       q    Type
REMARK                         _______ _______ _______ _____ _____    ______ ____
ROOT
ATOM      1  C   UNL     1       1.941   6.649  20.026  0.00  0.00    +0.000 A 
ATOM      2  N   UNL     1       1.177   7.591  20.597  0.00  0.00    +0.000 NA
ATOM      3  N   UNL     1       1.383   8.721  19.880  0.00  0.00    +0.000 N 
ATOM      4  C   UNL     1       2.286   8.519  18.856  0.00  0.00    +0.000 A 
ATOM      5  C   UNL     1       2.697   7.212  18.965  0.00  0.00    +0.000 A 
ENDROOT
BRANCH   5   6
ATOM      6  C   UNL     1       3.727   6.543  18.141  0.00  0.00    +0.000 A 
ATOM      7  N   UNL     1       3.880   6.785  16.860  0.00  0.00    +0.000 NA
ATOM      8  C   UNL     1       4.950   6.032  16.464  0.00  0.00    +0.000 A 
ATOM      9  C   UNL     1       5.477   5.844  15.181  0.00  0.00    +0.000 A 
ATOM     10  C   UNL     1       6.582   5.003  15.053  0.00  0.00    +0.000 A 
ATOM     11 CL   UNL     1       7.095   4.530  13.477  0.00  0.00    +0.000 Cl
ATOM     12  C   UNL     1       7.234   4.477  16.173  0.00  0.00    +0.000 A 
ATOM     13  C   UNL     1       6.716   4.659  17.462  0.00  0.00    +0.000 A 
ATOM     14  C   UNL     1       5.527   5.384  17.555  0.00  0.00    +0.000 A 
ATOM     15  N   UNL     1       4.661   5.643  18.587  0.00  0.00    +0.000 N 
ATOM     16  H   UNL     1       4.736   5.289  19.527  0.00  0.00    +0.000 HD
ENDBRANCH   5   6
BRANCH   1  21
ATOM     17  F   UNL     1       1.499   1.326  21.721  0.00  0.00    +0.000 F 
ATOM     18  C   UNL     1       1.609   2.600  21.313  0.00  0.00    +0.000 A 
ATOM     19  C   UNL     1       0.899   3.019  20.198  0.00  0.00    +0.000 A 
ATOM     20  C   UNL     1       1.005   4.342  19.783  0.00  0.00    +0.000 A 
ATOM     21  C   UNL     1       1.845   5.251  20.458  0.00  0.00    +0.000 A 
ATOM     22  C   UNL     1       2.543   4.802  21.589  0.00  0.00    +0.000 A 
ATOM     23  C   UNL     1       2.427   3.477  22.015  0.00  0.00    +0.000 A 
ENDBRANCH   1  21
BRANCH   3  24
ATOM     24  C   UNL     1       0.681   9.914  20.212  0.00  0.00    +0.000 A 
ATOM     25  C   UNL     1       0.358  10.819  19.187  0.00  0.00    +0.000 A 
ATOM     26  C   UNL     1      -0.306  12.012  19.485  0.00  0.00    +0.000 A 
ATOM     27  C   UNL     1      -0.651  12.307  20.801  0.00  0.00    +0.000 A 
ATOM     28  C   UNL     1      -0.342  11.408  21.822  0.00  0.00    +0.000 A 
ATOM     29  C   UNL     1       0.320  10.210  21.534  0.00  0.00    +0.000 A 
ENDBRANCH   3  24
TORSDOF 3
ENDMDL
MODEL 9
REMARK VINA RESULT:      -7.5      5.103      8.859
REMARK  Name = 
REMARK  3 active torsions:
REMARK  status: ('A' for Active; 'I' for Inactive)
REMARK    1  A    between atoms: C_5  and  C_6
REMARK    2  A    between atoms: N_8  and  C_9
REMARK    3  A    between atoms: C_16  and  C_17
REMARK                            x       y       z     vdW  Elec       q    Type
REMARK                         _______ _______ _______ _____ _____    ______ ____
ROOT
ATOM      1  C   UNL     1      -0.168  10.770  19.030  0.00  0.00    +0.000 A 
ATOM      2  N   UNL     1      -1.485  10.541  18.929  0.00  0.00    +0.000 NA
ATOM      3  N   UNL     1      -2.063  11.756  18.776  0.00  0.00    +0.000 N 
ATOM      4  C   UNL     1      -1.128  12.771  18.791  0.00  0.00    +0.000 A 
ATOM      5  C   UNL     1       0.087  12.166  19.007  0.00  0.00    +0.000 A 
ENDROOT
BRANCH   5   6
ATOM      6  C   UNL     1       1.388  12.846  19.186  0.00  0.00    +0.000 A 
ATOM      7  N   UNL     1       2.074  13.344  18.184  0.00  0.00    +0.000 NA
ATOM      8  C   UNL     1       3.174  13.932  18.742  0.00  0.00    +0.000 A 
ATOM      9  C   UNL     1       4.278  14.523  18.117  0.00  0.00    +0.000 A 
ATOM     10  C   UNL     1       5.282  15.044  18.933  0.00  0.00    +0.000 A 
ATOM     11 CL   UNL     1       6.771  15.535  18.219  0.00  0.00    +0.000 Cl
ATOM     12  C   UNL     1       5.134  15.107  20.322  0.00  0.00    +0.000 A 
ATOM     13  C   UNL     1       4.034  14.518  20.960  0.00  0.00    +0.000 A 
ATOM     14  C   UNL     1       3.111  13.874  20.134  0.00  0.00    +0.000 A 
ATOM     15  N   UNL     1       2.019  13.083  20.380  0.00  0.00    +0.000 N 
ATOM     16  H   UNL     1       1.695  12.785  21.287  0.00  0.00    +0.000 HD
ENDBRANCH   5   6
BRANCH   1  21
ATOM     17  F   UNL     1       3.397   6.448  19.083  0.00  0.00    +0.000 F 
ATOM     18  C   UNL     1       2.546   7.485  19.073  0.00  0.00    +0.000 A 
ATOM     19  C   UNL     1       2.355   8.193  17.896  0.00  0.00    +0.000 A 
ATOM     20  C   UNL     1       1.465   9.262  17.883  0.00  0.00    +0.000 A 
ATOM     21  C   UNL     1       0.781   9.653  19.053  0.00  0.00    +0.000 A 
ATOM     22  C   UNL     1       0.986   8.911  20.226  0.00  0.00    +0.000 A 
ATOM     23  C   UNL     1       1.870   7.830  20.236  0.00  0.00    +0.000 A 
ENDBRANCH   1  21
BRANCH   3  24
ATOM     24  C   UNL     1      -3.472  11.859  18.602  0.00  0.00    +0.000 A 
ATOM     25  C   UNL     1      -4.033  11.479  17.371  0.00  0.00    +0.000 A 
ATOM     26  C   UNL     1      -5.409  11.595  17.159  0.00  0.00    +0.000 A 
ATOM     27  C   UNL     1      -6.230  12.088  18.170  0.00  0.00    +0.000 A 
ATOM     28  C   UNL     1      -5.681  12.459  19.397  0.00  0.00    +0.000 A 
ATOM     29  C   UNL     1      -4.304  12.343  19.620  0.00  0.00    +0.000 A 
ENDBRANCH   3  24
TORSDOF 3
ENDMDL
