MODEL 1
REMARK VINA RESULT:      -7.0      0.000      0.000
REMARK  Name = 
REMARK  9 active torsions:
REMARK  status: ('A' for Active; 'I' for Inactive)
REMARK    1  A    between atoms: C_1  and  C_2
REMARK    2  A    between atoms: C_2  and  C_3
REMARK    3  A    between atoms: C_2  and  C_4
REMARK    4  A    between atoms: C_4  and  C_5
REMARK    5  A    between atoms: C_5  and  O_6
REMARK    6  A    between atoms: C_5  and  C_7
REMARK    7  A    between atoms: C_7  and  N_8
REMARK    8  A    between atoms: C_9  and  C_11
REMARK    9  A    between atoms: C_16  and  O_17
REMARK                            x       y       z     vdW  Elec       q    Type
REMARK                         _______ _______ _______ _____ _____    ______ ____
ROOT
ATOM      1  N   UNL     1       4.528   4.050  17.287  0.00  0.00    +0.000 N 
ATOM      2  C   UNL     1       3.259   3.572  17.507  0.00  0.00    +0.000 C 
ATOM      3  O   UNL     1       2.496   3.258  16.598  0.00  0.00    +0.000 OA
ATOM      4  H   UNL     1       5.092   4.298  18.097  0.00  0.00    +0.000 HD
ENDROOT
BRANCH   2   5
ATOM      5  C   UNL     1       2.835   3.392  18.931  0.00  0.00    +0.000 A 
ATOM      6  C   UNL     1       1.573   3.900  19.281  0.00  0.00    +0.000 A 
ATOM      7  C   UNL     1       1.082   3.760  20.580  0.00  0.00    +0.000 A 
ATOM      8  C   UNL     1       1.852   3.122  21.548  0.00  0.00    +0.000 A 
ATOM      9  C   UNL     1       3.115   2.626  21.220  0.00  0.00    +0.000 A 
ATOM     10  C   UNL     1       3.604   2.758  19.915  0.00  0.00    +0.000 A 
BRANCH  10  11
ATOM     11  O   UNL     1       4.847   2.258  19.625  0.00  0.00    +0.000 OA
ATOM     12  H   UNL     1       4.842   1.298  19.776  0.00  0.00    +0.000 HD
ENDBRANCH  10  11
ENDBRANCH   2   5
BRANCH   1  13
ATOM     13  C   UNL     1       5.116   4.153  15.961  0.00  0.00    +0.000 C 
BRANCH  13  14
ATOM     14  C   UNL     1       6.085   5.347  15.848  0.00  0.00    +0.000 C 
BRANCH  14  15
ATOM     15  O   UNL     1       7.408   4.872  15.565  0.00  0.00    +0.000 OA
ATOM     16  H   UNL     1       8.028   5.371  16.127  0.00  0.00    +0.000 HD
ENDBRANCH  14  15
BRANCH  14  17
ATOM     17  C   UNL     1       6.106   6.177  17.147  0.00  0.00    +0.000 C 
BRANCH  17  19
ATOM     18  C   UNL     1       7.748   8.052  17.670  0.00  0.00    +0.000 C 
ATOM     19  C   UNL     1       7.522   6.540  17.651  0.00  0.00    +0.000 C 
ATOM     20  C   UNL     1       7.765   5.978  19.057  0.00  0.00    +0.000 C 
ENDBRANCH  17  19
ENDBRANCH  14  17
ENDBRANCH  13  14
ENDBRANCH   1  13
TORSDOF 7
ENDMDL
MODEL 2
REMARK VINA RESULT:      -7.0      2.187      3.584
REMARK  Name = 
REMARK  9 active torsions:
REMARK  status: ('A' for Active; 'I' for Inactive)
REMARK    1  A    between atoms: C_1  and  C_2
REMARK    2  A    between atoms: C_2  and  C_3
REMARK    3  A    between atoms: C_2  and  C_4
REMARK    4  A    between atoms: C_4  and  C_5
REMARK    5  A    between atoms: C_5  and  O_6
REMARK    6  A    between atoms: C_5  and  C_7
REMARK    7  A    between atoms: C_7  and  N_8
REMARK    8  A    between atoms: C_9  and  C_11
REMARK    9  A    between atoms: C_16  and  O_17
REMARK                            x       y       z     vdW  Elec       q    Type
REMARK                         _______ _______ _______ _____ _____    ______ ____
ROOT
ATOM      1  N   UNL     1       5.868   3.837  16.925  0.00  0.00    +0.000 N 
ATOM      2  C   UNL     1       4.974   4.597  17.639  0.00  0.00    +0.000 C 
ATOM      3  O   UNL     1       5.100   5.809  17.793  0.00  0.00    +0.000 OA
ATOM      4  H   UNL     1       5.694   2.836  16.855  0.00  0.00    +0.000 HD
ENDROOT
BRANCH   2   5
ATOM      5  C   UNL     1       3.778   3.896  18.203  0.00  0.00    +0.000 A 
ATOM      6  C   UNL     1       2.520   4.343  17.764  0.00  0.00    +0.000 A 
ATOM      7  C   UNL     1       1.348   3.736  18.216  0.00  0.00    +0.000 A 
ATOM      8  C   UNL     1       1.419   2.683  19.125  0.00  0.00    +0.000 A 
ATOM      9  C   UNL     1       2.659   2.238  19.583  0.00  0.00    +0.000 A 
ATOM     10  C   UNL     1       3.836   2.840  19.122  0.00  0.00    +0.000 A 
BRANCH  10  11
ATOM     11  O   UNL     1       5.039   2.378  19.589  0.00  0.00    +0.000 OA
ATOM     12  H   UNL     1       5.325   1.633  19.035  0.00  0.00    +0.000 HD
ENDBRANCH  10  11
ENDBRANCH   2   5
BRANCH   1  13
ATOM     13  C   UNL     1       7.002   4.406  16.216  0.00  0.00    +0.000 C 
BRANCH  13  14
ATOM     14  C   UNL     1       6.619   4.890  14.803  0.00  0.00    +0.000 C 
BRANCH  14  15
ATOM     15  O   UNL     1       5.975   6.169  14.887  0.00  0.00    +0.000 OA
ATOM     16  H   UNL     1       5.031   6.013  15.070  0.00  0.00    +0.000 HD
ENDBRANCH  14  15
BRANCH  14  17
ATOM     17  C   UNL     1       5.679   3.889  14.103  0.00  0.00    +0.000 C 
BRANCH  17  19
ATOM     18  C   UNL     1       5.001   3.253  11.732  0.00  0.00    +0.000 C 
ATOM     19  C   UNL     1       6.163   3.424  12.710  0.00  0.00    +0.000 C 
ATOM     20  C   UNL     1       7.174   4.415  12.121  0.00  0.00    +0.000 C 
ENDBRANCH  17  19
ENDBRANCH  14  17
ENDBRANCH  13  14
ENDBRANCH   1  13
TORSDOF 7
ENDMDL
MODEL 3
REMARK VINA RESULT:      -7.0      1.146      1.722
REMARK  Name = 
REMARK  9 active torsions:
REMARK  status: ('A' for Active; 'I' for Inactive)
REMARK    1  A    between atoms: C_1  and  C_2
REMARK    2  A    between atoms: C_2  and  C_3
REMARK    3  A    between atoms: C_2  and  C_4
REMARK    4  A    between atoms: C_4  and  C_5
REMARK    5  A    between atoms: C_5  and  O_6
REMARK    6  A    between atoms: C_5  and  C_7
REMARK    7  A    between atoms: C_7  and  N_8
REMARK    8  A    between atoms: C_9  and  C_11
REMARK    9  A    between atoms: C_16  and  O_17
REMARK                            x       y       z     vdW  Elec       q    Type
REMARK                         _______ _______ _______ _____ _____    ______ ____
ROOT
ATOM      1  N   UNL     1       4.616   3.879  17.144  0.00  0.00    +0.000 N 
ATOM      2  C   UNL     1       4.521   3.711  18.504  0.00  0.00    +0.000 C 
ATOM      3  O   UNL     1       5.498   3.725  19.249  0.00  0.00    +0.000 OA
ATOM      4  H   UNL     1       3.758   3.842  16.598  0.00  0.00    +0.000 HD
ENDROOT
BRANCH   2   5
ATOM      5  C   UNL     1       3.149   3.555  19.079  0.00  0.00    +0.000 A 
ATOM      6  C   UNL     1       2.807   4.413  20.137  0.00  0.00    +0.000 A 
ATOM      7  C   UNL     1       1.541   4.357  20.723  0.00  0.00    +0.000 A 
ATOM      8  C   UNL     1       0.606   3.432  20.266  0.00  0.00    +0.000 A 
ATOM      9  C   UNL     1       0.936   2.561  19.227  0.00  0.00    +0.000 A 
ATOM     10  C   UNL     1       2.202   2.623  18.632  0.00  0.00    +0.000 A 
BRANCH  10  11
ATOM     11  O   UNL     1       2.493   1.756  17.612  0.00  0.00    +0.000 OA
ATOM     12  H   UNL     1       2.613   2.264  16.793  0.00  0.00    +0.000 HD
ENDBRANCH  10  11
ENDBRANCH   2   5
BRANCH   1  13
ATOM     13  C   UNL     1       5.870   4.169  16.467  0.00  0.00    +0.000 C 
BRANCH  13  14
ATOM     14  C   UNL     1       5.916   5.612  15.927  0.00  0.00    +0.000 C 
BRANCH  14  15
ATOM     15  O   UNL     1       7.015   5.753  15.015  0.00  0.00    +0.000 OA
ATOM     16  H   UNL     1       6.710   6.299  14.268  0.00  0.00    +0.000 HD
ENDBRANCH  14  15
BRANCH  14  17
ATOM     17  C   UNL     1       6.065   6.635  17.070  0.00  0.00    +0.000 C 
BRANCH  17  19
ATOM     18  C   UNL     1       7.809   8.402  17.639  0.00  0.00    +0.000 C 
ATOM     19  C   UNL     1       7.525   6.906  17.500  0.00  0.00    +0.000 C 
ATOM     20  C   UNL     1       7.844   6.209  18.828  0.00  0.00    +0.000 C 
ENDBRANCH  17  19
ENDBRANCH  14  17
ENDBRANCH  13  14
ENDBRANCH   1  13
TORSDOF 7
ENDMDL
MODEL 4
REMARK VINA RESULT:      -6.9      2.224      5.936
REMARK  Name = 
REMARK  9 active torsions:
REMARK  status: ('A' for Active; 'I' for Inactive)
REMARK    1  A    between atoms: C_1  and  C_2
REMARK    2  A    between atoms: C_2  and  C_3
REMARK    3  A    between atoms: C_2  and  C_4
REMARK    4  A    between atoms: C_4  and  C_5
REMARK    5  A    between atoms: C_5  and  O_6
REMARK    6  A    between atoms: C_5  and  C_7
REMARK    7  A    between atoms: C_7  and  N_8
REMARK    8  A    between atoms: C_9  and  C_11
REMARK    9  A    between atoms: C_16  and  O_17
REMARK                            x       y       z     vdW  Elec       q    Type
REMARK                         _______ _______ _______ _____ _____    ______ ____
ROOT
ATOM      1  N   UNL     1       4.772   2.945  18.963  0.00  0.00    +0.000 N 
ATOM      2  C   UNL     1       5.554   4.058  18.768  0.00  0.00    +0.000 C 
ATOM      3  O   UNL     1       5.992   4.737  19.693  0.00  0.00    +0.000 OA
ATOM      4  H   UNL     1       4.441   2.446  18.140  0.00  0.00    +0.000 HD
ENDROOT
BRANCH   2   5
ATOM      5  C   UNL     1       5.910   4.404  17.357  0.00  0.00    +0.000 A 
ATOM      6  C   UNL     1       4.844   4.718  16.497  0.00  0.00    +0.000 A 
ATOM      7  C   UNL     1       5.079   5.076  15.168  0.00  0.00    +0.000 A 
ATOM      8  C   UNL     1       6.383   5.111  14.680  0.00  0.00    +0.000 A 
ATOM      9  C   UNL     1       7.451   4.787  15.517  0.00  0.00    +0.000 A 
ATOM     10  C   UNL     1       7.217   4.437  16.852  0.00  0.00    +0.000 A 
BRANCH  10  11
ATOM     11  O   UNL     1       8.288   4.127  17.649  0.00  0.00    +0.000 OA
ATOM     12  H   UNL     1       8.399   3.162  17.662  0.00  0.00    +0.000 HD
ENDBRANCH  10  11
ENDBRANCH   2   5
BRANCH   1  13
ATOM     13  C   UNL     1       4.456   2.420  20.281  0.00  0.00    +0.000 C 
BRANCH  13  14
ATOM     14  C   UNL     1       3.102   2.941  20.803  0.00  0.00    +0.000 C 
BRANCH  14  15
ATOM     15  O   UNL     1       2.792   2.315  22.055  0.00  0.00    +0.000 OA
ATOM     16  H   UNL     1       2.784   3.009  22.739  0.00  0.00    +0.000 HD
ENDBRANCH  14  15
BRANCH  14  17
ATOM     17  C   UNL     1       1.968   2.663  19.796  0.00  0.00    +0.000 C 
BRANCH  17  19
ATOM     18  C   UNL     1       1.605   5.163  20.118  0.00  0.00    +0.000 C 
ATOM     19  C   UNL     1       1.227   3.927  19.301  0.00  0.00    +0.000 C 
ATOM     20  C   UNL     1       1.525   4.192  17.821  0.00  0.00    +0.000 C 
ENDBRANCH  17  19
ENDBRANCH  14  17
ENDBRANCH  13  14
ENDBRANCH   1  13
TORSDOF 7
ENDMDL
MODEL 5
REMARK VINA RESULT:      -6.9      1.201      1.222
REMARK  Name = 
REMARK  9 active torsions:
REMARK  status: ('A' for Active; 'I' for Inactive)
REMARK    1  A    between atoms: C_1  and  C_2
REMARK    2  A    between atoms: C_2  and  C_3
REMARK    3  A    between atoms: C_2  and  C_4
REMARK    4  A    between atoms: C_4  and  C_5
REMARK    5  A    between atoms: C_5  and  O_6
REMARK    6  A    between atoms: C_5  and  C_7
REMARK    7  A    between atoms: C_7  and  N_8
REMARK    8  A    between atoms: C_9  and  C_11
REMARK    9  A    between atoms: C_16  and  O_17
REMARK                            x       y       z     vdW  Elec       q    Type
REMARK                         _______ _______ _______ _____ _____    ______ ____
ROOT
ATOM      1  N   UNL     1       4.697   4.198  16.860  0.00  0.00    +0.000 N 
ATOM      2  C   UNL     1       3.901   4.970  17.671  0.00  0.00    +0.000 C 
ATOM      3  O   UNL     1       3.705   6.166  17.472  0.00  0.00    +0.000 OA
ATOM      4  H   UNL     1       4.816   3.217  17.103  0.00  0.00    +0.000 HD
ENDROOT
BRANCH   2   5
ATOM      5  C   UNL     1       3.218   4.284  18.811  0.00  0.00    +0.000 A 
ATOM      6  C   UNL     1       1.942   4.759  19.160  0.00  0.00    +0.000 A 
ATOM      7  C   UNL     1       1.218   4.167  20.196  0.00  0.00    +0.000 A 
ATOM      8  C   UNL     1       1.766   3.102  20.905  0.00  0.00    +0.000 A 
ATOM      9  C   UNL     1       3.039   2.629  20.582  0.00  0.00    +0.000 A 
ATOM     10  C   UNL     1       3.762   3.215  19.536  0.00  0.00    +0.000 A 
BRANCH  10  11
ATOM     11  O   UNL     1       5.008   2.726  19.242  0.00  0.00    +0.000 OA
ATOM     12  H   UNL     1       5.611   3.474  19.095  0.00  0.00    +0.000 HD
ENDBRANCH  10  11
ENDBRANCH   2   5
BRANCH   1  13
ATOM     13  C   UNL     1       5.317   4.704  15.646  0.00  0.00    +0.000 C 
BRANCH  13  14
ATOM     14  C   UNL     1       6.691   5.347  15.922  0.00  0.00    +0.000 C 
BRANCH  14  15
ATOM     15  O   UNL     1       7.543   5.176  14.781  0.00  0.00    +0.000 OA
ATOM     16  H   UNL     1       8.465   5.172  15.099  0.00  0.00    +0.000 HD
ENDBRANCH  14  15
BRANCH  14  17
ATOM     17  C   UNL     1       7.363   4.724  17.162  0.00  0.00    +0.000 C 
BRANCH  17  19
ATOM     18  C   UNL     1       7.592   7.184  17.779  0.00  0.00    +0.000 C 
ATOM     19  C   UNL     1       7.737   5.742  18.264  0.00  0.00    +0.000 C 
ATOM     20  C   UNL     1       6.870   5.541  19.512  0.00  0.00    +0.000 C 
ENDBRANCH  17  19
ENDBRANCH  14  17
ENDBRANCH  13  14
ENDBRANCH   1  13
TORSDOF 7
ENDMDL
MODEL 6
REMARK VINA RESULT:      -6.9      1.518      1.895
REMARK  Name = 
REMARK  9 active torsions:
REMARK  status: ('A' for Active; 'I' for Inactive)
REMARK    1  A    between atoms: C_1  and  C_2
REMARK    2  A    between atoms: C_2  and  C_3
REMARK    3  A    between atoms: C_2  and  C_4
REMARK    4  A    between atoms: C_4  and  C_5
REMARK    5  A    between atoms: C_5  and  O_6
REMARK    6  A    between atoms: C_5  and  C_7
REMARK    7  A    between atoms: C_7  and  N_8
REMARK    8  A    between atoms: C_9  and  C_11
REMARK    9  A    between atoms: C_16  and  O_17
REMARK                            x       y       z     vdW  Elec       q    Type
REMARK                         _______ _______ _______ _____ _____    ______ ____
ROOT
ATOM      1  N   UNL     1       4.782   4.001  17.109  0.00  0.00    +0.000 N 
ATOM      2  C   UNL     1       4.677   3.788  18.462  0.00  0.00    +0.000 C 
ATOM      3  O   UNL     1       5.653   3.657  19.195  0.00  0.00    +0.000 OA
ATOM      4  H   UNL     1       3.922   4.087  16.571  0.00  0.00    +0.000 HD
ENDROOT
BRANCH   2   5
ATOM      5  C   UNL     1       3.300   3.766  19.045  0.00  0.00    +0.000 A 
ATOM      6  C   UNL     1       2.515   2.634  18.767  0.00  0.00    +0.000 A 
ATOM      7  C   UNL     1       1.225   2.514  19.286  0.00  0.00    +0.000 A 
ATOM      8  C   UNL     1       0.698   3.530  20.078  0.00  0.00    +0.000 A 
ATOM      9  C   UNL     1       1.458   4.668  20.349  0.00  0.00    +0.000 A 
ATOM     10  C   UNL     1       2.756   4.786  19.838  0.00  0.00    +0.000 A 
BRANCH  10  11
ATOM     11  O   UNL     1       3.477   5.915  20.125  0.00  0.00    +0.000 OA
ATOM     12  H   UNL     1       4.206   5.992  19.487  0.00  0.00    +0.000 HD
ENDBRANCH  10  11
ENDBRANCH   2   5
BRANCH   1  13
ATOM     13  C   UNL     1       6.057   4.173  16.431  0.00  0.00    +0.000 C 
BRANCH  13  14
ATOM     14  C   UNL     1       6.218   5.592  15.851  0.00  0.00    +0.000 C 
BRANCH  14  15
ATOM     15  O   UNL     1       7.445   5.678  15.113  0.00  0.00    +0.000 OA
ATOM     16  H   UNL     1       7.394   5.039  14.379  0.00  0.00    +0.000 HD
ENDBRANCH  14  15
BRANCH  14  17
ATOM     17  C   UNL     1       6.215   6.658  16.966  0.00  0.00    +0.000 C 
BRANCH  17  19
ATOM     18  C   UNL     1       7.767   8.541  17.694  0.00  0.00    +0.000 C 
ATOM     19  C   UNL     1       7.619   7.033  17.495  0.00  0.00    +0.000 C 
ATOM     20  C   UNL     1       7.914   6.320  18.820  0.00  0.00    +0.000 C 
ENDBRANCH  17  19
ENDBRANCH  14  17
ENDBRANCH  13  14
ENDBRANCH   1  13
TORSDOF 7
ENDMDL
MODEL 7
REMARK VINA RESULT:      -6.8      2.114      3.521
REMARK  Name = 
REMARK  9 active torsions:
REMARK  status: ('A' for Active; 'I' for Inactive)
REMARK    1  A    between atoms: C_1  and  C_2
REMARK    2  A    between atoms: C_2  and  C_3
REMARK    3  A    between atoms: C_2  and  C_4
REMARK    4  A    between atoms: C_4  and  C_5
REMARK    5  A    between atoms: C_5  and  O_6
REMARK    6  A    between atoms: C_5  and  C_7
REMARK    7  A    between atoms: C_7  and  N_8
REMARK    8  A    between atoms: C_9  and  C_11
REMARK    9  A    between atoms: C_16  and  O_17
REMARK                            x       y       z     vdW  Elec       q    Type
REMARK                         _______ _______ _______ _____ _____    ______ ____
ROOT
ATOM      1  N   UNL     1       5.407   3.869  17.064  0.00  0.00    +0.000 N 
ATOM      2  C   UNL     1       5.108   3.968  18.401  0.00  0.00    +0.000 C 
ATOM      3  O   UNL     1       5.904   4.392  19.235  0.00  0.00    +0.000 OA
ATOM      4  H   UNL     1       4.693   3.497  16.442  0.00  0.00    +0.000 HD
ENDROOT
BRANCH   2   5
ATOM      5  C   UNL     1       3.726   3.580  18.822  0.00  0.00    +0.000 A 
ATOM      6  C   UNL     1       2.935   4.590  19.396  0.00  0.00    +0.000 A 
ATOM      7  C   UNL     1       1.624   4.328  19.799  0.00  0.00    +0.000 A 
ATOM      8  C   UNL     1       1.093   3.051  19.647  0.00  0.00    +0.000 A 
ATOM      9  C   UNL     1       1.871   2.033  19.093  0.00  0.00    +0.000 A 
ATOM     10  C   UNL     1       3.183   2.296  18.679  0.00  0.00    +0.000 A 
BRANCH  10  11
ATOM     11  O   UNL     1       3.920   1.276  18.138  0.00  0.00    +0.000 OA
ATOM     12  H   UNL     1       4.802   1.277  18.544  0.00  0.00    +0.000 HD
ENDBRANCH  10  11
ENDBRANCH   2   5
BRANCH   1  13
ATOM     13  C   UNL     1       6.664   4.331  16.498  0.00  0.00    +0.000 C 
BRANCH  13  14
ATOM     14  C   UNL     1       6.477   4.943  15.095  0.00  0.00    +0.000 C 
BRANCH  14  15
ATOM     15  O   UNL     1       5.962   6.276  15.212  0.00  0.00    +0.000 OA
ATOM     16  H   UNL     1       5.004   6.240  15.033  0.00  0.00    +0.000 HD
ENDBRANCH  14  15
BRANCH  14  17
ATOM     17  C   UNL     1       5.516   4.096  14.237  0.00  0.00    +0.000 C 
BRANCH  17  19
ATOM     18  C   UNL     1       5.086   3.284  11.862  0.00  0.00    +0.000 C 
ATOM     19  C   UNL     1       6.142   3.536  12.939  0.00  0.00    +0.000 C 
ATOM     20  C   UNL     1       7.205   4.492  12.386  0.00  0.00    +0.000 C 
ENDBRANCH  17  19
ENDBRANCH  14  17
ENDBRANCH  13  14
ENDBRANCH   1  13
TORSDOF 7
ENDMDL
MODEL 8
REMARK VINA RESULT:      -6.8      1.795      1.938
REMARK  Name = 
REMARK  9 active torsions:
REMARK  status: ('A' for Active; 'I' for Inactive)
REMARK    1  A    between atoms: C_1  and  C_2
REMARK    2  A    between atoms: C_2  and  C_3
REMARK    3  A    between atoms: C_2  and  C_4
REMARK    4  A    between atoms: C_4  and  C_5
REMARK    5  A    between atoms: C_5  and  O_6
REMARK    6  A    between atoms: C_5  and  C_7
REMARK    7  A    between atoms: C_7  and  N_8
REMARK    8  A    between atoms: C_9  and  C_11
REMARK    9  A    between atoms: C_16  and  O_17
REMARK                            x       y       z     vdW  Elec       q    Type
REMARK                         _______ _______ _______ _____ _____    ______ ____
ROOT
ATOM      1  N   UNL     1       4.533   4.085  16.568  0.00  0.00    +0.000 N 
ATOM      2  C   UNL     1       3.806   5.009  17.279  0.00  0.00    +0.000 C 
ATOM      3  O   UNL     1       3.894   6.219  17.087  0.00  0.00    +0.000 OA
ATOM      4  H   UNL     1       4.409   3.101  16.798  0.00  0.00    +0.000 HD
ENDROOT
BRANCH   2   5
ATOM      5  C   UNL     1       2.839   4.484  18.292  0.00  0.00    +0.000 A 
ATOM      6  C   UNL     1       2.073   3.369  17.914  0.00  0.00    +0.000 A 
ATOM      7  C   UNL     1       1.161   2.795  18.800  0.00  0.00    +0.000 A 
ATOM      8  C   UNL     1       0.993   3.337  20.071  0.00  0.00    +0.000 A 
ATOM      9  C   UNL     1       1.734   4.455  20.456  0.00  0.00    +0.000 A 
ATOM     10  C   UNL     1       2.657   5.026  19.572  0.00  0.00    +0.000 A 
BRANCH  10  11
ATOM     11  O   UNL     1       3.371   6.121  19.981  0.00  0.00    +0.000 OA
ATOM     12  H   UNL     1       4.239   6.111  19.545  0.00  0.00    +0.000 HD
ENDBRANCH  10  11
ENDBRANCH   2   5
BRANCH   1  13
ATOM     13  C   UNL     1       5.413   4.446  15.468  0.00  0.00    +0.000 C 
BRANCH  13  14
ATOM     14  C   UNL     1       6.636   5.254  15.945  0.00  0.00    +0.000 C 
BRANCH  14  15
ATOM     15  O   UNL     1       7.590   5.363  14.880  0.00  0.00    +0.000 OA
ATOM     16  H   UNL     1       7.400   6.188  14.396  0.00  0.00    +0.000 HD
ENDBRANCH  14  15
BRANCH  14  17
ATOM     17  C   UNL     1       7.305   4.591  17.166  0.00  0.00    +0.000 C 
BRANCH  17  19
ATOM     18  C   UNL     1       7.615   7.024  17.852  0.00  0.00    +0.000 C 
ATOM     19  C   UNL     1       7.649   5.567  18.315  0.00  0.00    +0.000 C 
ATOM     20  C   UNL     1       6.682   5.392  19.492  0.00  0.00    +0.000 C 
ENDBRANCH  17  19
ENDBRANCH  14  17
ENDBRANCH  13  14
ENDBRANCH   1  13
TORSDOF 7
ENDMDL
MODEL 9
REMARK VINA RESULT:      -6.8      1.645      5.756
REMARK  Name = 
REMARK  9 active torsions:
REMARK  status: ('A' for Active; 'I' for Inactive)
REMARK    1  A    between atoms: C_1  and  C_2
REMARK    2  A    between atoms: C_2  and  C_3
REMARK    3  A    between atoms: C_2  and  C_4
REMARK    4  A    between atoms: C_4  and  C_5
REMARK    5  A    between atoms: C_5  and  O_6
REMARK    6  A    between atoms: C_5  and  C_7
REMARK    7  A    between atoms: C_7  and  N_8
REMARK    8  A    between atoms: C_9  and  C_11
REMARK    9  A    between atoms: C_16  and  O_17
REMARK                            x       y       z     vdW  Elec       q    Type
REMARK                         _______ _______ _______ _____ _____    ______ ____
ROOT
ATOM      1  N   UNL     1       3.976   3.723  17.615  0.00  0.00    +0.000 N 
ATOM      2  C   UNL     1       4.084   5.091  17.681  0.00  0.00    +0.000 C 
ATOM      3  O   UNL     1       3.120   5.843  17.573  0.00  0.00    +0.000 OA
ATOM      4  H   UNL     1       4.828   3.172  17.703  0.00  0.00    +0.000 HD
ENDROOT
BRANCH   2   5
ATOM      5  C   UNL     1       5.444   5.656  17.945  0.00  0.00    +0.000 A 
ATOM      6  C   UNL     1       6.072   5.259  19.137  0.00  0.00    +0.000 A 
ATOM      7  C   UNL     1       7.350   5.716  19.459  0.00  0.00    +0.000 A 
ATOM      8  C   UNL     1       8.012   6.588  18.599  0.00  0.00    +0.000 A 
ATOM      9  C   UNL     1       7.396   7.005  17.418  0.00  0.00    +0.000 A 
ATOM     10  C   UNL     1       6.117   6.539  17.090  0.00  0.00    +0.000 A 
BRANCH  10  11
ATOM     11  O   UNL     1       5.541   6.966  15.922  0.00  0.00    +0.000 OA
ATOM     12  H   UNL     1       5.304   6.189  15.387  0.00  0.00    +0.000 HD
ENDBRANCH  10  11
ENDBRANCH   2   5
BRANCH   1  13
ATOM     13  C   UNL     1       2.702   3.034  17.492  0.00  0.00    +0.000 C 
BRANCH  13  14
ATOM     14  C   UNL     1       2.129   2.626  18.864  0.00  0.00    +0.000 C 
BRANCH  14  15
ATOM     15  O   UNL     1       1.595   1.297  18.790  0.00  0.00    +0.000 OA
ATOM     16  H   UNL     1       2.327   0.697  18.556  0.00  0.00    +0.000 HD
ENDBRANCH  14  15
BRANCH  14  17
ATOM     17  C   UNL     1       1.023   3.597  19.322  0.00  0.00    +0.000 C 
BRANCH  17  19
ATOM     18  C   UNL     1       2.173   3.331  21.578  0.00  0.00    +0.000 C 
ATOM     19  C   UNL     1       1.243   4.198  20.730  0.00  0.00    +0.000 C 
ATOM     20  C   UNL     1       1.821   5.615  20.637  0.00  0.00    +0.000 C 
ENDBRANCH  17  19
ENDBRANCH  14  17
ENDBRANCH  13  14
ENDBRANCH   1  13
TORSDOF 7
ENDMDL
