MODEL 1
REMARK VINA RESULT:      -6.8      0.000      0.000
REMARK  Name = 
REMARK  11 active torsions:
REMARK  status: ('A' for Active; 'I' for Inactive)
REMARK    1  A    between atoms: C_1  and  O_2
REMARK    2  A    between atoms: O_2  and  C_3
REMARK    3  A    between atoms: C_3  and  C_5
REMARK    4  A    between atoms: C_5  and  C_17
REMARK    5  A    between atoms: C_6  and  C_7
REMARK    6  A    between atoms: C_10  and  O_11
REMARK    7  A    between atoms: O_11  and  C_12
REMARK    8  A    between atoms: C_14  and  O_15
REMARK    9  A    between atoms: O_15  and  C_16
REMARK   10  A    between atoms: C_17  and  O_19
REMARK   11  A    between atoms: O_19  and  C_20
REMARK                            x       y       z     vdW  Elec       q    Type
REMARK                         _______ _______ _______ _____ _____    ______ ____
ROOT
ATOM      1  C   UNL     1       6.307   4.769  15.997  0.00  0.00    +0.000 C 
ATOM      2  C   UNL     1       4.975   4.581  16.154  0.00  0.00    +0.000 C 
ENDROOT
BRANCH   2   3
ATOM      3  C   UNL     1       4.198   4.677  17.393  0.00  0.00    +0.000 A 
ATOM      4  C   UNL     1       4.044   3.500  18.142  0.00  0.00    +0.000 A 
ATOM      5  C   UNL     1       3.413   3.525  19.387  0.00  0.00    +0.000 A 
ATOM      6  C   UNL     1       2.912   4.719  19.901  0.00  0.00    +0.000 A 
ATOM      7  C   UNL     1       3.028   5.884  19.143  0.00  0.00    +0.000 A 
ATOM      8  C   UNL     1       3.662   5.876  17.890  0.00  0.00    +0.000 A 
BRANCH   6   9
ATOM      9  O   UNL     1       2.355   4.624  21.146  0.00  0.00    +0.000 OA
ATOM     10  C   UNL     1       2.251   3.317  21.702  0.00  0.00    +0.000 C 
ENDBRANCH   6   9
BRANCH   8  11
ATOM     11  O   UNL     1       3.751   7.126  17.332  0.00  0.00    +0.000 OA
ATOM     12  C   UNL     1       2.804   8.105  17.741  0.00  0.00    +0.000 C 
ENDBRANCH   8  11
ENDBRANCH   2   3
BRANCH   1  13
ATOM     13  C   UNL     1       7.291   5.062  17.071  0.00  0.00    +0.000 C 
ATOM     14  O   UNL     1       8.024   4.219  17.567  0.00  0.00    +0.000 OA
BRANCH  13  16
ATOM     15  C   UNL     1       8.048   6.693  18.593  0.00  0.00    +0.000 C 
ATOM     16  O   UNL     1       7.278   6.370  17.434  0.00  0.00    +0.000 OA
ENDBRANCH  13  16
ENDBRANCH   1  13
BRANCH   1  17
ATOM     17  C   UNL     1       6.737   4.808  14.579  0.00  0.00    +0.000 C 
ATOM     18  O   UNL     1       7.734   5.407  14.189  0.00  0.00    +0.000 OA
BRANCH  17  19
ATOM     19  O   UNL     1       5.872   4.140  13.775  0.00  0.00    +0.000 OA
ATOM     20  C   UNL     1       6.449   3.718  12.538  0.00  0.00    +0.000 C 
ENDBRANCH  17  19
ENDBRANCH   1  17
TORSDOF 7
ENDMDL
MODEL 2
REMARK VINA RESULT:      -6.8      1.379      2.275
REMARK  Name = 
REMARK  11 active torsions:
REMARK  status: ('A' for Active; 'I' for Inactive)
REMARK    1  A    between atoms: C_1  and  O_2
REMARK    2  A    between atoms: O_2  and  C_3
REMARK    3  A    between atoms: C_3  and  C_5
REMARK    4  A    between atoms: C_5  and  C_17
REMARK    5  A    between atoms: C_6  and  C_7
REMARK    6  A    between atoms: C_10  and  O_11
REMARK    7  A    between atoms: O_11  and  C_12
REMARK    8  A    between atoms: C_14  and  O_15
REMARK    9  A    between atoms: O_15  and  C_16
REMARK   10  A    between atoms: C_17  and  O_19
REMARK   11  A    between atoms: O_19  and  C_20
REMARK                            x       y       z     vdW  Elec       q    Type
REMARK                         _______ _______ _______ _____ _____    ______ ____
ROOT
ATOM      1  C   UNL     1       6.450   4.756  15.453  0.00  0.00    +0.000 C 
ATOM      2  C   UNL     1       5.120   4.587  15.647  0.00  0.00    +0.000 C 
ENDROOT
BRANCH   2   3
ATOM      3  C   UNL     1       4.360   4.812  16.879  0.00  0.00    +0.000 A 
ATOM      4  C   UNL     1       4.107   6.144  17.239  0.00  0.00    +0.000 A 
ATOM      5  C   UNL     1       3.297   6.445  18.336  0.00  0.00    +0.000 A 
ATOM      6  C   UNL     1       2.739   5.425  19.103  0.00  0.00    +0.000 A 
ATOM      7  C   UNL     1       3.020   4.099  18.773  0.00  0.00    +0.000 A 
ATOM      8  C   UNL     1       3.830   3.779  17.671  0.00  0.00    +0.000 A 
BRANCH   6   9
ATOM      9  O   UNL     1       1.932   5.844  20.124  0.00  0.00    +0.000 OA
ATOM     10  C   UNL     1       1.447   4.841  21.010  0.00  0.00    +0.000 C 
ENDBRANCH   6   9
BRANCH   8  11
ATOM     11  O   UNL     1       3.927   2.428  17.458  0.00  0.00    +0.000 OA
ATOM     12  C   UNL     1       3.502   1.559  18.499  0.00  0.00    +0.000 C 
ENDBRANCH   8  11
ENDBRANCH   2   3
BRANCH   1  13
ATOM     13  C   UNL     1       7.448   5.161  16.477  0.00  0.00    +0.000 C 
ATOM     14  O   UNL     1       8.056   4.367  17.180  0.00  0.00    +0.000 OA
BRANCH  13  16
ATOM     15  C   UNL     1       7.656   7.059  17.855  0.00  0.00    +0.000 C 
ATOM     16  O   UNL     1       7.601   6.508  16.538  0.00  0.00    +0.000 OA
ENDBRANCH  13  16
ENDBRANCH   1  13
BRANCH   1  17
ATOM     17  C   UNL     1       6.860   4.647  14.032  0.00  0.00    +0.000 C 
ATOM     18  O   UNL     1       7.655   5.411  13.496  0.00  0.00    +0.000 OA
BRANCH  17  19
ATOM     19  O   UNL     1       6.218   3.631  13.403  0.00  0.00    +0.000 OA
ATOM     20  C   UNL     1       6.601   3.472  12.036  0.00  0.00    +0.000 C 
ENDBRANCH  17  19
ENDBRANCH   1  17
TORSDOF 7
ENDMDL
MODEL 3
REMARK VINA RESULT:      -6.8      1.385      2.471
REMARK  Name = 
REMARK  11 active torsions:
REMARK  status: ('A' for Active; 'I' for Inactive)
REMARK    1  A    between atoms: C_1  and  O_2
REMARK    2  A    between atoms: O_2  and  C_3
REMARK    3  A    between atoms: C_3  and  C_5
REMARK    4  A    between atoms: C_5  and  C_17
REMARK    5  A    between atoms: C_6  and  C_7
REMARK    6  A    between atoms: C_10  and  O_11
REMARK    7  A    between atoms: O_11  and  C_12
REMARK    8  A    between atoms: C_14  and  O_15
REMARK    9  A    between atoms: O_15  and  C_16
REMARK   10  A    between atoms: C_17  and  O_19
REMARK   11  A    between atoms: O_19  and  C_20
REMARK                            x       y       z     vdW  Elec       q    Type
REMARK                         _______ _______ _______ _____ _____    ______ ____
ROOT
ATOM      1  C   UNL     1       6.355   4.873  16.556  0.00  0.00    +0.000 C 
ATOM      2  C   UNL     1       5.006   4.957  16.632  0.00  0.00    +0.000 C 
ENDROOT
BRANCH   2   3
ATOM      3  C   UNL     1       4.198   5.346  17.790  0.00  0.00    +0.000 A 
ATOM      4  C   UNL     1       3.544   6.586  17.724  0.00  0.00    +0.000 A 
ATOM      5  C   UNL     1       2.667   6.985  18.736  0.00  0.00    +0.000 A 
ATOM      6  C   UNL     1       2.439   6.163  19.837  0.00  0.00    +0.000 A 
ATOM      7  C   UNL     1       3.118   4.948  19.927  0.00  0.00    +0.000 A 
ATOM      8  C   UNL     1       4.001   4.531  18.917  0.00  0.00    +0.000 A 
BRANCH   6   9
ATOM      9  O   UNL     1       1.529   6.643  20.738  0.00  0.00    +0.000 OA
ATOM     10  C   UNL     1       1.393   8.057  20.817  0.00  0.00    +0.000 C 
ENDBRANCH   6   9
BRANCH   8  11
ATOM     11  O   UNL     1       4.509   3.277  19.141  0.00  0.00    +0.000 OA
ATOM     12  C   UNL     1       3.937   2.505  20.189  0.00  0.00    +0.000 C 
ENDBRANCH   8  11
ENDBRANCH   2   3
BRANCH   1  13
ATOM     13  C   UNL     1       7.320   5.109  17.661  0.00  0.00    +0.000 C 
ATOM     14  O   UNL     1       8.200   4.320  17.972  0.00  0.00    +0.000 OA
BRANCH  13  16
ATOM     15  C   UNL     1       7.668   7.438  17.628  0.00  0.00    +0.000 C 
ATOM     16  O   UNL     1       7.106   6.298  18.280  0.00  0.00    +0.000 OA
ENDBRANCH  13  16
ENDBRANCH   1  13
BRANCH   1  17
ATOM     17  C   UNL     1       6.859   4.657  15.178  0.00  0.00    +0.000 C 
ATOM     18  O   UNL     1       7.738   5.339  14.663  0.00  0.00    +0.000 OA
BRANCH  17  19
ATOM     19  O   UNL     1       6.199   3.647  14.556  0.00  0.00    +0.000 OA
ATOM     20  C   UNL     1       6.302   3.687  13.132  0.00  0.00    +0.000 C 
ENDBRANCH  17  19
ENDBRANCH   1  17
TORSDOF 7
ENDMDL
MODEL 4
REMARK VINA RESULT:      -6.7      1.366      2.541
REMARK  Name = 
REMARK  11 active torsions:
REMARK  status: ('A' for Active; 'I' for Inactive)
REMARK    1  A    between atoms: C_1  and  O_2
REMARK    2  A    between atoms: O_2  and  C_3
REMARK    3  A    between atoms: C_3  and  C_5
REMARK    4  A    between atoms: C_5  and  C_17
REMARK    5  A    between atoms: C_6  and  C_7
REMARK    6  A    between atoms: C_10  and  O_11
REMARK    7  A    between atoms: O_11  and  C_12
REMARK    8  A    between atoms: C_14  and  O_15
REMARK    9  A    between atoms: O_15  and  C_16
REMARK   10  A    between atoms: C_17  and  O_19
REMARK   11  A    between atoms: O_19  and  C_20
REMARK                            x       y       z     vdW  Elec       q    Type
REMARK                         _______ _______ _______ _____ _____    ______ ____
ROOT
ATOM      1  C   UNL     1       6.254   5.236  16.107  0.00  0.00    +0.000 C 
ATOM      2  C   UNL     1       4.960   4.935  16.367  0.00  0.00    +0.000 C 
ENDROOT
BRANCH   2   3
ATOM      3  C   UNL     1       4.180   5.291  17.555  0.00  0.00    +0.000 A 
ATOM      4  C   UNL     1       3.695   6.606  17.630  0.00  0.00    +0.000 A 
ATOM      5  C   UNL     1       2.852   6.997  18.672  0.00  0.00    +0.000 A 
ATOM      6  C   UNL     1       2.490   6.089  19.666  0.00  0.00    +0.000 A 
ATOM      7  C   UNL     1       3.002   4.793  19.617  0.00  0.00    +0.000 A 
ATOM      8  C   UNL     1       3.848   4.383  18.575  0.00  0.00    +0.000 A 
BRANCH   6   9
ATOM      9  O   UNL     1       1.627   6.578  20.608  0.00  0.00    +0.000 OA
ATOM     10  C   UNL     1       1.522   7.994  20.706  0.00  0.00    +0.000 C 
ENDBRANCH   6   9
BRANCH   8  11
ATOM     11  O   UNL     1       4.183   3.056  18.653  0.00  0.00    +0.000 OA
ATOM     12  C   UNL     1       4.358   2.490  19.946  0.00  0.00    +0.000 C 
ENDBRANCH   8  11
ENDBRANCH   2   3
BRANCH   1  13
ATOM     13  C   UNL     1       7.192   5.956  17.007  0.00  0.00    +0.000 C 
ATOM     14  O   UNL     1       7.468   7.141  16.888  0.00  0.00    +0.000 OA
BRANCH  13  16
ATOM     15  C   UNL     1       7.822   5.734  19.265  0.00  0.00    +0.000 C 
ATOM     16  O   UNL     1       7.702   5.146  17.969  0.00  0.00    +0.000 OA
ENDBRANCH  13  16
ENDBRANCH   1  13
BRANCH   1  17
ATOM     17  C   UNL     1       6.672   4.911  14.722  0.00  0.00    +0.000 C 
ATOM     18  O   UNL     1       7.685   5.358  14.197  0.00  0.00    +0.000 OA
BRANCH  17  19
ATOM     19  O   UNL     1       5.776   4.097  14.107  0.00  0.00    +0.000 OA
ATOM     20  C   UNL     1       6.223   3.607  12.842  0.00  0.00    +0.000 C 
ENDBRANCH  17  19
ENDBRANCH   1  17
TORSDOF 7
ENDMDL
MODEL 5
REMARK VINA RESULT:      -6.7      1.417      2.541
REMARK  Name = 
REMARK  11 active torsions:
REMARK  status: ('A' for Active; 'I' for Inactive)
REMARK    1  A    between atoms: C_1  and  O_2
REMARK    2  A    between atoms: O_2  and  C_3
REMARK    3  A    between atoms: C_3  and  C_5
REMARK    4  A    between atoms: C_5  and  C_17
REMARK    5  A    between atoms: C_6  and  C_7
REMARK    6  A    between atoms: C_10  and  O_11
REMARK    7  A    between atoms: O_11  and  C_12
REMARK    8  A    between atoms: C_14  and  O_15
REMARK    9  A    between atoms: O_15  and  C_16
REMARK   10  A    between atoms: C_17  and  O_19
REMARK   11  A    between atoms: O_19  and  C_20
REMARK                            x       y       z     vdW  Elec       q    Type
REMARK                         _______ _______ _______ _____ _____    ______ ____
ROOT
ATOM      1  C   UNL     1       6.311   4.818  15.768  0.00  0.00    +0.000 C 
ATOM      2  C   UNL     1       4.977   4.753  15.989  0.00  0.00    +0.000 C 
ENDROOT
BRANCH   2   3
ATOM      3  C   UNL     1       4.254   5.109  17.212  0.00  0.00    +0.000 A 
ATOM      4  C   UNL     1       3.891   6.456  17.369  0.00  0.00    +0.000 A 
ATOM      5  C   UNL     1       3.106   6.861  18.451  0.00  0.00    +0.000 A 
ATOM      6  C   UNL     1       2.682   5.935  19.402  0.00  0.00    +0.000 A 
ATOM      7  C   UNL     1       3.074   4.603  19.271  0.00  0.00    +0.000 A 
ATOM      8  C   UNL     1       3.861   4.179  18.188  0.00  0.00    +0.000 A 
BRANCH   6   9
ATOM      9  O   UNL     1       1.885   6.444  20.389  0.00  0.00    +0.000 OA
ATOM     10  C   UNL     1       1.713   7.857  20.408  0.00  0.00    +0.000 C 
ENDBRANCH   6   9
BRANCH   8  11
ATOM     11  O   UNL     1       4.077   2.825  18.187  0.00  0.00    +0.000 OA
ATOM     12  C   UNL     1       2.941   1.971  18.239  0.00  0.00    +0.000 C 
ENDBRANCH   8  11
ENDBRANCH   2   3
BRANCH   1  13
ATOM     13  C   UNL     1       7.351   5.220  16.750  0.00  0.00    +0.000 C 
ATOM     14  O   UNL     1       7.966   4.426  17.447  0.00  0.00    +0.000 OA
BRANCH  13  16
ATOM     15  C   UNL     1       7.746   7.125  18.077  0.00  0.00    +0.000 C 
ATOM     16  O   UNL     1       7.534   6.565  16.780  0.00  0.00    +0.000 OA
ENDBRANCH  13  16
ENDBRANCH   1  13
BRANCH   1  17
ATOM     17  C   UNL     1       6.690   4.588  14.352  0.00  0.00    +0.000 C 
ATOM     18  O   UNL     1       6.145   3.760  13.631  0.00  0.00    +0.000 OA
BRANCH  17  19
ATOM     19  O   UNL     1       7.731   5.374  13.978  0.00  0.00    +0.000 OA
ATOM     20  C   UNL     1       7.954   5.396  12.568  0.00  0.00    +0.000 C 
ENDBRANCH  17  19
ENDBRANCH   1  17
TORSDOF 7
ENDMDL
MODEL 6
REMARK VINA RESULT:      -6.7      1.398      2.394
REMARK  Name = 
REMARK  11 active torsions:
REMARK  status: ('A' for Active; 'I' for Inactive)
REMARK    1  A    between atoms: C_1  and  O_2
REMARK    2  A    between atoms: O_2  and  C_3
REMARK    3  A    between atoms: C_3  and  C_5
REMARK    4  A    between atoms: C_5  and  C_17
REMARK    5  A    between atoms: C_6  and  C_7
REMARK    6  A    between atoms: C_10  and  O_11
REMARK    7  A    between atoms: O_11  and  C_12
REMARK    8  A    between atoms: C_14  and  O_15
REMARK    9  A    between atoms: O_15  and  C_16
REMARK   10  A    between atoms: C_17  and  O_19
REMARK   11  A    between atoms: O_19  and  C_20
REMARK                            x       y       z     vdW  Elec       q    Type
REMARK                         _______ _______ _______ _____ _____    ______ ____
ROOT
ATOM      1  C   UNL     1       5.695   5.043  15.782  0.00  0.00    +0.000 C 
ATOM      2  C   UNL     1       5.088   3.946  16.293  0.00  0.00    +0.000 C 
ENDROOT
BRANCH   2   3
ATOM      3  C   UNL     1       4.142   3.887  17.410  0.00  0.00    +0.000 A 
ATOM      4  C   UNL     1       2.783   3.749  17.089  0.00  0.00    +0.000 A 
ATOM      5  C   UNL     1       1.827   3.575  18.092  0.00  0.00    +0.000 A 
ATOM      6  C   UNL     1       2.206   3.549  19.432  0.00  0.00    +0.000 A 
ATOM      7  C   UNL     1       3.551   3.725  19.759  0.00  0.00    +0.000 A 
ATOM      8  C   UNL     1       4.525   3.899  18.762  0.00  0.00    +0.000 A 
BRANCH   6   9
ATOM      9  O   UNL     1       1.187   3.329  20.317  0.00  0.00    +0.000 OA
ATOM     10  C   UNL     1       1.531   2.691  21.542  0.00  0.00    +0.000 C 
ENDBRANCH   6   9
BRANCH   8  11
ATOM     11  O   UNL     1       5.796   3.975  19.269  0.00  0.00    +0.000 OA
ATOM     12  C   UNL     1       6.351   5.267  19.481  0.00  0.00    +0.000 C 
ENDBRANCH   8  11
ENDBRANCH   2   3
BRANCH   1  13
ATOM     13  C   UNL     1       5.574   6.436  16.284  0.00  0.00    +0.000 C 
ATOM     14  O   UNL     1       6.526   7.108  16.652  0.00  0.00    +0.000 OA
BRANCH  13  16
ATOM     15  C   UNL     1       3.816   7.382  17.533  0.00  0.00    +0.000 C 
ATOM     16  O   UNL     1       4.287   6.868  16.287  0.00  0.00    +0.000 OA
ENDBRANCH  13  16
ENDBRANCH   1  13
BRANCH   1  17
ATOM     17  C   UNL     1       6.426   4.781  14.518  0.00  0.00    +0.000 C 
ATOM     18  O   UNL     1       7.524   5.261  14.258  0.00  0.00    +0.000 OA
BRANCH  17  19
ATOM     19  O   UNL     1       5.712   3.985  13.683  0.00  0.00    +0.000 OA
ATOM     20  C   UNL     1       6.428   3.599  12.508  0.00  0.00    +0.000 C 
ENDBRANCH  17  19
ENDBRANCH   1  17
TORSDOF 7
ENDMDL
MODEL 7
REMARK VINA RESULT:      -6.6      1.866      6.360
REMARK  Name = 
REMARK  11 active torsions:
REMARK  status: ('A' for Active; 'I' for Inactive)
REMARK    1  A    between atoms: C_1  and  O_2
REMARK    2  A    between atoms: O_2  and  C_3
REMARK    3  A    between atoms: C_3  and  C_5
REMARK    4  A    between atoms: C_5  and  C_17
REMARK    5  A    between atoms: C_6  and  C_7
REMARK    6  A    between atoms: C_10  and  O_11
REMARK    7  A    between atoms: O_11  and  C_12
REMARK    8  A    between atoms: C_14  and  O_15
REMARK    9  A    between atoms: O_15  and  C_16
REMARK   10  A    between atoms: C_17  and  O_19
REMARK   11  A    between atoms: O_19  and  C_20
REMARK                            x       y       z     vdW  Elec       q    Type
REMARK                         _______ _______ _______ _____ _____    ______ ____
ROOT
ATOM      1  C   UNL     1       3.469   3.973  19.917  0.00  0.00    +0.000 C 
ATOM      2  C   UNL     1       3.961   5.035  19.236  0.00  0.00    +0.000 C 
ENDROOT
BRANCH   2   3
ATOM      3  C   UNL     1       4.964   5.027  18.168  0.00  0.00    +0.000 A 
ATOM      4  C   UNL     1       4.495   5.149  16.851  0.00  0.00    +0.000 A 
ATOM      5  C   UNL     1       5.388   5.260  15.783  0.00  0.00    +0.000 A 
ATOM      6  C   UNL     1       6.763   5.236  16.008  0.00  0.00    +0.000 A 
ATOM      7  C   UNL     1       7.234   5.075  17.311  0.00  0.00    +0.000 A 
ATOM      8  C   UNL     1       6.349   4.964  18.396  0.00  0.00    +0.000 A 
BRANCH   6   9
ATOM      9  O   UNL     1       7.534   5.396  14.890  0.00  0.00    +0.000 OA
ATOM     10  C   UNL     1       7.035   4.830  13.683  0.00  0.00    +0.000 C 
ENDBRANCH   6   9
BRANCH   8  11
ATOM     11  O   UNL     1       6.995   4.893  19.603  0.00  0.00    +0.000 OA
ATOM     12  C   UNL     1       8.122   5.736  19.803  0.00  0.00    +0.000 C 
ENDBRANCH   8  11
ENDBRANCH   2   3
BRANCH   1  13
ATOM     13  C   UNL     1       3.885   2.555  19.763  0.00  0.00    +0.000 C 
ATOM     14  O   UNL     1       4.969   2.124  20.132  0.00  0.00    +0.000 OA
BRANCH  13  16
ATOM     15  C   UNL     1       2.633   2.142  17.812  0.00  0.00    +0.000 C 
ATOM     16  O   UNL     1       2.926   1.802  19.168  0.00  0.00    +0.000 OA
ENDBRANCH  13  16
ENDBRANCH   1  13
BRANCH   1  17
ATOM     17  C   UNL     1       2.312   4.307  20.782  0.00  0.00    +0.000 C 
ATOM     18  O   UNL     1       1.496   5.183  20.514  0.00  0.00    +0.000 OA
BRANCH  17  19
ATOM     19  O   UNL     1       2.299   3.557  21.913  0.00  0.00    +0.000 OA
ATOM     20  C   UNL     1       1.207   2.638  21.977  0.00  0.00    +0.000 C 
ENDBRANCH  17  19
ENDBRANCH   1  17
TORSDOF 7
ENDMDL
MODEL 8
REMARK VINA RESULT:      -6.6      0.706      1.236
REMARK  Name = 
REMARK  11 active torsions:
REMARK  status: ('A' for Active; 'I' for Inactive)
REMARK    1  A    between atoms: C_1  and  O_2
REMARK    2  A    between atoms: O_2  and  C_3
REMARK    3  A    between atoms: C_3  and  C_5
REMARK    4  A    between atoms: C_5  and  C_17
REMARK    5  A    between atoms: C_6  and  C_7
REMARK    6  A    between atoms: C_10  and  O_11
REMARK    7  A    between atoms: O_11  and  C_12
REMARK    8  A    between atoms: C_14  and  O_15
REMARK    9  A    between atoms: O_15  and  C_16
REMARK   10  A    between atoms: C_17  and  O_19
REMARK   11  A    between atoms: O_19  and  C_20
REMARK                            x       y       z     vdW  Elec       q    Type
REMARK                         _______ _______ _______ _____ _____    ______ ____
ROOT
ATOM      1  C   UNL     1       6.253   4.955  15.898  0.00  0.00    +0.000 C 
ATOM      2  C   UNL     1       5.060   4.386  16.194  0.00  0.00    +0.000 C 
ENDROOT
BRANCH   2   3
ATOM      3  C   UNL     1       4.285   4.523  17.430  0.00  0.00    +0.000 A 
ATOM      4  C   UNL     1       4.163   3.381  18.237  0.00  0.00    +0.000 A 
ATOM      5  C   UNL     1       3.536   3.451  19.483  0.00  0.00    +0.000 A 
ATOM      6  C   UNL     1       3.008   4.656  19.940  0.00  0.00    +0.000 A 
ATOM      7  C   UNL     1       3.092   5.785  19.125  0.00  0.00    +0.000 A 
ATOM      8  C   UNL     1       3.721   5.732  17.870  0.00  0.00    +0.000 A 
BRANCH   6   9
ATOM      9  O   UNL     1       2.458   4.608  21.191  0.00  0.00    +0.000 OA
ATOM     10  C   UNL     1       2.032   3.332  21.654  0.00  0.00    +0.000 C 
ENDBRANCH   6   9
BRANCH   8  11
ATOM     11  O   UNL     1       3.776   6.954  17.252  0.00  0.00    +0.000 OA
ATOM     12  C   UNL     1       2.936   7.988  17.747  0.00  0.00    +0.000 C 
ENDBRANCH   8  11
ENDBRANCH   2   3
BRANCH   1  13
ATOM     13  C   UNL     1       7.071   5.810  16.797  0.00  0.00    +0.000 C 
ATOM     14  O   UNL     1       7.089   7.031  16.737  0.00  0.00    +0.000 OA
BRANCH  13  16
ATOM     15  C   UNL     1       7.773   5.556  19.030  0.00  0.00    +0.000 C 
ATOM     16  O   UNL     1       7.790   5.078  17.684  0.00  0.00    +0.000 OA
ENDBRANCH  13  16
ENDBRANCH   1  13
BRANCH   1  17
ATOM     17  C   UNL     1       6.656   4.783  14.482  0.00  0.00    +0.000 C 
ATOM     18  O   UNL     1       6.051   4.074  13.686  0.00  0.00    +0.000 OA
BRANCH  17  19
ATOM     19  O   UNL     1       7.791   5.471  14.198  0.00  0.00    +0.000 OA
ATOM     20  C   UNL     1       8.125   5.476  12.809  0.00  0.00    +0.000 C 
ENDBRANCH  17  19
ENDBRANCH   1  17
TORSDOF 7
ENDMDL
MODEL 9
REMARK VINA RESULT:      -6.5      1.159      1.372
REMARK  Name = 
REMARK  11 active torsions:
REMARK  status: ('A' for Active; 'I' for Inactive)
REMARK    1  A    between atoms: C_1  and  O_2
REMARK    2  A    between atoms: O_2  and  C_3
REMARK    3  A    between atoms: C_3  and  C_5
REMARK    4  A    between atoms: C_5  and  C_17
REMARK    5  A    between atoms: C_6  and  C_7
REMARK    6  A    between atoms: C_10  and  O_11
REMARK    7  A    between atoms: O_11  and  C_12
REMARK    8  A    between atoms: C_14  and  O_15
REMARK    9  A    between atoms: O_15  and  C_16
REMARK   10  A    between atoms: C_17  and  O_19
REMARK   11  A    between atoms: O_19  and  C_20
REMARK                            x       y       z     vdW  Elec       q    Type
REMARK                         _______ _______ _______ _____ _____    ______ ____
ROOT
ATOM      1  C   UNL     1       5.959   4.586  16.500  0.00  0.00    +0.000 C 
ATOM      2  C   UNL     1       4.813   3.868  16.432  0.00  0.00    +0.000 C 
ENDROOT
BRANCH   2   3
ATOM      3  C   UNL     1       3.740   3.802  17.427  0.00  0.00    +0.000 A 
ATOM      4  C   UNL     1       3.510   2.559  18.037  0.00  0.00    +0.000 A 
ATOM      5  C   UNL     1       2.582   2.432  19.073  0.00  0.00    +0.000 A 
ATOM      6  C   UNL     1       1.856   3.538  19.509  0.00  0.00    +0.000 A 
ATOM      7  C   UNL     1       2.052   4.768  18.880  0.00  0.00    +0.000 A 
ATOM      8  C   UNL     1       2.983   4.912  17.838  0.00  0.00    +0.000 A 
BRANCH   6   9
ATOM      9  O   UNL     1       1.011   3.298  20.556  0.00  0.00    +0.000 OA
ATOM     10  C   UNL     1       1.579   2.691  21.711  0.00  0.00    +0.000 C 
ENDBRANCH   6   9
BRANCH   8  11
ATOM     11  O   UNL     1       3.094   6.207  17.401  0.00  0.00    +0.000 OA
ATOM     12  C   UNL     1       2.731   7.246  18.301  0.00  0.00    +0.000 C 
ENDBRANCH   8  11
ENDBRANCH   2   3
BRANCH   1  13
ATOM     13  C   UNL     1       6.407   5.431  17.637  0.00  0.00    +0.000 C 
ATOM     14  O   UNL     1       6.193   6.633  17.713  0.00  0.00    +0.000 OA
BRANCH  13  16
ATOM     15  C   UNL     1       7.850   5.484  19.497  0.00  0.00    +0.000 C 
ATOM     16  O   UNL     1       7.079   4.715  18.573  0.00  0.00    +0.000 OA
ENDBRANCH  13  16
ENDBRANCH   1  13
BRANCH   1  17
ATOM     17  C   UNL     1       6.727   4.597  15.231  0.00  0.00    +0.000 C 
ATOM     18  O   UNL     1       7.583   5.433  14.964  0.00  0.00    +0.000 OA
BRANCH  17  19
ATOM     19  O   UNL     1       6.334   3.599  14.400  0.00  0.00    +0.000 OA
ATOM     20  C   UNL     1       6.479   3.918  13.015  0.00  0.00    +0.000 C 
ENDBRANCH  17  19
ENDBRANCH   1  17
TORSDOF 7
ENDMDL
