MODEL 1
REMARK VINA RESULT:      -8.0      0.000      0.000
REMARK  Name = 
REMARK  0 active torsions:
REMARK  status: ('A' for Active; 'I' for Inactive)
REMARK                            x       y       z     vdW  Elec       q    Type
REMARK                         _______ _______ _______ _____ _____    ______ ____
ROOT
ATOM      1  O   UNL     1       8.314   4.472  18.081  0.00  0.00    +0.000 OA
ATOM      2  C   UNL     1       7.129   4.669  17.810  0.00  0.00    +0.000 C 
ATOM      3  N   UNL     1       6.285   5.026  18.803  0.00  0.00    +0.000 N 
ATOM      4  C   UNL     1       4.960   5.565  18.618  0.00  0.00    +0.000 C 
ATOM      5  C   UNL     1       4.328   5.749  20.000  0.00  0.00    +0.000 C 
ATOM      6  C   UNL     1       2.888   5.256  19.937  0.00  0.00    +0.000 C 
ATOM      7  C   UNL     1       2.878   4.424  18.695  0.00  0.00    +0.000 A 
ATOM      8  C   UNL     1       1.860   3.596  18.262  0.00  0.00    +0.000 A 
ATOM      9  C   UNL     1       2.010   2.958  17.031  0.00  0.00    +0.000 A 
ATOM     10  C   UNL     1       3.165   3.165  16.242  0.00  0.00    +0.000 A 
ATOM     11  C   UNL     1       4.208   3.998  16.675  0.00  0.00    +0.000 A 
ATOM     12  C   UNL     1       4.035   4.610  17.928  0.00  0.00    +0.000 A 
ATOM     13  C   UNL     1       5.407   4.278  15.867  0.00  0.00    +0.000 A 
ATOM     14  C   UNL     1       6.631   4.607  16.477  0.00  0.00    +0.000 A 
ATOM     15  N   UNL     1       7.530   4.836  15.468  0.00  0.00    +0.000 N 
ATOM     16  C   UNL     1       6.928   4.777  14.255  0.00  0.00    +0.000 A 
ATOM     17  C   UNL     1       7.511   5.031  13.017  0.00  0.00    +0.000 A 
ATOM     18  C   UNL     1       7.236   4.014  12.118  0.00  0.00    +0.000 A 
ATOM     19  C   UNL     1       6.023   3.340  12.203  0.00  0.00    +0.000 A 
ATOM     20  C   UNL     1       5.157   3.529  13.304  0.00  0.00    +0.000 A 
ATOM     21  C   UNL     1       5.711   4.127  14.454  0.00  0.00    +0.000 A 
ATOM     22  H   UNL     1       6.794   5.252  19.634  0.00  0.00    +0.000 HD
ATOM     23  H   UNL     1       8.514   4.987  15.628  0.00  0.00    +0.000 HD
ENDROOT
TORSDOF 0
ENDMDL
MODEL 2
REMARK VINA RESULT:      -7.9      3.626      5.243
REMARK  Name = 
REMARK  0 active torsions:
REMARK  status: ('A' for Active; 'I' for Inactive)
REMARK                            x       y       z     vdW  Elec       q    Type
REMARK                         _______ _______ _______ _____ _____    ______ ____
ROOT
ATOM      1  O   UNL     1       1.418   3.916  20.266  0.00  0.00    +0.000 OA
ATOM      2  C   UNL     1       1.773   5.089  20.137  0.00  0.00    +0.000 C 
ATOM      3  N   UNL     1       1.177   6.036  20.895  0.00  0.00    +0.000 N 
ATOM      4  C   UNL     1       1.659   7.383  21.079  0.00  0.00    +0.000 C 
ATOM      5  C   UNL     1       0.641   8.136  21.940  0.00  0.00    +0.000 C 
ATOM      6  C   UNL     1       0.435   9.519  21.337  0.00  0.00    +0.000 C 
ATOM      7  C   UNL     1       0.979   9.361  19.953  0.00  0.00    +0.000 A 
ATOM      8  C   UNL     1       0.878  10.268  18.915  0.00  0.00    +0.000 A 
ATOM      9  C   UNL     1       1.521   9.968  17.715  0.00  0.00    +0.000 A 
ATOM     10  C   UNL     1       2.267   8.776  17.569  0.00  0.00    +0.000 A 
ATOM     11  C   UNL     1       2.369   7.844  18.613  0.00  0.00    +0.000 A 
ATOM     12  C   UNL     1       1.695   8.166  19.802  0.00  0.00    +0.000 A 
ATOM     13  C   UNL     1       3.172   6.613  18.522  0.00  0.00    +0.000 A 
ATOM     14  C   UNL     1       2.840   5.473  19.276  0.00  0.00    +0.000 A 
ATOM     15  N   UNL     1       3.783   4.519  18.994  0.00  0.00    +0.000 N 
ATOM     16  C   UNL     1       4.755   5.016  18.191  0.00  0.00    +0.000 A 
ATOM     17  C   UNL     1       5.905   4.360  17.763  0.00  0.00    +0.000 A 
ATOM     18  C   UNL     1       6.066   4.477  16.392  0.00  0.00    +0.000 A 
ATOM     19  C   UNL     1       5.632   5.631  15.752  0.00  0.00    +0.000 A 
ATOM     20  C   UNL     1       4.852   6.595  16.430  0.00  0.00    +0.000 A 
ATOM     21  C   UNL     1       4.240   6.186  17.633  0.00  0.00    +0.000 A 
ATOM     22  H   UNL     1       0.615   5.615  21.608  0.00  0.00    +0.000 HD
ATOM     23  H   UNL     1       3.721   3.568  19.321  0.00  0.00    +0.000 HD
ENDROOT
TORSDOF 0
ENDMDL
MODEL 3
REMARK VINA RESULT:      -7.7      4.211      6.477
REMARK  Name = 
REMARK  0 active torsions:
REMARK  status: ('A' for Active; 'I' for Inactive)
REMARK                            x       y       z     vdW  Elec       q    Type
REMARK                         _______ _______ _______ _____ _____    ______ ____
ROOT
ATOM      1  O   UNL     1       4.720   6.880  17.089  0.00  0.00    +0.000 OA
ATOM      2  C   UNL     1       3.668   7.188  17.650  0.00  0.00    +0.000 C 
ATOM      3  N   UNL     1       3.246   8.470  17.582  0.00  0.00    +0.000 N 
ATOM      4  C   UNL     1       1.924   8.933  17.926  0.00  0.00    +0.000 C 
ATOM      5  C   UNL     1       1.904  10.457  17.783  0.00  0.00    +0.000 C 
ATOM      6  C   UNL     1       1.170  11.041  18.983  0.00  0.00    +0.000 C 
ATOM      7  C   UNL     1       1.185   9.910  19.961  0.00  0.00    +0.000 A 
ATOM      8  C   UNL     1       0.805   9.959  21.289  0.00  0.00    +0.000 A 
ATOM      9  C   UNL     1       0.818   8.773  22.021  0.00  0.00    +0.000 A 
ATOM     10  C   UNL     1       1.197   7.552  21.417  0.00  0.00    +0.000 A 
ATOM     11  C   UNL     1       1.592   7.492  20.073  0.00  0.00    +0.000 A 
ATOM     12  C   UNL     1       1.586   8.706  19.368  0.00  0.00    +0.000 A 
ATOM     13  C   UNL     1       1.950   6.236  19.391  0.00  0.00    +0.000 A 
ATOM     14  C   UNL     1       2.843   6.230  18.304  0.00  0.00    +0.000 A 
ATOM     15  N   UNL     1       2.945   4.931  17.879  0.00  0.00    +0.000 N 
ATOM     16  C   UNL     1       2.091   4.127  18.558  0.00  0.00    +0.000 A 
ATOM     17  C   UNL     1       1.869   2.769  18.344  0.00  0.00    +0.000 A 
ATOM     18  C   UNL     1       1.942   2.058  19.530  0.00  0.00    +0.000 A 
ATOM     19  C   UNL     1       1.533   2.663  20.713  0.00  0.00    +0.000 A 
ATOM     20  C   UNL     1       1.237   4.044  20.764  0.00  0.00    +0.000 A 
ATOM     21  C   UNL     1       1.709   4.835  19.696  0.00  0.00    +0.000 A 
ATOM     22  H   UNL     1       3.787   8.984  16.915  0.00  0.00    +0.000 HD
ATOM     23  H   UNL     1       3.603   4.629  17.178  0.00  0.00    +0.000 HD
ENDROOT
TORSDOF 0
ENDMDL
MODEL 4
REMARK VINA RESULT:      -7.7      1.273      1.751
REMARK  Name = 
REMARK  0 active torsions:
REMARK  status: ('A' for Active; 'I' for Inactive)
REMARK                            x       y       z     vdW  Elec       q    Type
REMARK                         _______ _______ _______ _____ _____    ______ ____
ROOT
ATOM      1  O   UNL     1       6.788   5.491  19.788  0.00  0.00    +0.000 OA
ATOM      2  C   UNL     1       5.686   5.288  19.275  0.00  0.00    +0.000 C 
ATOM      3  N   UNL     1       4.584   5.347  20.055  0.00  0.00    +0.000 N 
ATOM      4  C   UNL     1       3.226   5.421  19.577  0.00  0.00    +0.000 C 
ATOM      5  C   UNL     1       2.295   5.385  20.792  0.00  0.00    +0.000 C 
ATOM      6  C   UNL     1       1.136   4.447  20.479  0.00  0.00    +0.000 C 
ATOM      7  C   UNL     1       1.654   3.660  19.317  0.00  0.00    +0.000 A 
ATOM      8  C   UNL     1       1.070   2.544  18.747  0.00  0.00    +0.000 A 
ATOM      9  C   UNL     1       1.670   1.994  17.616  0.00  0.00    +0.000 A 
ATOM     10  C   UNL     1       2.835   2.570  17.059  0.00  0.00    +0.000 A 
ATOM     11  C   UNL     1       3.440   3.697  17.633  0.00  0.00    +0.000 A 
ATOM     12  C   UNL     1       2.823   4.217  18.783  0.00  0.00    +0.000 A 
ATOM     13  C   UNL     1       4.626   4.357  17.061  0.00  0.00    +0.000 A 
ATOM     14  C   UNL     1       5.524   5.069  17.877  0.00  0.00    +0.000 A 
ATOM     15  N   UNL     1       6.491   5.583  17.053  0.00  0.00    +0.000 N 
ATOM     16  C   UNL     1       6.207   5.332  15.752  0.00  0.00    +0.000 A 
ATOM     17  C   UNL     1       6.922   5.764  14.639  0.00  0.00    +0.000 A 
ATOM     18  C   UNL     1       7.182   4.715  13.774  0.00  0.00    +0.000 A 
ATOM     19  C   UNL     1       6.261   3.680  13.662  0.00  0.00    +0.000 A 
ATOM     20  C   UNL     1       5.170   3.573  14.554  0.00  0.00    +0.000 A 
ATOM     21  C   UNL     1       5.250   4.317  15.749  0.00  0.00    +0.000 A 
ATOM     22  H   UNL     1       4.809   5.726  20.954  0.00  0.00    +0.000 HD
ATOM     23  H   UNL     1       7.317   6.048  17.393  0.00  0.00    +0.000 HD
ENDROOT
TORSDOF 0
ENDMDL
MODEL 5
REMARK VINA RESULT:      -7.7      2.744      3.907
REMARK  Name = 
REMARK  0 active torsions:
REMARK  status: ('A' for Active; 'I' for Inactive)
REMARK                            x       y       z     vdW  Elec       q    Type
REMARK                         _______ _______ _______ _____ _____    ______ ____
ROOT
ATOM      1  O   UNL     1       1.959   2.425  18.198  0.00  0.00    +0.000 OA
ATOM      2  C   UNL     1       2.374   3.556  18.455  0.00  0.00    +0.000 C 
ATOM      3  N   UNL     1       1.848   4.218  19.510  0.00  0.00    +0.000 N 
ATOM      4  C   UNL     1       2.406   5.403  20.115  0.00  0.00    +0.000 C 
ATOM      5  C   UNL     1       1.452   5.864  21.219  0.00  0.00    +0.000 C 
ATOM      6  C   UNL     1       1.306   7.377  21.123  0.00  0.00    +0.000 C 
ATOM      7  C   UNL     1       1.806   7.671  19.745  0.00  0.00    +0.000 A 
ATOM      8  C   UNL     1       1.729   8.877  19.076  0.00  0.00    +0.000 A 
ATOM      9  C   UNL     1       2.325   8.972  17.819  0.00  0.00    +0.000 A 
ATOM     10  C   UNL     1       3.002   7.868  17.252  0.00  0.00    +0.000 A 
ATOM     11  C   UNL     1       3.079   6.636  17.918  0.00  0.00    +0.000 A 
ATOM     12  C   UNL     1       2.453   6.567  19.174  0.00  0.00    +0.000 A 
ATOM     13  C   UNL     1       3.812   5.474  17.387  0.00  0.00    +0.000 A 
ATOM     14  C   UNL     1       3.437   4.162  17.729  0.00  0.00    +0.000 A 
ATOM     15  N   UNL     1       4.321   3.319  17.105  0.00  0.00    +0.000 N 
ATOM     16  C   UNL     1       5.298   4.017  16.475  0.00  0.00    +0.000 A 
ATOM     17  C   UNL     1       6.401   3.495  15.805  0.00  0.00    +0.000 A 
ATOM     18  C   UNL     1       6.533   4.059  14.547  0.00  0.00    +0.000 A 
ATOM     19  C   UNL     1       6.146   5.379  14.349  0.00  0.00    +0.000 A 
ATOM     20  C   UNL     1       5.436   6.090  15.342  0.00  0.00    +0.000 A 
ATOM     21  C   UNL     1       4.833   5.326  16.363  0.00  0.00    +0.000 A 
ATOM     22  H   UNL     1       1.282   3.605  20.064  0.00  0.00    +0.000 HD
ATOM     23  H   UNL     1       4.216   2.318  17.096  0.00  0.00    +0.000 HD
ENDROOT
TORSDOF 0
ENDMDL
MODEL 6
REMARK VINA RESULT:      -7.3      5.553      7.891
REMARK  Name = 
REMARK  0 active torsions:
REMARK  status: ('A' for Active; 'I' for Inactive)
REMARK                            x       y       z     vdW  Elec       q    Type
REMARK                         _______ _______ _______ _____ _____    ______ ____
ROOT
ATOM      1  O   UNL     1       2.718  10.963  17.401  0.00  0.00    +0.000 OA
ATOM      2  C   UNL     1       1.858  10.549  18.180  0.00  0.00    +0.000 C 
ATOM      3  N   UNL     1       0.865  11.385  18.557  0.00  0.00    +0.000 N 
ATOM      4  C   UNL     1      -0.354  10.988  19.217  0.00  0.00    +0.000 C 
ATOM      5  C   UNL     1      -1.154  12.255  19.534  0.00  0.00    +0.000 C 
ATOM      6  C   UNL     1      -1.704  12.132  20.949  0.00  0.00    +0.000 C 
ATOM      7  C   UNL     1      -0.863  11.044  21.537  0.00  0.00    +0.000 A 
ATOM      8  C   UNL     1      -0.824  10.652  22.861  0.00  0.00    +0.000 A 
ATOM      9  C   UNL     1      -0.027   9.559  23.200  0.00  0.00    +0.000 A 
ATOM     10  C   UNL     1       0.709   8.864  22.214  0.00  0.00    +0.000 A 
ATOM     11  C   UNL     1       0.684   9.258  20.868  0.00  0.00    +0.000 A 
ATOM     12  C   UNL     1      -0.113  10.373  20.562  0.00  0.00    +0.000 A 
ATOM     13  C   UNL     1       1.397   8.536  19.801  0.00  0.00    +0.000 A 
ATOM     14  C   UNL     1       1.829   9.202  18.639  0.00  0.00    +0.000 A 
ATOM     15  N   UNL     1       2.425   8.262  17.839  0.00  0.00    +0.000 N 
ATOM     16  C   UNL     1       2.305   7.021  18.372  0.00  0.00    +0.000 A 
ATOM     17  C   UNL     1       2.722   5.821  17.803  0.00  0.00    +0.000 A 
ATOM     18  C   UNL     1       3.465   5.074  18.701  0.00  0.00    +0.000 A 
ATOM     19  C   UNL     1       3.168   5.148  20.057  0.00  0.00    +0.000 A 
ATOM     20  C   UNL     1       2.266   6.114  20.557  0.00  0.00    +0.000 A 
ATOM     21  C   UNL     1       1.967   7.202  19.712  0.00  0.00    +0.000 A 
ATOM     22  H   UNL     1       0.873  12.215  17.998  0.00  0.00    +0.000 HD
ATOM     23  H   UNL     1       2.917   8.491  16.990  0.00  0.00    +0.000 HD
ENDROOT
TORSDOF 0
ENDMDL
MODEL 7
REMARK VINA RESULT:      -7.2      9.802     11.853
REMARK  Name = 
REMARK  0 active torsions:
REMARK  status: ('A' for Active; 'I' for Inactive)
REMARK                            x       y       z     vdW  Elec       q    Type
REMARK                         _______ _______ _______ _____ _____    ______ ____
ROOT
ATOM      1  O   UNL     1      -3.458  11.175  15.138  0.00  0.00    +0.000 OA
ATOM      2  C   UNL     1      -3.704  11.193  16.345  0.00  0.00    +0.000 C 
ATOM      3  N   UNL     1      -4.990  11.298  16.746  0.00  0.00    +0.000 N 
ATOM      4  C   UNL     1      -5.471  11.048  18.083  0.00  0.00    +0.000 C 
ATOM      5  C   UNL     1      -6.968  11.366  18.113  0.00  0.00    +0.000 C 
ATOM      6  C   UNL     1      -7.266  12.143  19.389  0.00  0.00    +0.000 C 
ATOM      7  C   UNL     1      -5.911  12.616  19.811  0.00  0.00    +0.000 A 
ATOM      8  C   UNL     1      -5.627  13.519  20.818  0.00  0.00    +0.000 A 
ATOM      9  C   UNL     1      -4.288  13.775  21.112  0.00  0.00    +0.000 A 
ATOM     10  C   UNL     1      -3.252  13.119  20.409  0.00  0.00    +0.000 A 
ATOM     11  C   UNL     1      -3.529  12.207  19.380  0.00  0.00    +0.000 A 
ATOM     12  C   UNL     1      -4.886  11.984  19.095  0.00  0.00    +0.000 A 
ATOM     13  C   UNL     1      -2.484  11.466  18.653  0.00  0.00    +0.000 A 
ATOM     14  C   UNL     1      -2.690  11.030  17.332  0.00  0.00    +0.000 A 
ATOM     15  N   UNL     1      -1.558  10.356  16.953  0.00  0.00    +0.000 N 
ATOM     16  C   UNL     1      -0.688  10.245  17.986  0.00  0.00    +0.000 A 
ATOM     17  C   UNL     1       0.525   9.562  17.990  0.00  0.00    +0.000 A 
ATOM     18  C   UNL     1       1.542  10.356  18.491  0.00  0.00    +0.000 A 
ATOM     19  C   UNL     1       1.254  11.289  19.481  0.00  0.00    +0.000 A 
ATOM     20  C   UNL     1      -0.081  11.584  19.840  0.00  0.00    +0.000 A 
ATOM     21  C   UNL     1      -1.087  11.184  18.935  0.00  0.00    +0.000 A 
ATOM     22  H   UNL     1      -5.612  11.178  15.971  0.00  0.00    +0.000 HD
ATOM     23  H   UNL     1      -1.399  10.029  16.013  0.00  0.00    +0.000 HD
ENDROOT
TORSDOF 0
ENDMDL
MODEL 8
REMARK VINA RESULT:      -7.2      2.574      5.687
REMARK  Name = 
REMARK  0 active torsions:
REMARK  status: ('A' for Active; 'I' for Inactive)
REMARK                            x       y       z     vdW  Elec       q    Type
REMARK                         _______ _______ _______ _____ _____    ______ ____
ROOT
ATOM      1  O   UNL     1       2.326   8.137  18.195  0.00  0.00    +0.000 OA
ATOM      2  C   UNL     1       3.225   7.301  18.090  0.00  0.00    +0.000 C 
ATOM      3  N   UNL     1       4.471   7.721  17.780  0.00  0.00    +0.000 N 
ATOM      4  C   UNL     1       5.672   6.930  17.899  0.00  0.00    +0.000 C 
ATOM      5  C   UNL     1       6.840   7.763  17.364  0.00  0.00    +0.000 C 
ATOM      6  C   UNL     1       7.711   6.862  16.497  0.00  0.00    +0.000 C 
ATOM      7  C   UNL     1       6.807   5.706  16.209  0.00  0.00    +0.000 A 
ATOM      8  C   UNL     1       7.037   4.678  15.315  0.00  0.00    +0.000 A 
ATOM      9  C   UNL     1       6.103   3.646  15.245  0.00  0.00    +0.000 A 
ATOM     10  C   UNL     1       4.959   3.644  16.076  0.00  0.00    +0.000 A 
ATOM     11  C   UNL     1       4.711   4.687  16.982  0.00  0.00    +0.000 A 
ATOM     12  C   UNL     1       5.661   5.721  17.015  0.00  0.00    +0.000 A 
ATOM     13  C   UNL     1       3.559   4.704  17.898  0.00  0.00    +0.000 A 
ATOM     14  C   UNL     1       3.015   5.918  18.357  0.00  0.00    +0.000 A 
ATOM     15  N   UNL     1       1.986   5.599  19.205  0.00  0.00    +0.000 N 
ATOM     16  C   UNL     1       1.910   4.260  19.398  0.00  0.00    +0.000 A 
ATOM     17  C   UNL     1       1.042   3.584  20.250  0.00  0.00    +0.000 A 
ATOM     18  C   UNL     1       0.407   2.543  19.593  0.00  0.00    +0.000 A 
ATOM     19  C   UNL     1       1.081   1.862  18.586  0.00  0.00    +0.000 A 
ATOM     20  C   UNL     1       2.314   2.335  18.083  0.00  0.00    +0.000 A 
ATOM     21  C   UNL     1       2.648   3.675  18.370  0.00  0.00    +0.000 A 
ATOM     22  H   UNL     1       4.533   8.718  17.841  0.00  0.00    +0.000 HD
ATOM     23  H   UNL     1       1.357   6.284  19.592  0.00  0.00    +0.000 HD
ENDROOT
TORSDOF 0
ENDMDL
MODEL 9
REMARK VINA RESULT:      -6.9      7.949     10.049
REMARK  Name = 
REMARK  0 active torsions:
REMARK  status: ('A' for Active; 'I' for Inactive)
REMARK                            x       y       z     vdW  Elec       q    Type
REMARK                         _______ _______ _______ _____ _____    ______ ____
ROOT
ATOM      1  O   UNL     1      -1.695  13.384  20.860  0.00  0.00    +0.000 OA
ATOM      2  C   UNL     1      -1.411  12.220  20.575  0.00  0.00    +0.000 C 
ATOM      3  N   UNL     1      -0.642  11.509  21.429  0.00  0.00    +0.000 N 
ATOM      4  C   UNL     1      -0.458  10.079  21.395  0.00  0.00    +0.000 C 
ATOM      5  C   UNL     1       0.552   9.707  22.483  0.00  0.00    +0.000 C 
ATOM      6  C   UNL     1       1.527   8.690  21.903  0.00  0.00    +0.000 C 
ATOM      7  C   UNL     1       1.326   8.843  20.429  0.00  0.00    +0.000 A 
ATOM      8  C   UNL     1       2.091   8.279  19.426  0.00  0.00    +0.000 A 
ATOM      9  C   UNL     1       1.696   8.481  18.105  0.00  0.00    +0.000 A 
ATOM     10  C   UNL     1       0.536   9.229  17.801  0.00  0.00    +0.000 A 
ATOM     11  C   UNL     1      -0.244   9.812  18.810  0.00  0.00    +0.000 A 
ATOM     12  C   UNL     1       0.191   9.608  20.129  0.00  0.00    +0.000 A 
ATOM     13  C   UNL     1      -1.485  10.560  18.542  0.00  0.00    +0.000 A 
ATOM     14  C   UNL     1      -1.924  11.572  19.416  0.00  0.00    +0.000 A 
ATOM     15  N   UNL     1      -3.107  12.049  18.911  0.00  0.00    +0.000 N 
ATOM     16  C   UNL     1      -3.500  11.332  17.830  0.00  0.00    +0.000 A 
ATOM     17  C   UNL     1      -4.681  11.482  17.109  0.00  0.00    +0.000 A 
ATOM     18  C   UNL     1      -4.430  11.559  15.750  0.00  0.00    +0.000 A 
ATOM     19  C   UNL     1      -3.361  10.851  15.213  0.00  0.00    +0.000 A 
ATOM     20  C   UNL     1      -2.410  10.222  16.047  0.00  0.00    +0.000 A 
ATOM     21  C   UNL     1      -2.376  10.630  17.396  0.00  0.00    +0.000 A 
ATOM     22  H   UNL     1      -0.538  11.996  22.297  0.00  0.00    +0.000 HD
ATOM     23  H   UNL     1      -3.583  12.853  19.287  0.00  0.00    +0.000 HD
ENDROOT
TORSDOF 0
ENDMDL
