MODEL 1
REMARK VINA RESULT:      -7.3      0.000      0.000
REMARK  Name = 
REMARK  5 active torsions:
REMARK  status: ('A' for Active; 'I' for Inactive)
REMARK    1  A    between atoms: C_1  and  C_2
REMARK    2  A    between atoms: C_4  and  O_5
REMARK    3  A    between atoms: C_6  and  C_7
REMARK    4  A    between atoms: C_7  and  C_9
REMARK    5  A    between atoms: C_10  and  C_11
REMARK                            x       y       z     vdW  Elec       q    Type
REMARK                         _______ _______ _______ _____ _____    ______ ____
ROOT
ATOM      1  C   UNL     1       8.240   8.952  18.111  0.00  0.00    +0.000 C 
ATOM      2  C   UNL     1       7.604   7.660  17.711  0.00  0.00    +0.000 A 
ATOM      3  C   UNL     1       7.946   6.458  18.182  0.00  0.00    +0.000 A 
ATOM      4  C   UNL     1       7.222   5.293  17.738  0.00  0.00    +0.000 A 
ATOM      5  C   UNL     1       6.240   5.372  16.816  0.00  0.00    +0.000 A 
ATOM      6  C   UNL     1       5.945   6.707  16.228  0.00  0.00    +0.000 A 
ATOM      7  O   UNL     1       5.159   6.856  15.298  0.00  0.00    +0.000 OA
ATOM      8  O   UNL     1       6.583   7.797  16.752  0.00  0.00    +0.000 OA
ENDROOT
BRANCH   4   9
ATOM      9  O   UNL     1       7.589   4.116  18.351  0.00  0.00    +0.000 OA
ATOM     10  H   UNL     1       7.391   4.146  19.303  0.00  0.00    +0.000 HD
ENDBRANCH   4   9
BRANCH   5  11
ATOM     11  C   UNL     1       5.517   4.133  16.362  0.00  0.00    +0.000 C 
ATOM     12  O   UNL     1       5.998   3.332  15.563  0.00  0.00    +0.000 OA
BRANCH  11  13
ATOM     13  C   UNL     1       4.150   3.907  16.909  0.00  0.00    +0.000 C 
ATOM     14  C   UNL     1       3.958   3.758  18.229  0.00  0.00    +0.000 C 
BRANCH  14  15
ATOM     15  C   UNL     1       2.670   3.413  18.727  0.00  0.00    +0.000 A 
ATOM     16  C   UNL     1       1.957   3.974  19.784  0.00  0.00    +0.000 A 
ATOM     17  C   UNL     1       0.743   3.257  19.924  0.00  0.00    +0.000 A 
ATOM     18  C   UNL     1       0.764   2.293  18.949  0.00  0.00    +0.000 A 
ATOM     19  O   UNL     1       1.903   2.383  18.224  0.00  0.00    +0.000 OA
ENDBRANCH  14  15
ENDBRANCH  11  13
ENDBRANCH   5  11
TORSDOF 4
ENDMDL
MODEL 2
REMARK VINA RESULT:      -7.2      0.831      1.004
REMARK  Name = 
REMARK  5 active torsions:
REMARK  status: ('A' for Active; 'I' for Inactive)
REMARK    1  A    between atoms: C_1  and  C_2
REMARK    2  A    between atoms: C_4  and  O_5
REMARK    3  A    between atoms: C_6  and  C_7
REMARK    4  A    between atoms: C_7  and  C_9
REMARK    5  A    between atoms: C_10  and  C_11
REMARK                            x       y       z     vdW  Elec       q    Type
REMARK                         _______ _______ _______ _____ _____    ______ ____
ROOT
ATOM      1  C   UNL     1       8.268   8.912  18.106  0.00  0.00    +0.000 C 
ATOM      2  C   UNL     1       7.617   7.628  17.709  0.00  0.00    +0.000 A 
ATOM      3  C   UNL     1       7.951   6.421  18.174  0.00  0.00    +0.000 A 
ATOM      4  C   UNL     1       7.213   5.264  17.734  0.00  0.00    +0.000 A 
ATOM      5  C   UNL     1       6.223   5.354  16.822  0.00  0.00    +0.000 A 
ATOM      6  C   UNL     1       5.935   6.693  16.239  0.00  0.00    +0.000 A 
ATOM      7  O   UNL     1       5.142   6.852  15.317  0.00  0.00    +0.000 OA
ATOM      8  O   UNL     1       6.589   7.777  16.760  0.00  0.00    +0.000 OA
ENDROOT
BRANCH   4   9
ATOM      9  O   UNL     1       7.574   4.082  18.341  0.00  0.00    +0.000 OA
ATOM     10  H   UNL     1       8.323   4.219  18.946  0.00  0.00    +0.000 HD
ENDBRANCH   4   9
BRANCH   5  11
ATOM     11  C   UNL     1       5.484   4.124  16.371  0.00  0.00    +0.000 C 
ATOM     12  O   UNL     1       5.752   3.525  15.331  0.00  0.00    +0.000 OA
BRANCH  11  13
ATOM     13  C   UNL     1       4.371   3.646  17.238  0.00  0.00    +0.000 C 
ATOM     14  C   UNL     1       3.417   4.493  17.656  0.00  0.00    +0.000 C 
BRANCH  14  15
ATOM     15  C   UNL     1       2.434   4.055  18.588  0.00  0.00    +0.000 A 
ATOM     16  C   UNL     1       1.685   2.882  18.589  0.00  0.00    +0.000 A 
ATOM     17  C   UNL     1       0.806   2.923  19.699  0.00  0.00    +0.000 A 
ATOM     18  C   UNL     1       1.055   4.115  20.329  0.00  0.00    +0.000 A 
ATOM     19  O   UNL     1       2.031   4.794  19.681  0.00  0.00    +0.000 OA
ENDBRANCH  14  15
ENDBRANCH  11  13
ENDBRANCH   5  11
TORSDOF 4
ENDMDL
MODEL 3
REMARK VINA RESULT:      -7.1      2.273      5.886
REMARK  Name = 
REMARK  5 active torsions:
REMARK  status: ('A' for Active; 'I' for Inactive)
REMARK    1  A    between atoms: C_1  and  C_2
REMARK    2  A    between atoms: C_4  and  O_5
REMARK    3  A    between atoms: C_6  and  C_7
REMARK    4  A    between atoms: C_7  and  C_9
REMARK    5  A    between atoms: C_10  and  C_11
REMARK                            x       y       z     vdW  Elec       q    Type
REMARK                         _______ _______ _______ _____ _____    ______ ____
ROOT
ATOM      1  C   UNL     1       0.552   3.464  19.992  0.00  0.00    +0.000 C 
ATOM      2  C   UNL     1       2.000   3.737  19.746  0.00  0.00    +0.000 A 
ATOM      3  C   UNL     1       2.990   2.860  19.932  0.00  0.00    +0.000 A 
ATOM      4  C   UNL     1       4.343   3.244  19.620  0.00  0.00    +0.000 A 
ATOM      5  C   UNL     1       4.652   4.487  19.195  0.00  0.00    +0.000 A 
ATOM      6  C   UNL     1       3.549   5.481  19.094  0.00  0.00    +0.000 A 
ATOM      7  O   UNL     1       3.750   6.663  18.838  0.00  0.00    +0.000 OA
ATOM      8  O   UNL     1       2.268   5.045  19.300  0.00  0.00    +0.000 OA
ENDROOT
BRANCH   4   9
ATOM      9  O   UNL     1       5.276   2.240  19.757  0.00  0.00    +0.000 OA
ATOM     10  H   UNL     1       5.771   2.114  18.930  0.00  0.00    +0.000 HD
ENDBRANCH   4   9
BRANCH   5  11
ATOM     11  C   UNL     1       6.078   4.860  18.895  0.00  0.00    +0.000 C 
ATOM     12  O   UNL     1       6.833   5.349  19.734  0.00  0.00    +0.000 OA
BRANCH  11  13
ATOM     13  C   UNL     1       6.561   4.630  17.505  0.00  0.00    +0.000 C 
ATOM     14  C   UNL     1       5.985   5.258  16.468  0.00  0.00    +0.000 C 
BRANCH  14  15
ATOM     15  C   UNL     1       6.367   4.932  15.136  0.00  0.00    +0.000 A 
ATOM     16  C   UNL     1       5.761   4.060  14.237  0.00  0.00    +0.000 A 
ATOM     17  C   UNL     1       6.540   4.037  13.053  0.00  0.00    +0.000 A 
ATOM     18  C   UNL     1       7.585   4.895  13.278  0.00  0.00    +0.000 A 
ATOM     19  O   UNL     1       7.487   5.442  14.512  0.00  0.00    +0.000 OA
ENDBRANCH  14  15
ENDBRANCH  11  13
ENDBRANCH   5  11
TORSDOF 4
ENDMDL
MODEL 4
REMARK VINA RESULT:      -6.8      2.060      7.024
REMARK  Name = 
REMARK  5 active torsions:
REMARK  status: ('A' for Active; 'I' for Inactive)
REMARK    1  A    between atoms: C_1  and  C_2
REMARK    2  A    between atoms: C_4  and  O_5
REMARK    3  A    between atoms: C_6  and  C_7
REMARK    4  A    between atoms: C_7  and  C_9
REMARK    5  A    between atoms: C_10  and  C_11
REMARK                            x       y       z     vdW  Elec       q    Type
REMARK                         _______ _______ _______ _____ _____    ______ ____
ROOT
ATOM      1  C   UNL     1       2.549   3.938  19.165  0.00  0.00    +0.000 C 
ATOM      2  C   UNL     1       3.724   4.649  18.577  0.00  0.00    +0.000 A 
ATOM      3  C   UNL     1       3.769   5.172  17.348  0.00  0.00    +0.000 A 
ATOM      4  C   UNL     1       4.957   5.866  16.918  0.00  0.00    +0.000 A 
ATOM      5  C   UNL     1       6.051   5.961  17.703  0.00  0.00    +0.000 A 
ATOM      6  C   UNL     1       6.017   5.283  19.027  0.00  0.00    +0.000 A 
ATOM      7  O   UNL     1       7.003   5.208  19.753  0.00  0.00    +0.000 OA
ATOM      8  O   UNL     1       4.836   4.725  19.435  0.00  0.00    +0.000 OA
ENDROOT
BRANCH   4   9
ATOM      9  O   UNL     1       4.869   6.446  15.673  0.00  0.00    +0.000 OA
ATOM     10  H   UNL     1       5.305   7.315  15.665  0.00  0.00    +0.000 HD
ENDBRANCH   4   9
BRANCH   5  11
ATOM     11  C   UNL     1       7.281   6.677  17.216  0.00  0.00    +0.000 C 
ATOM     12  O   UNL     1       7.856   6.386  16.169  0.00  0.00    +0.000 OA
BRANCH  11  13
ATOM     13  C   UNL     1       7.810   7.774  18.074  0.00  0.00    +0.000 C 
ATOM     14  C   UNL     1       8.035   8.994  17.564  0.00  0.00    +0.000 C 
BRANCH  14  15
ATOM     15  C   UNL     1       8.663   9.995  18.359  0.00  0.00    +0.000 A 
ATOM     16  C   UNL     1       8.829  11.351  18.095  0.00  0.00    +0.000 A 
ATOM     17  C   UNL     1       9.557  11.922  19.168  0.00  0.00    +0.000 A 
ATOM     18  C   UNL     1       9.804  10.894  20.040  0.00  0.00    +0.000 A 
ATOM     19  O   UNL     1       9.266   9.742  19.574  0.00  0.00    +0.000 OA
ENDBRANCH  14  15
ENDBRANCH  11  13
ENDBRANCH   5  11
TORSDOF 4
ENDMDL
MODEL 5
REMARK VINA RESULT:      -6.8      2.002      3.388
REMARK  Name = 
REMARK  5 active torsions:
REMARK  status: ('A' for Active; 'I' for Inactive)
REMARK    1  A    between atoms: C_1  and  C_2
REMARK    2  A    between atoms: C_4  and  O_5
REMARK    3  A    between atoms: C_6  and  C_7
REMARK    4  A    between atoms: C_7  and  C_9
REMARK    5  A    between atoms: C_10  and  C_11
REMARK                            x       y       z     vdW  Elec       q    Type
REMARK                         _______ _______ _______ _____ _____    ______ ____
ROOT
ATOM      1  C   UNL     1       6.826   4.635  13.353  0.00  0.00    +0.000 C 
ATOM      2  C   UNL     1       6.556   4.887  14.801  0.00  0.00    +0.000 A 
ATOM      3  C   UNL     1       5.539   5.610  15.279  0.00  0.00    +0.000 A 
ATOM      4  C   UNL     1       5.374   5.742  16.704  0.00  0.00    +0.000 A 
ATOM      5  C   UNL     1       6.249   5.200  17.577  0.00  0.00    +0.000 A 
ATOM      6  C   UNL     1       7.431   4.488  17.023  0.00  0.00    +0.000 A 
ATOM      7  O   UNL     1       8.341   4.073  17.733  0.00  0.00    +0.000 OA
ATOM      8  O   UNL     1       7.494   4.298  15.669  0.00  0.00    +0.000 OA
ENDROOT
BRANCH   4   9
ATOM      9  O   UNL     1       4.245   6.428  17.094  0.00  0.00    +0.000 OA
ATOM     10  H   UNL     1       3.587   5.822  17.475  0.00  0.00    +0.000 HD
ENDBRANCH   4   9
BRANCH   5  11
ATOM     11  C   UNL     1       6.056   5.374  19.059  0.00  0.00    +0.000 C 
ATOM     12  O   UNL     1       6.929   5.819  19.801  0.00  0.00    +0.000 OA
BRANCH  11  13
ATOM     13  C   UNL     1       4.741   4.960  19.624  0.00  0.00    +0.000 C 
ATOM     14  C   UNL     1       4.268   3.720  19.420  0.00  0.00    +0.000 C 
BRANCH  14  15
ATOM     15  C   UNL     1       2.956   3.378  19.852  0.00  0.00    +0.000 A 
ATOM     16  C   UNL     1       1.768   3.361  19.126  0.00  0.00    +0.000 A 
ATOM     17  C   UNL     1       0.720   2.998  20.006  0.00  0.00    +0.000 A 
ATOM     18  C   UNL     1       1.309   2.807  21.230  0.00  0.00    +0.000 A 
ATOM     19  O   UNL     1       2.643   3.021  21.147  0.00  0.00    +0.000 OA
ENDBRANCH  14  15
ENDBRANCH  11  13
ENDBRANCH   5  11
TORSDOF 4
ENDMDL
MODEL 6
REMARK VINA RESULT:      -6.7      1.361      2.423
REMARK  Name = 
REMARK  5 active torsions:
REMARK  status: ('A' for Active; 'I' for Inactive)
REMARK    1  A    between atoms: C_1  and  C_2
REMARK    2  A    between atoms: C_4  and  O_5
REMARK    3  A    between atoms: C_6  and  C_7
REMARK    4  A    between atoms: C_7  and  C_9
REMARK    5  A    between atoms: C_10  and  C_11
REMARK                            x       y       z     vdW  Elec       q    Type
REMARK                         _______ _______ _______ _____ _____    ______ ____
ROOT
ATOM      1  C   UNL     1       8.895   9.612  18.550  0.00  0.00    +0.000 C 
ATOM      2  C   UNL     1       8.135   8.371  18.208  0.00  0.00    +0.000 A 
ATOM      3  C   UNL     1       7.192   8.283  17.266  0.00  0.00    +0.000 A 
ATOM      4  C   UNL     1       6.562   7.012  17.014  0.00  0.00    +0.000 A 
ATOM      5  C   UNL     1       6.857   5.913  17.739  0.00  0.00    +0.000 A 
ATOM      6  C   UNL     1       7.833   6.057  18.853  0.00  0.00    +0.000 A 
ATOM      7  O   UNL     1       8.069   5.148  19.642  0.00  0.00    +0.000 OA
ATOM      8  O   UNL     1       8.482   7.254  18.990  0.00  0.00    +0.000 OA
ENDROOT
BRANCH   4   9
ATOM      9  O   UNL     1       5.673   7.006  15.962  0.00  0.00    +0.000 OA
ATOM     10  H   UNL     1       6.078   7.388  15.165  0.00  0.00    +0.000 HD
ENDBRANCH   4   9
BRANCH   5  11
ATOM     11  C   UNL     1       6.166   4.606  17.461  0.00  0.00    +0.000 C 
ATOM     12  O   UNL     1       6.435   3.899  16.492  0.00  0.00    +0.000 OA
BRANCH  11  13
ATOM     13  C   UNL     1       5.100   4.187  18.414  0.00  0.00    +0.000 C 
ATOM     14  C   UNL     1       3.809   4.204  18.047  0.00  0.00    +0.000 C 
BRANCH  14  15
ATOM     15  C   UNL     1       2.792   3.927  19.004  0.00  0.00    +0.000 A 
ATOM     16  C   UNL     1       1.647   3.148  18.869  0.00  0.00    +0.000 A 
ATOM     17  C   UNL     1       0.922   3.217  20.085  0.00  0.00    +0.000 A 
ATOM     18  C   UNL     1       1.654   4.032  20.909  0.00  0.00    +0.000 A 
ATOM     19  O   UNL     1       2.776   4.453  20.280  0.00  0.00    +0.000 OA
ENDBRANCH  14  15
ENDBRANCH  11  13
ENDBRANCH   5  11
TORSDOF 4
ENDMDL
MODEL 7
REMARK VINA RESULT:      -6.7      2.201      5.917
REMARK  Name = 
REMARK  5 active torsions:
REMARK  status: ('A' for Active; 'I' for Inactive)
REMARK    1  A    between atoms: C_1  and  C_2
REMARK    2  A    between atoms: C_4  and  O_5
REMARK    3  A    between atoms: C_6  and  C_7
REMARK    4  A    between atoms: C_7  and  C_9
REMARK    5  A    between atoms: C_10  and  C_11
REMARK                            x       y       z     vdW  Elec       q    Type
REMARK                         _______ _______ _______ _____ _____    ______ ____
ROOT
ATOM      1  C   UNL     1       0.420   2.698  19.191  0.00  0.00    +0.000 C 
ATOM      2  C   UNL     1       1.843   3.145  19.104  0.00  0.00    +0.000 A 
ATOM      3  C   UNL     1       2.899   2.431  19.505  0.00  0.00    +0.000 A 
ATOM      4  C   UNL     1       4.224   2.969  19.329  0.00  0.00    +0.000 A 
ATOM      5  C   UNL     1       4.432   4.200  18.817  0.00  0.00    +0.000 A 
ATOM      6  C   UNL     1       3.239   5.020  18.473  0.00  0.00    +0.000 A 
ATOM      7  O   UNL     1       3.326   6.191  18.121  0.00  0.00    +0.000 OA
ATOM      8  O   UNL     1       2.007   4.433  18.560  0.00  0.00    +0.000 OA
ENDROOT
BRANCH   4   9
ATOM      9  O   UNL     1       5.246   2.118  19.688  0.00  0.00    +0.000 OA
ATOM     10  H   UNL     1       4.989   1.573  20.451  0.00  0.00    +0.000 HD
ENDBRANCH   4   9
BRANCH   5  11
ATOM     11  C   UNL     1       5.829   4.738  18.664  0.00  0.00    +0.000 C 
ATOM     12  O   UNL     1       6.529   5.068  19.619  0.00  0.00    +0.000 OA
BRANCH  11  13
ATOM     13  C   UNL     1       6.351   4.881  17.275  0.00  0.00    +0.000 C 
ATOM     14  C   UNL     1       5.707   4.318  16.241  0.00  0.00    +0.000 C 
BRANCH  14  15
ATOM     15  C   UNL     1       6.284   4.350  14.940  0.00  0.00    +0.000 A 
ATOM     16  C   UNL     1       7.281   5.184  14.442  0.00  0.00    +0.000 A 
ATOM     17  C   UNL     1       7.481   4.863  13.076  0.00  0.00    +0.000 A 
ATOM     18  C   UNL     1       6.601   3.848  12.799  0.00  0.00    +0.000 A 
ATOM     19  O   UNL     1       5.890   3.528  13.905  0.00  0.00    +0.000 OA
ENDBRANCH  14  15
ENDBRANCH  11  13
ENDBRANCH   5  11
TORSDOF 4
ENDMDL
MODEL 8
REMARK VINA RESULT:      -6.7      2.160      6.185
REMARK  Name = 
REMARK  5 active torsions:
REMARK  status: ('A' for Active; 'I' for Inactive)
REMARK    1  A    between atoms: C_1  and  C_2
REMARK    2  A    between atoms: C_4  and  O_5
REMARK    3  A    between atoms: C_6  and  C_7
REMARK    4  A    between atoms: C_7  and  C_9
REMARK    5  A    between atoms: C_10  and  C_11
REMARK                            x       y       z     vdW  Elec       q    Type
REMARK                         _______ _______ _______ _____ _____    ______ ____
ROOT
ATOM      1  C   UNL     1       0.652   2.988  19.720  0.00  0.00    +0.000 C 
ATOM      2  C   UNL     1       2.002   3.571  19.456  0.00  0.00    +0.000 A 
ATOM      3  C   UNL     1       2.228   4.770  18.911  0.00  0.00    +0.000 A 
ATOM      4  C   UNL     1       3.585   5.227  18.746  0.00  0.00    +0.000 A 
ATOM      5  C   UNL     1       4.642   4.456  19.077  0.00  0.00    +0.000 A 
ATOM      6  C   UNL     1       4.370   3.084  19.584  0.00  0.00    +0.000 A 
ATOM      7  O   UNL     1       5.264   2.271  19.792  0.00  0.00    +0.000 OA
ATOM      8  O   UNL     1       3.070   2.731  19.822  0.00  0.00    +0.000 OA
ENDROOT
BRANCH   4   9
ATOM      9  O   UNL     1       3.708   6.510  18.263  0.00  0.00    +0.000 OA
ATOM     10  H   UNL     1       4.053   6.506  17.354  0.00  0.00    +0.000 HD
ENDBRANCH   4   9
BRANCH   5  11
ATOM     11  C   UNL     1       6.046   4.958  18.874  0.00  0.00    +0.000 C 
ATOM     12  O   UNL     1       6.792   5.255  19.804  0.00  0.00    +0.000 OA
BRANCH  11  13
ATOM     13  C   UNL     1       6.516   5.106  17.468  0.00  0.00    +0.000 C 
ATOM     14  C   UNL     1       5.843   4.533  16.458  0.00  0.00    +0.000 C 
BRANCH  14  15
ATOM     15  C   UNL     1       6.372   4.571  15.136  0.00  0.00    +0.000 A 
ATOM     16  C   UNL     1       5.992   3.837  14.017  0.00  0.00    +0.000 A 
ATOM     17  C   UNL     1       6.848   4.195  12.945  0.00  0.00    +0.000 A 
ATOM     18  C   UNL     1       7.711   5.131  13.454  0.00  0.00    +0.000 A 
ATOM     19  O   UNL     1       7.430   5.371  14.756  0.00  0.00    +0.000 OA
ENDBRANCH  14  15
ENDBRANCH  11  13
ENDBRANCH   5  11
TORSDOF 4
ENDMDL
MODEL 9
REMARK VINA RESULT:      -6.6      1.301      1.461
REMARK  Name = 
REMARK  5 active torsions:
REMARK  status: ('A' for Active; 'I' for Inactive)
REMARK    1  A    between atoms: C_1  and  C_2
REMARK    2  A    between atoms: C_4  and  O_5
REMARK    3  A    between atoms: C_6  and  C_7
REMARK    4  A    between atoms: C_7  and  C_9
REMARK    5  A    between atoms: C_10  and  C_11
REMARK                            x       y       z     vdW  Elec       q    Type
REMARK                         _______ _______ _______ _____ _____    ______ ____
ROOT
ATOM      1  C   UNL     1       8.591   9.689  17.851  0.00  0.00    +0.000 C 
ATOM      2  C   UNL     1       7.941   8.344  17.879  0.00  0.00    +0.000 A 
ATOM      3  C   UNL     1       8.312   7.326  18.661  0.00  0.00    +0.000 A 
ATOM      4  C   UNL     1       7.572   6.091  18.613  0.00  0.00    +0.000 A 
ATOM      5  C   UNL     1       6.542   5.909  17.761  0.00  0.00    +0.000 A 
ATOM      6  C   UNL     1       6.210   7.018  16.826  0.00  0.00    +0.000 A 
ATOM      7  O   UNL     1       5.376   6.899  15.935  0.00  0.00    +0.000 OA
ATOM      8  O   UNL     1       6.870   8.207  16.976  0.00  0.00    +0.000 OA
ENDROOT
BRANCH   4   9
ATOM      9  O   UNL     1       7.976   5.139  19.522  0.00  0.00    +0.000 OA
ATOM     10  H   UNL     1       8.943   5.032  19.504  0.00  0.00    +0.000 HD
ENDBRANCH   4   9
BRANCH   5  11
ATOM     11  C   UNL     1       5.802   4.600  17.725  0.00  0.00    +0.000 C 
ATOM     12  O   UNL     1       6.027   3.726  16.889  0.00  0.00    +0.000 OA
BRANCH  11  13
ATOM     13  C   UNL     1       4.742   4.392  18.751  0.00  0.00    +0.000 C 
ATOM     14  C   UNL     1       4.103   3.216  18.846  0.00  0.00    +0.000 C 
BRANCH  14  15
ATOM     15  C   UNL     1       3.005   3.071  19.741  0.00  0.00    +0.000 A 
ATOM     16  C   UNL     1       1.662   3.373  19.538  0.00  0.00    +0.000 A 
ATOM     17  C   UNL     1       0.964   3.100  20.741  0.00  0.00    +0.000 A 
ATOM     18  C   UNL     1       1.907   2.643  21.624  0.00  0.00    +0.000 A 
ATOM     19  O   UNL     1       3.126   2.612  21.036  0.00  0.00    +0.000 OA
ENDBRANCH  14  15
ENDBRANCH  11  13
ENDBRANCH   5  11
TORSDOF 4
ENDMDL
