MODEL 1
REMARK VINA RESULT:      -9.3      0.000      0.000
REMARK  Name = 
REMARK  5 active torsions:
REMARK  status: ('A' for Active; 'I' for Inactive)
REMARK    1  A    between atoms: C_2  and  C_3
REMARK    2  A    between atoms: C_2  and  C_10
REMARK    3  A    between atoms: C_13  and  C_14
REMARK    4  A    between atoms: C_15  and  C_16
REMARK    5  A    between atoms: C_16  and  O_17
REMARK                            x       y       z     vdW  Elec       q    Type
REMARK                         _______ _______ _______ _____ _____    ______ ____
ROOT
ATOM      1  C   UNL     1       6.691   5.781  17.485  0.00  0.00    +0.000 A 
ATOM      2  C   UNL     1       7.614   5.718  18.535  0.00  0.00    +0.000 A 
ATOM      3  C   UNL     1       8.330   6.859  18.917  0.00  0.00    +0.000 A 
ATOM      4  C   UNL     1       8.118   8.072  18.258  0.00  0.00    +0.000 A 
ATOM      5  C   UNL     1       7.219   8.132  17.190  0.00  0.00    +0.000 A 
ATOM      6  C   UNL     1       6.499   6.994  16.810  0.00  0.00    +0.000 A 
ENDROOT
BRANCH   1   8
ATOM      7  O   UNL     1       6.249   3.831  16.255  0.00  0.00    +0.000 OA
ATOM      8  C   UNL     1       5.887   4.568  17.166  0.00  0.00    +0.000 C 
BRANCH   8   9
ATOM      9  C   UNL     1       4.664   4.217  17.935  0.00  0.00    +0.000 A 
ATOM     10  C   UNL     1       3.432   4.751  17.533  0.00  0.00    +0.000 A 
ATOM     11  C   UNL     1       2.267   4.430  18.238  0.00  0.00    +0.000 A 
ATOM     12  C   UNL     1       2.340   3.589  19.347  0.00  0.00    +0.000 A 
ATOM     13 BR   UNL     1       0.768   3.144  20.298  0.00  0.00    +0.000 Br
ATOM     14  C   UNL     1       3.565   3.075  19.771  0.00  0.00    +0.000 A 
ATOM     15  C   UNL     1       4.729   3.398  19.069  0.00  0.00    +0.000 A 
ENDBRANCH   8   9
ENDBRANCH   1   8
BRANCH   4  16
ATOM     16  C   UNL     1       8.772   9.264  18.713  0.00  0.00    +0.000 C 
ATOM     17  C   UNL     1       9.320  10.245  19.144  0.00  0.00    +0.000 C 
BRANCH  17  18
ATOM     18  C   UNL     1       9.983  11.445  19.701  0.00  0.00    +0.000 C 
ATOM     19  C   UNL     1       9.225  12.760  19.324  0.00  0.00    +0.000 C 
ATOM     20  N   UNL     1      10.085  13.738  18.596  0.00  0.00    +0.000 NA
ATOM     21  C   UNL     1      11.240  14.082  19.456  0.00  0.00    +0.000 C 
ATOM     22  C   UNL     1      12.069  12.841  19.828  0.00  0.00    +0.000 C 
ATOM     23  C   UNL     1      11.438  11.586  19.186  0.00  0.00    +0.000 C 
ATOM     24  C   UNL     1      11.422  11.839  17.666  0.00  0.00    +0.000 C 
ATOM     25  C   UNL     1      10.587  13.094  17.362  0.00  0.00    +0.000 C 
BRANCH  18  26
ATOM     26  O   UNL     1      10.026  11.301  21.124  0.00  0.00    +0.000 OA
ATOM     27  H   UNL     1      10.041  10.347  21.312  0.00  0.00    +0.000 HD
ENDBRANCH  18  26
ENDBRANCH  17  18
ENDBRANCH   4  16
TORSDOF 5
ENDMDL
MODEL 2
REMARK VINA RESULT:      -8.9      0.433      1.042
REMARK  Name = 
REMARK  5 active torsions:
REMARK  status: ('A' for Active; 'I' for Inactive)
REMARK    1  A    between atoms: C_2  and  C_3
REMARK    2  A    between atoms: C_2  and  C_10
REMARK    3  A    between atoms: C_13  and  C_14
REMARK    4  A    between atoms: C_15  and  C_16
REMARK    5  A    between atoms: C_16  and  O_17
REMARK                            x       y       z     vdW  Elec       q    Type
REMARK                         _______ _______ _______ _____ _____    ______ ____
ROOT
ATOM      1  C   UNL     1       6.803   5.909  17.640  0.00  0.00    +0.000 A 
ATOM      2  C   UNL     1       6.519   7.137  17.031  0.00  0.00    +0.000 A 
ATOM      3  C   UNL     1       7.174   8.302  17.450  0.00  0.00    +0.000 A 
ATOM      4  C   UNL     1       8.124   8.242  18.472  0.00  0.00    +0.000 A 
ATOM      5  C   UNL     1       8.389   7.023  19.101  0.00  0.00    +0.000 A 
ATOM      6  C   UNL     1       7.739   5.857  18.681  0.00  0.00    +0.000 A 
ENDROOT
BRANCH   1   8
ATOM      7  O   UNL     1       6.689   4.064  16.193  0.00  0.00    +0.000 OA
ATOM      8  C   UNL     1       6.150   4.680  17.107  0.00  0.00    +0.000 C 
BRANCH   8   9
ATOM      9  C   UNL     1       4.869   4.171  17.664  0.00  0.00    +0.000 A 
ATOM     10  C   UNL     1       3.666   4.539  17.048  0.00  0.00    +0.000 A 
ATOM     11  C   UNL     1       2.449   4.067  17.551  0.00  0.00    +0.000 A 
ATOM     12  C   UNL     1       2.440   3.242  18.675  0.00  0.00    +0.000 A 
ATOM     13 BR   UNL     1       0.798   2.593  19.354  0.00  0.00    +0.000 Br
ATOM     14  C   UNL     1       3.630   2.893  19.311  0.00  0.00    +0.000 A 
ATOM     15  C   UNL     1       4.845   3.366  18.810  0.00  0.00    +0.000 A 
ENDBRANCH   8   9
ENDBRANCH   1   8
BRANCH   4  16
ATOM     16  C   UNL     1       8.870   9.412  18.832  0.00  0.00    +0.000 C 
ATOM     17  C   UNL     1       9.477  10.390  19.184  0.00  0.00    +0.000 C 
BRANCH  17  18
ATOM     18  C   UNL     1      10.204  11.596  19.639  0.00  0.00    +0.000 C 
ATOM     19  C   UNL     1       9.455  12.912  19.249  0.00  0.00    +0.000 C 
ATOM     20  N   UNL     1      10.289  13.832  18.421  0.00  0.00    +0.000 NA
ATOM     21  C   UNL     1      11.506  14.184  19.188  0.00  0.00    +0.000 C 
ATOM     22  C   UNL     1      12.327  12.940  19.564  0.00  0.00    +0.000 C 
ATOM     23  C   UNL     1      11.625  11.673  19.024  0.00  0.00    +0.000 C 
ATOM     24  C   UNL     1      11.515  11.856  17.498  0.00  0.00    +0.000 C 
ATOM     25  C   UNL     1      10.692  13.119  17.190  0.00  0.00    +0.000 C 
BRANCH  18  26
ATOM     26  O   UNL     1      10.338  11.517  21.061  0.00  0.00    +0.000 OA
ATOM     27  H   UNL     1       9.588  10.992  21.387  0.00  0.00    +0.000 HD
ENDBRANCH  18  26
ENDBRANCH  17  18
ENDBRANCH   4  16
TORSDOF 5
ENDMDL
MODEL 3
REMARK VINA RESULT:      -8.7      1.165      2.088
REMARK  Name = 
REMARK  5 active torsions:
REMARK  status: ('A' for Active; 'I' for Inactive)
REMARK    1  A    between atoms: C_2  and  C_3
REMARK    2  A    between atoms: C_2  and  C_10
REMARK    3  A    between atoms: C_13  and  C_14
REMARK    4  A    between atoms: C_15  and  C_16
REMARK    5  A    between atoms: C_16  and  O_17
REMARK                            x       y       z     vdW  Elec       q    Type
REMARK                         _______ _______ _______ _____ _____    ______ ____
ROOT
ATOM      1  C   UNL     1       6.708   6.058  17.702  0.00  0.00    +0.000 A 
ATOM      2  C   UNL     1       6.225   7.179  17.017  0.00  0.00    +0.000 A 
ATOM      3  C   UNL     1       6.840   8.426  17.180  0.00  0.00    +0.000 A 
ATOM      4  C   UNL     1       7.949   8.557  18.019  0.00  0.00    +0.000 A 
ATOM      5  C   UNL     1       8.416   7.446  18.727  0.00  0.00    +0.000 A 
ATOM      6  C   UNL     1       7.806   6.198  18.562  0.00  0.00    +0.000 A 
ENDROOT
BRANCH   1   8
ATOM      7  O   UNL     1       6.651   3.940  16.693  0.00  0.00    +0.000 OA
ATOM      8  C   UNL     1       6.081   4.733  17.435  0.00  0.00    +0.000 C 
BRANCH   8   9
ATOM      9  C   UNL     1       4.789   4.341  18.055  0.00  0.00    +0.000 A 
ATOM     10  C   UNL     1       4.802   3.665  19.283  0.00  0.00    +0.000 A 
ATOM     11  C   UNL     1       3.598   3.291  19.889  0.00  0.00    +0.000 A 
ATOM     12  C   UNL     1       2.388   3.581  19.259  0.00  0.00    +0.000 A 
ATOM     13 BR   UNL     1       0.757   3.087  20.078  0.00  0.00    +0.000 Br
ATOM     14  C   UNL     1       2.366   4.228  18.025  0.00  0.00    +0.000 A 
ATOM     15  C   UNL     1       3.569   4.600  17.418  0.00  0.00    +0.000 A 
ENDBRANCH   8   9
ENDBRANCH   1   8
BRANCH   4  16
ATOM     16  C   UNL     1       8.643   9.808  18.108  0.00  0.00    +0.000 C 
ATOM     17  C   UNL     1       9.187  10.880  18.155  0.00  0.00    +0.000 C 
BRANCH  17  18
ATOM     18  C   UNL     1       9.840  12.208  18.189  0.00  0.00    +0.000 C 
ATOM     19  C   UNL     1      11.322  12.144  17.695  0.00  0.00    +0.000 C 
ATOM     20  N   UNL     1      12.295  12.648  18.709  0.00  0.00    +0.000 NA
ATOM     21  C   UNL     1      11.958  14.054  19.027  0.00  0.00    +0.000 C 
ATOM     22  C   UNL     1      10.526  14.193  19.571  0.00  0.00    +0.000 C 
ATOM     23  C   UNL     1       9.854  12.802  19.621  0.00  0.00    +0.000 C 
ATOM     24  C   UNL     1      10.739  11.927  20.531  0.00  0.00    +0.000 C 
ATOM     25  C   UNL     1      12.155  11.836  19.938  0.00  0.00    +0.000 C 
BRANCH  18  26
ATOM     26  O   UNL     1       9.086  13.089  17.349  0.00  0.00    +0.000 OA
ATOM     27  H   UNL     1       9.600  13.909  17.265  0.00  0.00    +0.000 HD
ENDBRANCH  18  26
ENDBRANCH  17  18
ENDBRANCH   4  16
TORSDOF 5
ENDMDL
MODEL 4
REMARK VINA RESULT:      -8.4      1.002      1.952
REMARK  Name = 
REMARK  5 active torsions:
REMARK  status: ('A' for Active; 'I' for Inactive)
REMARK    1  A    between atoms: C_2  and  C_3
REMARK    2  A    between atoms: C_2  and  C_10
REMARK    3  A    between atoms: C_13  and  C_14
REMARK    4  A    between atoms: C_15  and  C_16
REMARK    5  A    between atoms: C_16  and  O_17
REMARK                            x       y       z     vdW  Elec       q    Type
REMARK                         _______ _______ _______ _____ _____    ______ ____
ROOT
ATOM      1  C   UNL     1       6.752   6.041  17.738  0.00  0.00    +0.000 A 
ATOM      2  C   UNL     1       6.422   7.210  17.042  0.00  0.00    +0.000 A 
ATOM      3  C   UNL     1       7.105   8.404  17.303  0.00  0.00    +0.000 A 
ATOM      4  C   UNL     1       8.129   8.432  18.252  0.00  0.00    +0.000 A 
ATOM      5  C   UNL     1       8.442   7.274  18.969  0.00  0.00    +0.000 A 
ATOM      6  C   UNL     1       7.764   6.078  18.706  0.00  0.00    +0.000 A 
ENDROOT
BRANCH   1   8
ATOM      7  O   UNL     1       6.570   4.037  16.529  0.00  0.00    +0.000 OA
ATOM      8  C   UNL     1       6.063   4.772  17.369  0.00  0.00    +0.000 C 
BRANCH   8   9
ATOM      9  C   UNL     1       4.782   4.365  18.005  0.00  0.00    +0.000 A 
ATOM     10  C   UNL     1       4.818   3.587  19.170  0.00  0.00    +0.000 A 
ATOM     11  C   UNL     1       3.626   3.198  19.789  0.00  0.00    +0.000 A 
ATOM     12  C   UNL     1       2.404   3.576  19.234  0.00  0.00    +0.000 A 
ATOM     13 BR   UNL     1       0.789   3.061  20.072  0.00  0.00    +0.000 Br
ATOM     14  C   UNL     1       2.358   4.327  18.061  0.00  0.00    +0.000 A 
ATOM     15  C   UNL     1       3.549   4.714  17.441  0.00  0.00    +0.000 A 
ENDBRANCH   8   9
ENDBRANCH   1   8
BRANCH   4  16
ATOM     16  C   UNL     1       8.898   9.626  18.448  0.00  0.00    +0.000 C 
ATOM     17  C   UNL     1       9.531  10.643  18.563  0.00  0.00    +0.000 C 
BRANCH  17  18
ATOM     18  C   UNL     1      10.310  11.897  18.675  0.00  0.00    +0.000 C 
ATOM     19  C   UNL     1      10.091  12.599  20.055  0.00  0.00    +0.000 C 
ATOM     20  N   UNL     1       9.581  13.996  19.922  0.00  0.00    +0.000 NA
ATOM     21  C   UNL     1      10.559  14.781  19.135  0.00  0.00    +0.000 C 
ATOM     22  C   UNL     1      10.790  14.180  17.739  0.00  0.00    +0.000 C 
ATOM     23  C   UNL     1       9.920  12.913  17.571  0.00  0.00    +0.000 C 
ATOM     24  C   UNL     1       8.460  13.360  17.777  0.00  0.00    +0.000 C 
ATOM     25  C   UNL     1       8.299  13.959  19.185  0.00  0.00    +0.000 C 
BRANCH  18  26
ATOM     26  O   UNL     1      11.693  11.569  18.511  0.00  0.00    +0.000 OA
ATOM     27  H   UNL     1      11.984  11.975  17.678  0.00  0.00    +0.000 HD
ENDBRANCH  18  26
ENDBRANCH  17  18
ENDBRANCH   4  16
TORSDOF 5
ENDMDL
MODEL 5
REMARK VINA RESULT:      -8.4      1.265      1.984
REMARK  Name = 
REMARK  5 active torsions:
REMARK  status: ('A' for Active; 'I' for Inactive)
REMARK    1  A    between atoms: C_2  and  C_3
REMARK    2  A    between atoms: C_2  and  C_10
REMARK    3  A    between atoms: C_13  and  C_14
REMARK    4  A    between atoms: C_15  and  C_16
REMARK    5  A    between atoms: C_16  and  O_17
REMARK                            x       y       z     vdW  Elec       q    Type
REMARK                         _______ _______ _______ _____ _____    ______ ____
ROOT
ATOM      1  C   UNL     1       6.606   6.011  17.833  0.00  0.00    +0.000 A 
ATOM      2  C   UNL     1       6.249   7.163  17.123  0.00  0.00    +0.000 A 
ATOM      3  C   UNL     1       6.972   8.350  17.290  0.00  0.00    +0.000 A 
ATOM      4  C   UNL     1       8.065   8.388  18.160  0.00  0.00    +0.000 A 
ATOM      5  C   UNL     1       8.407   7.248  18.892  0.00  0.00    +0.000 A 
ATOM      6  C   UNL     1       7.687   6.060  18.723  0.00  0.00    +0.000 A 
ENDROOT
BRANCH   1   8
ATOM      7  O   UNL     1       6.172   4.072  16.584  0.00  0.00    +0.000 OA
ATOM      8  C   UNL     1       5.866   4.747  17.562  0.00  0.00    +0.000 C 
BRANCH   8   9
ATOM      9  C   UNL     1       4.776   4.272  18.454  0.00  0.00    +0.000 A 
ATOM     10  C   UNL     1       4.170   5.182  19.330  0.00  0.00    +0.000 A 
ATOM     11  C   UNL     1       3.138   4.760  20.175  0.00  0.00    +0.000 A 
ATOM     12  C   UNL     1       2.726   3.428  20.150  0.00  0.00    +0.000 A 
ATOM     13 BR   UNL     1       1.325   2.853  21.282  0.00  0.00    +0.000 Br
ATOM     14  C   UNL     1       3.342   2.509  19.301  0.00  0.00    +0.000 A 
ATOM     15  C   UNL     1       4.374   2.931  18.459  0.00  0.00    +0.000 A 
ENDBRANCH   8   9
ENDBRANCH   1   8
BRANCH   4  16
ATOM     16  C   UNL     1       8.870   9.570  18.255  0.00  0.00    +0.000 C 
ATOM     17  C   UNL     1       9.576  10.543  18.297  0.00  0.00    +0.000 C 
BRANCH  17  18
ATOM     18  C   UNL     1      10.467  11.725  18.335  0.00  0.00    +0.000 C 
ATOM     19  C   UNL     1      11.170  11.882  19.723  0.00  0.00    +0.000 C 
ATOM     20  N   UNL     1      10.896  13.201  20.367  0.00  0.00    +0.000 NA
ATOM     21  C   UNL     1      11.373  14.274  19.465  0.00  0.00    +0.000 C 
ATOM     22  C   UNL     1      10.686  14.217  18.091  0.00  0.00    +0.000 C 
ATOM     23  C   UNL     1       9.689  13.037  18.059  0.00  0.00    +0.000 C 
ATOM     24  C   UNL     1       8.684  13.288  19.201  0.00  0.00    +0.000 C 
ATOM     25  C   UNL     1       9.434  13.343  20.542  0.00  0.00    +0.000 C 
BRANCH  18  26
ATOM     26  O   UNL     1      11.451  11.566  17.309  0.00  0.00    +0.000 OA
ATOM     27  H   UNL     1      11.001  11.711  16.460  0.00  0.00    +0.000 HD
ENDBRANCH  18  26
ENDBRANCH  17  18
ENDBRANCH   4  16
TORSDOF 5
ENDMDL
MODEL 6
REMARK VINA RESULT:      -8.4      0.920      1.541
REMARK  Name = 
REMARK  5 active torsions:
REMARK  status: ('A' for Active; 'I' for Inactive)
REMARK    1  A    between atoms: C_2  and  C_3
REMARK    2  A    between atoms: C_2  and  C_10
REMARK    3  A    between atoms: C_13  and  C_14
REMARK    4  A    between atoms: C_15  and  C_16
REMARK    5  A    between atoms: C_16  and  O_17
REMARK                            x       y       z     vdW  Elec       q    Type
REMARK                         _______ _______ _______ _____ _____    ______ ____
ROOT
ATOM      1  C   UNL     1       6.806   5.927  17.664  0.00  0.00    +0.000 A 
ATOM      2  C   UNL     1       6.516   7.126  17.002  0.00  0.00    +0.000 A 
ATOM      3  C   UNL     1       7.189   8.304  17.347  0.00  0.00    +0.000 A 
ATOM      4  C   UNL     1       8.165   8.287  18.347  0.00  0.00    +0.000 A 
ATOM      5  C   UNL     1       8.436   7.098  19.029  0.00  0.00    +0.000 A 
ATOM      6  C   UNL     1       7.767   5.919  18.683  0.00  0.00    +0.000 A 
ENDROOT
BRANCH   1   8
ATOM      7  O   UNL     1       6.645   4.013  16.315  0.00  0.00    +0.000 OA
ATOM      8  C   UNL     1       6.131   4.679  17.208  0.00  0.00    +0.000 C 
BRANCH   8   9
ATOM      9  C   UNL     1       4.859   4.211  17.818  0.00  0.00    +0.000 A 
ATOM     10  C   UNL     1       3.667   4.349  17.094  0.00  0.00    +0.000 A 
ATOM     11  C   UNL     1       2.459   3.910  17.645  0.00  0.00    +0.000 A 
ATOM     12  C   UNL     1       2.445   3.349  18.922  0.00  0.00    +0.000 A 
ATOM     13 BR   UNL     1       0.816   2.745  19.668  0.00  0.00    +0.000 Br
ATOM     14  C   UNL     1       3.622   3.233  19.660  0.00  0.00    +0.000 A 
ATOM     15  C   UNL     1       4.828   3.673  19.111  0.00  0.00    +0.000 A 
ENDBRANCH   8   9
ENDBRANCH   1   8
BRANCH   4  16
ATOM     16  C   UNL     1       8.928   9.467  18.631  0.00  0.00    +0.000 C 
ATOM     17  C   UNL     1       9.524  10.486  18.866  0.00  0.00    +0.000 C 
BRANCH  17  18
ATOM     18  C   UNL     1      10.234  11.754  19.143  0.00  0.00    +0.000 C 
ATOM     19  C   UNL     1       9.550  12.569  20.289  0.00  0.00    +0.000 C 
ATOM     20  N   UNL     1       9.147  13.943  19.865  0.00  0.00    +0.000 NA
ATOM     21  C   UNL     1      10.356  14.670  19.416  0.00  0.00    +0.000 C 
ATOM     22  C   UNL     1      11.059  13.955  18.251  0.00  0.00    +0.000 C 
ATOM     23  C   UNL     1      10.283  12.667  17.891  0.00  0.00    +0.000 C 
ATOM     24  C   UNL     1       8.854  13.111  17.523  0.00  0.00    +0.000 C 
ATOM     25  C   UNL     1       8.212  13.826  18.724  0.00  0.00    +0.000 C 
BRANCH  18  26
ATOM     26  O   UNL     1      11.578  11.432  19.513  0.00  0.00    +0.000 OA
ATOM     27  H   UNL     1      11.566  10.527  19.866  0.00  0.00    +0.000 HD
ENDBRANCH  18  26
ENDBRANCH  17  18
ENDBRANCH   4  16
TORSDOF 5
ENDMDL
MODEL 7
REMARK VINA RESULT:      -8.4      0.933      1.554
REMARK  Name = 
REMARK  5 active torsions:
REMARK  status: ('A' for Active; 'I' for Inactive)
REMARK    1  A    between atoms: C_2  and  C_3
REMARK    2  A    between atoms: C_2  and  C_10
REMARK    3  A    between atoms: C_13  and  C_14
REMARK    4  A    between atoms: C_15  and  C_16
REMARK    5  A    between atoms: C_16  and  O_17
REMARK                            x       y       z     vdW  Elec       q    Type
REMARK                         _______ _______ _______ _____ _____    ______ ____
ROOT
ATOM      1  C   UNL     1       6.507   5.815  17.462  0.00  0.00    +0.000 A 
ATOM      2  C   UNL     1       7.539   5.743  18.406  0.00  0.00    +0.000 A 
ATOM      3  C   UNL     1       8.286   6.883  18.724  0.00  0.00    +0.000 A 
ATOM      4  C   UNL     1       7.999   8.104  18.110  0.00  0.00    +0.000 A 
ATOM      5  C   UNL     1       6.989   8.173  17.146  0.00  0.00    +0.000 A 
ATOM      6  C   UNL     1       6.238   7.036  16.830  0.00  0.00    +0.000 A 
ENDROOT
BRANCH   1   8
ATOM      7  O   UNL     1       5.928   3.894  16.245  0.00  0.00    +0.000 OA
ATOM      8  C   UNL     1       5.679   4.601  17.215  0.00  0.00    +0.000 C 
BRANCH   8   9
ATOM      9  C   UNL     1       4.567   4.216  18.123  0.00  0.00    +0.000 A 
ATOM     10  C   UNL     1       4.840   3.388  19.220  0.00  0.00    +0.000 A 
ATOM     11  C   UNL     1       3.811   3.018  20.092  0.00  0.00    +0.000 A 
ATOM     12  C   UNL     1       2.512   3.465  19.855  0.00  0.00    +0.000 A 
ATOM     13 BR   UNL     1       1.118   2.975  21.035  0.00  0.00    +0.000 Br
ATOM     14  C   UNL     1       2.225   4.266  18.752  0.00  0.00    +0.000 A 
ATOM     15  C   UNL     1       3.253   4.634  17.880  0.00  0.00    +0.000 A 
ENDBRANCH   8   9
ENDBRANCH   1   8
BRANCH   4  16
ATOM     16  C   UNL     1       8.693   9.293  18.509  0.00  0.00    +0.000 C 
ATOM     17  C   UNL     1       9.264  10.313  18.797  0.00  0.00    +0.000 C 
BRANCH  17  18
ATOM     18  C   UNL     1       9.968  11.573  19.122  0.00  0.00    +0.000 C 
ATOM     19  C   UNL     1       9.250  12.367  20.262  0.00  0.00    +0.000 C 
ATOM     20  N   UNL     1       8.865  13.750  19.854  0.00  0.00    +0.000 NA
ATOM     21  C   UNL     1      10.089  14.483  19.459  0.00  0.00    +0.000 C 
ATOM     22  C   UNL     1      10.826  13.789  18.301  0.00  0.00    +0.000 C 
ATOM     23  C   UNL     1      10.059  12.511  17.891  0.00  0.00    +0.000 C 
ATOM     24  C   UNL     1       8.644  12.967  17.487  0.00  0.00    +0.000 C 
ATOM     25  C   UNL     1       7.966  13.659  18.682  0.00  0.00    +0.000 C 
BRANCH  18  26
ATOM     26  O   UNL     1      11.299  11.239  19.527  0.00  0.00    +0.000 OA
ATOM     27  H   UNL     1      11.865  11.326  18.742  0.00  0.00    +0.000 HD
ENDBRANCH  18  26
ENDBRANCH  17  18
ENDBRANCH   4  16
TORSDOF 5
ENDMDL
MODEL 8
REMARK VINA RESULT:      -8.2      8.087     11.377
REMARK  Name = 
REMARK  5 active torsions:
REMARK  status: ('A' for Active; 'I' for Inactive)
REMARK    1  A    between atoms: C_2  and  C_3
REMARK    2  A    between atoms: C_2  and  C_10
REMARK    3  A    between atoms: C_13  and  C_14
REMARK    4  A    between atoms: C_15  and  C_16
REMARK    5  A    between atoms: C_16  and  O_17
REMARK                            x       y       z     vdW  Elec       q    Type
REMARK                         _______ _______ _______ _____ _____    ______ ____
ROOT
ATOM      1  C   UNL     1      -0.651  10.985  22.194  0.00  0.00    +0.000 A 
ATOM      2  C   UNL     1      -0.427   9.909  23.061  0.00  0.00    +0.000 A 
ATOM      3  C   UNL     1       0.178   8.737  22.592  0.00  0.00    +0.000 A 
ATOM      4  C   UNL     1       0.573   8.639  21.255  0.00  0.00    +0.000 A 
ATOM      5  C   UNL     1       0.324   9.699  20.380  0.00  0.00    +0.000 A 
ATOM      6  C   UNL     1      -0.276  10.874  20.848  0.00  0.00    +0.000 A 
ENDROOT
BRANCH   1   8
ATOM      7  O   UNL     1      -0.455  13.116  23.158  0.00  0.00    +0.000 OA
ATOM      8  C   UNL     1      -1.218  12.246  22.751  0.00  0.00    +0.000 C 
BRANCH   8   9
ATOM      9  C   UNL     1      -2.683  12.484  22.812  0.00  0.00    +0.000 A 
ATOM     10  C   UNL     1      -3.371  12.798  21.633  0.00  0.00    +0.000 A 
ATOM     11  C   UNL     1      -4.752  13.020  21.665  0.00  0.00    +0.000 A 
ATOM     12  C   UNL     1      -5.436  12.941  22.878  0.00  0.00    +0.000 A 
ATOM     13 BR   UNL     1      -7.304  13.231  22.927  0.00  0.00    +0.000 Br
ATOM     14  C   UNL     1      -4.756  12.656  24.061  0.00  0.00    +0.000 A 
ATOM     15  C   UNL     1      -3.376  12.437  24.028  0.00  0.00    +0.000 A 
ENDBRANCH   8   9
ENDBRANCH   1   8
BRANCH   4  16
ATOM     16  C   UNL     1       1.285   7.483  20.797  0.00  0.00    +0.000 C 
ATOM     17  C   UNL     1       1.914   6.543  20.384  0.00  0.00    +0.000 C 
BRANCH  17  18
ATOM     18  C   UNL     1       2.696   5.405  19.852  0.00  0.00    +0.000 C 
ATOM     19  C   UNL     1       2.235   5.000  18.414  0.00  0.00    +0.000 C 
ATOM     20  N   UNL     1       1.807   3.573  18.320  0.00  0.00    +0.000 NA
ATOM     21  C   UNL     1       2.944   2.713  18.718  0.00  0.00    +0.000 C 
ATOM     22  C   UNL     1       3.423   3.017  20.147  0.00  0.00    +0.000 C 
ATOM     23  C   UNL     1       2.562   4.149  20.752  0.00  0.00    +0.000 C 
ATOM     24  C   UNL     1       1.105   3.649  20.721  0.00  0.00    +0.000 C 
ATOM     25  C   UNL     1       0.692   3.355  19.269  0.00  0.00    +0.000 C 
BRANCH  18  26
ATOM     26  O   UNL     1       4.073   5.792  19.829  0.00  0.00    +0.000 OA
ATOM     27  H   UNL     1       4.316   6.030  20.739  0.00  0.00    +0.000 HD
ENDBRANCH  18  26
ENDBRANCH  17  18
ENDBRANCH   4  16
TORSDOF 5
ENDMDL
MODEL 9
REMARK VINA RESULT:      -8.0      7.124     10.306
REMARK  Name = 
REMARK  5 active torsions:
REMARK  status: ('A' for Active; 'I' for Inactive)
REMARK    1  A    between atoms: C_2  and  C_3
REMARK    2  A    between atoms: C_2  and  C_10
REMARK    3  A    between atoms: C_13  and  C_14
REMARK    4  A    between atoms: C_15  and  C_16
REMARK    5  A    between atoms: C_16  and  O_17
REMARK                            x       y       z     vdW  Elec       q    Type
REMARK                         _______ _______ _______ _____ _____    ______ ____
ROOT
ATOM      1  C   UNL     1       0.571  10.435  19.299  0.00  0.00    +0.000 A 
ATOM      2  C   UNL     1       1.202  10.106  18.094  0.00  0.00    +0.000 A 
ATOM      3  C   UNL     1       1.904   8.902  17.969  0.00  0.00    +0.000 A 
ATOM      4  C   UNL     1       1.969   8.014  19.046  0.00  0.00    +0.000 A 
ATOM      5  C   UNL     1       1.365   8.351  20.259  0.00  0.00    +0.000 A 
ATOM      6  C   UNL     1       0.659   9.553  20.385  0.00  0.00    +0.000 A 
ENDROOT
BRANCH   1   8
ATOM      7  O   UNL     1       0.312  12.740  19.655  0.00  0.00    +0.000 OA
ATOM      8  C   UNL     1      -0.239  11.684  19.364  0.00  0.00    +0.000 C 
BRANCH   8   9
ATOM      9  C   UNL     1      -1.696  11.687  19.071  0.00  0.00    +0.000 A 
ATOM     10  C   UNL     1      -2.165  10.993  17.948  0.00  0.00    +0.000 A 
ATOM     11  C   UNL     1      -3.533  10.976  17.655  0.00  0.00    +0.000 A 
ATOM     12  C   UNL     1      -4.423  11.665  18.478  0.00  0.00    +0.000 A 
ATOM     13 BR   UNL     1      -6.274  11.639  18.093  0.00  0.00    +0.000 Br
ATOM     14  C   UNL     1      -3.963  12.381  19.582  0.00  0.00    +0.000 A 
ATOM     15  C   UNL     1      -2.597  12.399  19.873  0.00  0.00    +0.000 A 
ENDBRANCH   8   9
ENDBRANCH   1   8
BRANCH   4  16
ATOM     16  C   UNL     1       2.599   6.735  18.889  0.00  0.00    +0.000 C 
ATOM     17  C   UNL     1       3.123   5.655  18.809  0.00  0.00    +0.000 C 
BRANCH  17  18
ATOM     18  C   UNL     1       3.776   4.328  18.740  0.00  0.00    +0.000 C 
ATOM     19  C   UNL     1       3.370   3.544  17.449  0.00  0.00    +0.000 C 
ATOM     20  N   UNL     1       2.754   2.217  17.745  0.00  0.00    +0.000 NA
ATOM     21  C   UNL     1       3.728   1.406  18.512  0.00  0.00    +0.000 C 
ATOM     22  C   UNL     1       4.137   2.090  19.826  0.00  0.00    +0.000 C 
ATOM     23  C   UNL     1       3.401   3.443  19.957  0.00  0.00    +0.000 C 
ATOM     24  C   UNL     1       1.895   3.122  19.914  0.00  0.00    +0.000 C 
ATOM     25  C   UNL     1       1.553   2.433  18.582  0.00  0.00    +0.000 C 
BRANCH  18  26
ATOM     26  O   UNL     1       5.192   4.534  18.758  0.00  0.00    +0.000 OA
ATOM     27  H   UNL     1       5.350   5.443  18.451  0.00  0.00    +0.000 HD
ENDBRANCH  18  26
ENDBRANCH  17  18
ENDBRANCH   4  16
TORSDOF 5
ENDMDL
