MODEL 1
REMARK VINA RESULT:      -7.1      0.000      0.000
REMARK  Name = 
REMARK  13 active torsions:
REMARK  status: ('A' for Active; 'I' for Inactive)
REMARK    1  A    between atoms: C_1  and  C_2
REMARK    2  A    between atoms: C_2  and  C_3
REMARK    3  A    between atoms: C_3  and  C_4
REMARK    4  A    between atoms: C_4  and  C_5
REMARK    5  A    between atoms: C_5  and  O_6
REMARK    6  A    between atoms: O_6  and  C_7
REMARK    7  A    between atoms: C_10  and  C_11
REMARK    8  A    between atoms: C_13  and  C_14
REMARK    9  A    between atoms: C_14  and  N_15
REMARK   10  A    between atoms: N_15  and  C_16
REMARK   11  A    between atoms: C_16  and  C_17
REMARK   12  A    between atoms: C_17  and  C_18
REMARK   13  A    between atoms: N_22  and  C_23
REMARK                            x       y       z     vdW  Elec       q    Type
REMARK                         _______ _______ _______ _____ _____    ______ ____
ROOT
ATOM      1  C   UNL     1       2.500   7.704  18.511  0.00  0.00    +0.000 A 
ATOM      2  N   UNL     1       2.003   8.808  17.986  0.00  0.00    +0.000 NA
ATOM      3  C   UNL     1       1.298   9.388  19.015  0.00  0.00    +0.000 A 
ATOM      4  C   UNL     1       1.422   8.604  20.140  0.00  0.00    +0.000 A 
ATOM      5  O   UNL     1       2.187   7.521  19.831  0.00  0.00    +0.000 OA
ENDROOT
BRANCH   1   9
ATOM      6  C   UNL     1       4.822   4.654  16.621  0.00  0.00    +0.000 A 
ATOM      7  C   UNL     1       3.645   4.353  17.314  0.00  0.00    +0.000 A 
ATOM      8  C   UNL     1       2.912   5.363  17.930  0.00  0.00    +0.000 A 
ATOM      9  C   UNL     1       3.330   6.697  17.869  0.00  0.00    +0.000 A 
ATOM     10  C   UNL     1       4.518   6.995  17.189  0.00  0.00    +0.000 A 
ATOM     11  C   UNL     1       5.259   5.979  16.569  0.00  0.00    +0.000 A 
BRANCH   6  12
ATOM     12  O   UNL     1       5.598   3.726  15.969  0.00  0.00    +0.000 OA
BRANCH  12  13
ATOM     13  C   UNL     1       6.254   4.236  14.806  0.00  0.00    +0.000 C 
BRANCH  13  14
ATOM     14  C   UNL     1       5.403   4.034  13.564  0.00  0.00    +0.000 C 
BRANCH  14  15
ATOM     15  C   UNL     1       6.255   3.386  12.468  0.00  0.00    +0.000 C 
BRANCH  15  17
ATOM     16  C   UNL     1       4.041   3.257  11.287  0.00  0.00    +0.000 C 
ATOM     17  C   UNL     1       5.398   2.600  11.485  0.00  0.00    +0.000 C 
ENDBRANCH  15  17
ENDBRANCH  14  15
ENDBRANCH  13  14
ENDBRANCH  12  13
ENDBRANCH   6  12
ENDBRANCH   1   9
BRANCH   3  18
ATOM     18  C   UNL     1       0.573  10.675  18.840  0.00  0.00    +0.000 C 
BRANCH  18  19
ATOM     19  N   UNL     1       0.018  11.102  20.125  0.00  0.00    +0.000 NA
ATOM     20  H   UNL     1       0.637  11.778  20.567  0.00  0.00    +0.000 HD
BRANCH  19  21
ATOM     21  C   UNL     1      -1.326  11.646  19.962  0.00  0.00    +0.000 C 
BRANCH  21  22
ATOM     22  C   UNL     1      -1.671  11.772  18.475  0.00  0.00    +0.000 C 
BRANCH  22  23
ATOM     23  C   UNL     1      -3.093  11.277  18.175  0.00  0.00    +0.000 C 
ATOM     24  C   UNL     1      -4.165  12.014  18.981  0.00  0.00    +0.000 C 
ATOM     25  C   UNL     1      -5.411  11.999  18.104  0.00  0.00    +0.000 C 
ATOM     26  C   UNL     1      -4.974  11.359  16.797  0.00  0.00    +0.000 C 
ATOM     27  N   UNL     1      -3.520  11.535  16.791  0.00  0.00    +0.000 NA
ATOM     28  C   UNL     1      -2.881  10.669  15.808  0.00  0.00    +0.000 C 
ENDBRANCH  22  23
ENDBRANCH  21  22
ENDBRANCH  19  21
ENDBRANCH  18  19
ENDBRANCH   3  18
TORSDOF 11
ENDMDL
MODEL 2
REMARK VINA RESULT:      -7.0      2.928      9.345
REMARK  Name = 
REMARK  13 active torsions:
REMARK  status: ('A' for Active; 'I' for Inactive)
REMARK    1  A    between atoms: C_1  and  C_2
REMARK    2  A    between atoms: C_2  and  C_3
REMARK    3  A    between atoms: C_3  and  C_4
REMARK    4  A    between atoms: C_4  and  C_5
REMARK    5  A    between atoms: C_5  and  O_6
REMARK    6  A    between atoms: O_6  and  C_7
REMARK    7  A    between atoms: C_10  and  C_11
REMARK    8  A    between atoms: C_13  and  C_14
REMARK    9  A    between atoms: C_14  and  N_15
REMARK   10  A    between atoms: N_15  and  C_16
REMARK   11  A    between atoms: C_16  and  C_17
REMARK   12  A    between atoms: C_17  and  C_18
REMARK   13  A    between atoms: N_22  and  C_23
REMARK                            x       y       z     vdW  Elec       q    Type
REMARK                         _______ _______ _______ _____ _____    ______ ____
ROOT
ATOM      1  C   UNL     1       2.624   6.480  18.839  0.00  0.00    +0.000 A 
ATOM      2  N   UNL     1       3.429   5.836  19.662  0.00  0.00    +0.000 NA
ATOM      3  C   UNL     1       3.624   4.614  19.061  0.00  0.00    +0.000 A 
ATOM      4  C   UNL     1       2.932   4.584  17.871  0.00  0.00    +0.000 A 
ATOM      5  O   UNL     1       2.285   5.772  17.717  0.00  0.00    +0.000 OA
ENDROOT
BRANCH   1   9
ATOM      6  C   UNL     1       1.026  10.436  19.100  0.00  0.00    +0.000 A 
ATOM      7  C   UNL     1       1.625   9.965  17.927  0.00  0.00    +0.000 A 
ATOM      8  C   UNL     1       2.147   8.676  17.871  0.00  0.00    +0.000 A 
ATOM      9  C   UNL     1       2.083   7.824  18.978  0.00  0.00    +0.000 A 
ATOM     10  C   UNL     1       1.498   8.302  20.158  0.00  0.00    +0.000 A 
ATOM     11  C   UNL     1       0.973   9.601  20.218  0.00  0.00    +0.000 A 
BRANCH   6  12
ATOM     12  O   UNL     1       0.469  11.684  19.241  0.00  0.00    +0.000 OA
BRANCH  12  13
ATOM     13  C   UNL     1      -0.942  11.666  19.466  0.00  0.00    +0.000 C 
BRANCH  13  14
ATOM     14  C   UNL     1      -1.706  11.608  18.153  0.00  0.00    +0.000 C 
BRANCH  14  15
ATOM     15  C   UNL     1      -2.093  10.157  17.858  0.00  0.00    +0.000 C 
BRANCH  15  17
ATOM     16  C   UNL     1      -4.152  11.424  17.175  0.00  0.00    +0.000 C 
ATOM     17  C   UNL     1      -3.472  10.065  17.217  0.00  0.00    +0.000 C 
ENDBRANCH  15  17
ENDBRANCH  14  15
ENDBRANCH  13  14
ENDBRANCH  12  13
ENDBRANCH   6  12
ENDBRANCH   1   9
BRANCH   3  18
ATOM     18  C   UNL     1       4.487   3.568  19.673  0.00  0.00    +0.000 C 
BRANCH  18  19
ATOM     19  N   UNL     1       5.724   3.441  18.901  0.00  0.00    +0.000 NA
ATOM     20  H   UNL     1       5.516   3.128  17.956  0.00  0.00    +0.000 HD
BRANCH  19  21
ATOM     21  C   UNL     1       6.466   4.697  18.889  0.00  0.00    +0.000 C 
BRANCH  21  22
ATOM     22  C   UNL     1       7.559   4.658  17.818  0.00  0.00    +0.000 C 
BRANCH  22  23
ATOM     23  C   UNL     1       7.052   5.177  16.465  0.00  0.00    +0.000 C 
ATOM     24  C   UNL     1       6.687   4.053  15.492  0.00  0.00    +0.000 C 
ATOM     25  C   UNL     1       5.577   4.620  14.616  0.00  0.00    +0.000 C 
ATOM     26  C   UNL     1       5.276   5.994  15.191  0.00  0.00    +0.000 C 
ATOM     27  N   UNL     1       5.785   5.919  16.563  0.00  0.00    +0.000 NA
ATOM     28  C   UNL     1       5.924   7.243  17.155  0.00  0.00    +0.000 C 
ENDBRANCH  22  23
ENDBRANCH  21  22
ENDBRANCH  19  21
ENDBRANCH  18  19
ENDBRANCH   3  18
TORSDOF 11
ENDMDL
MODEL 3
REMARK VINA RESULT:      -6.9      4.298      6.326
REMARK  Name = 
REMARK  13 active torsions:
REMARK  status: ('A' for Active; 'I' for Inactive)
REMARK    1  A    between atoms: C_1  and  C_2
REMARK    2  A    between atoms: C_2  and  C_3
REMARK    3  A    between atoms: C_3  and  C_4
REMARK    4  A    between atoms: C_4  and  C_5
REMARK    5  A    between atoms: C_5  and  O_6
REMARK    6  A    between atoms: O_6  and  C_7
REMARK    7  A    between atoms: C_10  and  C_11
REMARK    8  A    between atoms: C_13  and  C_14
REMARK    9  A    between atoms: C_14  and  N_15
REMARK   10  A    between atoms: N_15  and  C_16
REMARK   11  A    between atoms: C_16  and  C_17
REMARK   12  A    between atoms: C_17  and  C_18
REMARK   13  A    between atoms: N_22  and  C_23
REMARK                            x       y       z     vdW  Elec       q    Type
REMARK                         _______ _______ _______ _____ _____    ______ ____
ROOT
ATOM      1  C   UNL     1       3.767   6.662  17.937  0.00  0.00    +0.000 A 
ATOM      2  N   UNL     1       3.385   6.145  19.090  0.00  0.00    +0.000 NA
ATOM      3  C   UNL     1       2.435   7.024  19.559  0.00  0.00    +0.000 A 
ATOM      4  C   UNL     1       2.268   8.036  18.640  0.00  0.00    +0.000 A 
ATOM      5  O   UNL     1       3.117   7.818  17.598  0.00  0.00    +0.000 OA
ENDROOT
BRANCH   1   9
ATOM      6  C   UNL     1       6.707   5.037  15.296  0.00  0.00    +0.000 A 
ATOM      7  C   UNL     1       6.663   4.681  16.647  0.00  0.00    +0.000 A 
ATOM      8  C   UNL     1       5.702   5.233  17.489  0.00  0.00    +0.000 A 
ATOM      9  C   UNL     1       4.760   6.147  17.007  0.00  0.00    +0.000 A 
ATOM     10  C   UNL     1       4.816   6.516  15.656  0.00  0.00    +0.000 A 
ATOM     11  C   UNL     1       5.784   5.963  14.806  0.00  0.00    +0.000 A 
BRANCH   6  12
ATOM     12  O   UNL     1       7.607   4.531  14.388  0.00  0.00    +0.000 OA
BRANCH  12  13
ATOM     13  C   UNL     1       7.410   5.003  13.054  0.00  0.00    +0.000 C 
BRANCH  13  14
ATOM     14  C   UNL     1       7.233   3.846  12.085  0.00  0.00    +0.000 C 
BRANCH  14  15
ATOM     15  C   UNL     1       5.890   3.162  12.354  0.00  0.00    +0.000 C 
BRANCH  15  17
ATOM     16  C   UNL     1       3.752   3.096  11.035  0.00  0.00    +0.000 C 
ATOM     17  C   UNL     1       4.727   3.976  11.800  0.00  0.00    +0.000 C 
ENDBRANCH  15  17
ENDBRANCH  14  15
ENDBRANCH  13  14
ENDBRANCH  12  13
ENDBRANCH   6  12
ENDBRANCH   1   9
BRANCH   3  18
ATOM     18  C   UNL     1       1.738   6.806  20.854  0.00  0.00    +0.000 C 
BRANCH  18  19
ATOM     19  N   UNL     1       1.113   5.483  20.859  0.00  0.00    +0.000 NA
ATOM     20  H   UNL     1       0.721   5.278  19.943  0.00  0.00    +0.000 HD
BRANCH  19  21
ATOM     21  C   UNL     1       2.065   4.455  21.266  0.00  0.00    +0.000 C 
BRANCH  21  22
ATOM     22  C   UNL     1       1.503   3.063  20.969  0.00  0.00    +0.000 C 
BRANCH  22  23
ATOM     23  C   UNL     1       2.019   2.512  19.631  0.00  0.00    +0.000 C 
ATOM     24  C   UNL     1       1.369   3.181  18.419  0.00  0.00    +0.000 C 
ATOM     25  C   UNL     1       2.420   3.131  17.317  0.00  0.00    +0.000 C 
ATOM     26  C   UNL     1       3.659   2.542  17.972  0.00  0.00    +0.000 C 
ATOM     27  N   UNL     1       3.446   2.784  19.402  0.00  0.00    +0.000 NA
ATOM     28  C   UNL     1       4.338   1.971  20.219  0.00  0.00    +0.000 C 
ENDBRANCH  22  23
ENDBRANCH  21  22
ENDBRANCH  19  21
ENDBRANCH  18  19
ENDBRANCH   3  18
TORSDOF 11
ENDMDL
MODEL 4
REMARK VINA RESULT:      -6.9      5.838      9.458
REMARK  Name = 
REMARK  13 active torsions:
REMARK  status: ('A' for Active; 'I' for Inactive)
REMARK    1  A    between atoms: C_1  and  C_2
REMARK    2  A    between atoms: C_2  and  C_3
REMARK    3  A    between atoms: C_3  and  C_4
REMARK    4  A    between atoms: C_4  and  C_5
REMARK    5  A    between atoms: C_5  and  O_6
REMARK    6  A    between atoms: O_6  and  C_7
REMARK    7  A    between atoms: C_10  and  C_11
REMARK    8  A    between atoms: C_13  and  C_14
REMARK    9  A    between atoms: C_14  and  N_15
REMARK   10  A    between atoms: N_15  and  C_16
REMARK   11  A    between atoms: C_16  and  C_17
REMARK   12  A    between atoms: C_17  and  C_18
REMARK   13  A    between atoms: N_22  and  C_23
REMARK                            x       y       z     vdW  Elec       q    Type
REMARK                         _______ _______ _______ _____ _____    ______ ____
ROOT
ATOM      1  C   UNL     1       6.149   5.521  18.396  0.00  0.00    +0.000 A 
ATOM      2  N   UNL     1       6.342   6.686  17.807  0.00  0.00    +0.000 NA
ATOM      3  C   UNL     1       7.569   7.103  18.271  0.00  0.00    +0.000 A 
ATOM      4  C   UNL     1       8.078   6.144  19.116  0.00  0.00    +0.000 A 
ATOM      5  O   UNL     1       7.178   5.126  19.208  0.00  0.00    +0.000 OA
ENDROOT
BRANCH   1   9
ATOM      6  C   UNL     1       2.747   2.980  17.914  0.00  0.00    +0.000 A 
ATOM      7  C   UNL     1       2.780   4.267  17.370  0.00  0.00    +0.000 A 
ATOM      8  C   UNL     1       3.896   5.080  17.550  0.00  0.00    +0.000 A 
ATOM      9  C   UNL     1       5.006   4.630  18.272  0.00  0.00    +0.000 A 
ATOM     10  C   UNL     1       4.965   3.346  18.831  0.00  0.00    +0.000 A 
ATOM     11  C   UNL     1       3.842   2.526  18.652  0.00  0.00    +0.000 A 
BRANCH   6  12
ATOM     12  O   UNL     1       1.698   2.103  17.772  0.00  0.00    +0.000 OA
BRANCH  12  13
ATOM     13  C   UNL     1       0.676   2.259  18.759  0.00  0.00    +0.000 C 
BRANCH  13  14
ATOM     14  C   UNL     1       1.267   2.663  20.100  0.00  0.00    +0.000 C 
BRANCH  14  15
ATOM     15  C   UNL     1       0.847   4.098  20.425  0.00  0.00    +0.000 C 
BRANCH  15  17
ATOM     16  C   UNL     1       1.948   6.357  20.438  0.00  0.00    +0.000 C 
ATOM     17  C   UNL     1       2.021   4.923  20.937  0.00  0.00    +0.000 C 
ENDBRANCH  15  17
ENDBRANCH  14  15
ENDBRANCH  13  14
ENDBRANCH  12  13
ENDBRANCH   6  12
ENDBRANCH   1   9
BRANCH   3  18
ATOM     18  C   UNL     1       8.171   8.394  17.842  0.00  0.00    +0.000 C 
BRANCH  18  19
ATOM     19  N   UNL     1       9.047   8.900  18.899  0.00  0.00    +0.000 NA
ATOM     20  H   UNL     1      10.019   8.703  18.674  0.00  0.00    +0.000 HD
BRANCH  19  21
ATOM     21  C   UNL     1       8.836  10.328  19.117  0.00  0.00    +0.000 C 
BRANCH  21  22
ATOM     22  C   UNL     1       9.617  11.143  18.083  0.00  0.00    +0.000 C 
BRANCH  22  23
ATOM     23  C   UNL     1       9.996  12.532  18.619  0.00  0.00    +0.000 C 
ATOM     24  C   UNL     1       9.542  12.760  20.062  0.00  0.00    +0.000 C 
ATOM     25  C   UNL     1      10.560  13.723  20.659  0.00  0.00    +0.000 C 
ATOM     26  C   UNL     1      11.610  13.917  19.577  0.00  0.00    +0.000 C 
ATOM     27  N   UNL     1      11.449  12.741  18.719  0.00  0.00    +0.000 NA
ATOM     28  C   UNL     1      12.106  12.925  17.432  0.00  0.00    +0.000 C 
ENDBRANCH  22  23
ENDBRANCH  21  22
ENDBRANCH  19  21
ENDBRANCH  18  19
ENDBRANCH   3  18
TORSDOF 11
ENDMDL
MODEL 5
REMARK VINA RESULT:      -6.9      5.961      9.057
REMARK  Name = 
REMARK  13 active torsions:
REMARK  status: ('A' for Active; 'I' for Inactive)
REMARK    1  A    between atoms: C_1  and  C_2
REMARK    2  A    between atoms: C_2  and  C_3
REMARK    3  A    between atoms: C_3  and  C_4
REMARK    4  A    between atoms: C_4  and  C_5
REMARK    5  A    between atoms: C_5  and  O_6
REMARK    6  A    between atoms: O_6  and  C_7
REMARK    7  A    between atoms: C_10  and  C_11
REMARK    8  A    between atoms: C_13  and  C_14
REMARK    9  A    between atoms: C_14  and  N_15
REMARK   10  A    between atoms: N_15  and  C_16
REMARK   11  A    between atoms: C_16  and  C_17
REMARK   12  A    between atoms: C_17  and  C_18
REMARK   13  A    between atoms: N_22  and  C_23
REMARK                            x       y       z     vdW  Elec       q    Type
REMARK                         _______ _______ _______ _____ _____    ______ ____
ROOT
ATOM      1  C   UNL     1       6.029   6.283  17.907  0.00  0.00    +0.000 A 
ATOM      2  N   UNL     1       6.401   7.385  17.283  0.00  0.00    +0.000 NA
ATOM      3  C   UNL     1       7.668   7.634  17.757  0.00  0.00    +0.000 A 
ATOM      4  C   UNL     1       8.018   6.640  18.643  0.00  0.00    +0.000 A 
ATOM      5  O   UNL     1       6.977   5.770  18.751  0.00  0.00    +0.000 OA
ENDROOT
BRANCH   1   9
ATOM      6  C   UNL     1       2.398   4.049  17.603  0.00  0.00    +0.000 A 
ATOM      7  C   UNL     1       3.648   3.424  17.544  0.00  0.00    +0.000 A 
ATOM      8  C   UNL     1       4.816   4.175  17.635  0.00  0.00    +0.000 A 
ATOM      9  C   UNL     1       4.769   5.565  17.790  0.00  0.00    +0.000 A 
ATOM     10  C   UNL     1       3.517   6.192  17.832  0.00  0.00    +0.000 A 
ATOM     11  C   UNL     1       2.339   5.437  17.739  0.00  0.00    +0.000 A 
BRANCH   6  12
ATOM     12  O   UNL     1       1.196   3.388  17.541  0.00  0.00    +0.000 OA
BRANCH  12  13
ATOM     13  C   UNL     1       1.014   2.417  18.574  0.00  0.00    +0.000 C 
BRANCH  13  14
ATOM     14  C   UNL     1       0.690   3.084  19.901  0.00  0.00    +0.000 C 
BRANCH  14  15
ATOM     15  C   UNL     1       1.639   2.552  20.978  0.00  0.00    +0.000 C 
BRANCH  15  17
ATOM     16  C   UNL     1       2.039   5.031  21.065  0.00  0.00    +0.000 C 
ATOM     17  C   UNL     1       2.374   3.684  21.685  0.00  0.00    +0.000 C 
ENDBRANCH  15  17
ENDBRANCH  14  15
ENDBRANCH  13  14
ENDBRANCH  12  13
ENDBRANCH   6  12
ENDBRANCH   1   9
BRANCH   3  18
ATOM     18  C   UNL     1       8.461   8.806  17.298  0.00  0.00    +0.000 C 
BRANCH  18  19
ATOM     19  N   UNL     1       8.259   9.924  18.220  0.00  0.00    +0.000 NA
ATOM     20  H   UNL     1       7.281   9.985  18.489  0.00  0.00    +0.000 HD
BRANCH  19  21
ATOM     21  C   UNL     1       9.121   9.800  19.391  0.00  0.00    +0.000 C 
BRANCH  21  22
ATOM     22  C   UNL     1       9.635  11.177  19.820  0.00  0.00    +0.000 C 
BRANCH  22  23
ATOM     23  C   UNL     1       9.458  12.224  18.710  0.00  0.00    +0.000 C 
ATOM     24  C   UNL     1       8.538  13.378  19.119  0.00  0.00    +0.000 C 
ATOM     25  C   UNL     1       9.037  14.588  18.340  0.00  0.00    +0.000 C 
ATOM     26  C   UNL     1      10.281  14.109  17.610  0.00  0.00    +0.000 C 
ATOM     27  N   UNL     1      10.703  12.932  18.373  0.00  0.00    +0.000 NA
ATOM     28  C   UNL     1      11.653  12.121  17.622  0.00  0.00    +0.000 C 
ENDBRANCH  22  23
ENDBRANCH  21  22
ENDBRANCH  19  21
ENDBRANCH  18  19
ENDBRANCH   3  18
TORSDOF 11
ENDMDL
MODEL 6
REMARK VINA RESULT:      -6.8      4.326      6.454
REMARK  Name = 
REMARK  13 active torsions:
REMARK  status: ('A' for Active; 'I' for Inactive)
REMARK    1  A    between atoms: C_1  and  C_2
REMARK    2  A    between atoms: C_2  and  C_3
REMARK    3  A    between atoms: C_3  and  C_4
REMARK    4  A    between atoms: C_4  and  C_5
REMARK    5  A    between atoms: C_5  and  O_6
REMARK    6  A    between atoms: O_6  and  C_7
REMARK    7  A    between atoms: C_10  and  C_11
REMARK    8  A    between atoms: C_13  and  C_14
REMARK    9  A    between atoms: C_14  and  N_15
REMARK   10  A    between atoms: N_15  and  C_16
REMARK   11  A    between atoms: C_16  and  C_17
REMARK   12  A    between atoms: C_17  and  C_18
REMARK   13  A    between atoms: N_22  and  C_23
REMARK                            x       y       z     vdW  Elec       q    Type
REMARK                         _______ _______ _______ _____ _____    ______ ____
ROOT
ATOM      1  C   UNL     1       3.762   6.606  18.076  0.00  0.00    +0.000 A 
ATOM      2  N   UNL     1       3.329   6.052  19.192  0.00  0.00    +0.000 NA
ATOM      3  C   UNL     1       2.355   6.913  19.644  0.00  0.00    +0.000 A 
ATOM      4  C   UNL     1       2.229   7.954  18.753  0.00  0.00    +0.000 A 
ATOM      5  O   UNL     1       3.125   7.772  17.745  0.00  0.00    +0.000 OA
ENDROOT
BRANCH   1   9
ATOM      6  C   UNL     1       6.798   5.318  15.357  0.00  0.00    +0.000 A 
ATOM      7  C   UNL     1       5.885   6.319  15.012  0.00  0.00    +0.000 A 
ATOM      8  C   UNL     1       4.899   6.714  15.911  0.00  0.00    +0.000 A 
ATOM      9  C   UNL     1       4.800   6.125  17.176  0.00  0.00    +0.000 A 
ATOM     10  C   UNL     1       5.704   5.110  17.515  0.00  0.00    +0.000 A 
ATOM     11  C   UNL     1       6.698   4.710  16.610  0.00  0.00    +0.000 A 
BRANCH   6  12
ATOM     12  O   UNL     1       7.814   4.879  14.543  0.00  0.00    +0.000 OA
BRANCH  12  13
ATOM     13  C   UNL     1       7.430   4.717  13.175  0.00  0.00    +0.000 C 
BRANCH  13  14
ATOM     14  C   UNL     1       6.282   3.731  13.042  0.00  0.00    +0.000 C 
BRANCH  14  15
ATOM     15  C   UNL     1       6.551   2.801  11.856  0.00  0.00    +0.000 C 
BRANCH  15  17
ATOM     16  C   UNL     1       4.134   3.242  11.327  0.00  0.00    +0.000 C 
ATOM     17  C   UNL     1       5.259   2.219  11.297  0.00  0.00    +0.000 C 
ENDBRANCH  15  17
ENDBRANCH  14  15
ENDBRANCH  13  14
ENDBRANCH  12  13
ENDBRANCH   6  12
ENDBRANCH   1   9
BRANCH   3  18
ATOM     18  C   UNL     1       1.599   6.652  20.898  0.00  0.00    +0.000 C 
BRANCH  18  19
ATOM     19  N   UNL     1       1.056   5.293  20.869  0.00  0.00    +0.000 NA
ATOM     20  H   UNL     1       0.685   5.084  19.945  0.00  0.00    +0.000 HD
BRANCH  19  21
ATOM     21  C   UNL     1       2.064   4.316  21.265  0.00  0.00    +0.000 C 
BRANCH  21  22
ATOM     22  C   UNL     1       1.542   2.894  21.043  0.00  0.00    +0.000 C 
BRANCH  22  23
ATOM     23  C   UNL     1       2.091   2.279  19.748  0.00  0.00    +0.000 C 
ATOM     24  C   UNL     1       1.388   2.801  18.493  0.00  0.00    +0.000 C 
ATOM     25  C   UNL     1       2.435   2.742  17.388  0.00  0.00    +0.000 C 
ATOM     26  C   UNL     1       3.717   2.299  18.075  0.00  0.00    +0.000 C 
ATOM     27  N   UNL     1       3.494   2.636  19.483  0.00  0.00    +0.000 NA
ATOM     28  C   UNL     1       4.447   1.958  20.352  0.00  0.00    +0.000 C 
ENDBRANCH  22  23
ENDBRANCH  21  22
ENDBRANCH  19  21
ENDBRANCH  18  19
ENDBRANCH   3  18
TORSDOF 11
ENDMDL
MODEL 7
REMARK VINA RESULT:      -6.7      0.956      1.531
REMARK  Name = 
REMARK  13 active torsions:
REMARK  status: ('A' for Active; 'I' for Inactive)
REMARK    1  A    between atoms: C_1  and  C_2
REMARK    2  A    between atoms: C_2  and  C_3
REMARK    3  A    between atoms: C_3  and  C_4
REMARK    4  A    between atoms: C_4  and  C_5
REMARK    5  A    between atoms: C_5  and  O_6
REMARK    6  A    between atoms: O_6  and  C_7
REMARK    7  A    between atoms: C_10  and  C_11
REMARK    8  A    between atoms: C_13  and  C_14
REMARK    9  A    between atoms: C_14  and  N_15
REMARK   10  A    between atoms: N_15  and  C_16
REMARK   11  A    between atoms: C_16  and  C_17
REMARK   12  A    between atoms: C_17  and  C_18
REMARK   13  A    between atoms: N_22  and  C_23
REMARK                            x       y       z     vdW  Elec       q    Type
REMARK                         _______ _______ _______ _____ _____    ______ ____
ROOT
ATOM      1  C   UNL     1       2.876   6.899  18.743  0.00  0.00    +0.000 A 
ATOM      2  N   UNL     1       2.438   8.129  18.547  0.00  0.00    +0.000 NA
ATOM      3  C   UNL     1       1.666   8.395  19.655  0.00  0.00    +0.000 A 
ATOM      4  C   UNL     1       1.693   7.303  20.493  0.00  0.00    +0.000 A 
ATOM      5  O   UNL     1       2.462   6.337  19.920  0.00  0.00    +0.000 OA
ENDROOT
BRANCH   1   9
ATOM      6  C   UNL     1       5.317   4.446  16.234  0.00  0.00    +0.000 A 
ATOM      7  C   UNL     1       4.463   3.891  17.192  0.00  0.00    +0.000 A 
ATOM      8  C   UNL     1       3.686   4.712  18.005  0.00  0.00    +0.000 A 
ATOM      9  C   UNL     1       3.737   6.104  17.881  0.00  0.00    +0.000 A 
ATOM     10  C   UNL     1       4.605   6.660  16.932  0.00  0.00    +0.000 A 
ATOM     11  C   UNL     1       5.390   5.835  16.114  0.00  0.00    +0.000 A 
BRANCH   6  12
ATOM     12  O   UNL     1       6.105   3.715  15.379  0.00  0.00    +0.000 OA
BRANCH  12  13
ATOM     13  C   UNL     1       6.640   4.474  14.293  0.00  0.00    +0.000 C 
BRANCH  13  14
ATOM     14  C   UNL     1       6.490   3.729  12.977  0.00  0.00    +0.000 C 
BRANCH  14  15
ATOM     15  C   UNL     1       5.006   3.652  12.608  0.00  0.00    +0.000 C 
BRANCH  15  17
ATOM     16  C   UNL     1       3.355   3.194  10.769  0.00  0.00    +0.000 C 
ATOM     17  C   UNL     1       4.812   3.470  11.108  0.00  0.00    +0.000 C 
ENDBRANCH  15  17
ENDBRANCH  14  15
ENDBRANCH  13  14
ENDBRANCH  12  13
ENDBRANCH   6  12
ENDBRANCH   1   9
BRANCH   3  18
ATOM     18  C   UNL     1       0.976   9.701  19.833  0.00  0.00    +0.000 C 
BRANCH  18  19
ATOM     19  N   UNL     1      -0.095   9.827  18.843  0.00  0.00    +0.000 NA
ATOM     20  H   UNL     1      -0.903   9.281  19.130  0.00  0.00    +0.000 HD
BRANCH  19  21
ATOM     21  C   UNL     1      -0.451  11.227  18.633  0.00  0.00    +0.000 C 
BRANCH  21  22
ATOM     22  C   UNL     1      -1.875  11.492  19.129  0.00  0.00    +0.000 C 
BRANCH  22  23
ATOM     23  C   UNL     1      -2.827  11.840  17.974  0.00  0.00    +0.000 C 
ATOM     24  C   UNL     1      -2.510  11.075  16.687  0.00  0.00    +0.000 C 
ATOM     25  C   UNL     1      -3.845  10.919  15.971  0.00  0.00    +0.000 C 
ATOM     26  C   UNL     1      -4.880  11.496  16.922  0.00  0.00    +0.000 C 
ATOM     27  N   UNL     1      -4.221  11.444  18.229  0.00  0.00    +0.000 NA
ATOM     28  C   UNL     1      -4.901  12.287  19.204  0.00  0.00    +0.000 C 
ENDBRANCH  22  23
ENDBRANCH  21  22
ENDBRANCH  19  21
ENDBRANCH  18  19
ENDBRANCH   3  18
TORSDOF 11
ENDMDL
MODEL 8
REMARK VINA RESULT:      -6.7      3.358      4.079
REMARK  Name = 
REMARK  13 active torsions:
REMARK  status: ('A' for Active; 'I' for Inactive)
REMARK    1  A    between atoms: C_1  and  C_2
REMARK    2  A    between atoms: C_2  and  C_3
REMARK    3  A    between atoms: C_3  and  C_4
REMARK    4  A    between atoms: C_4  and  C_5
REMARK    5  A    between atoms: C_5  and  O_6
REMARK    6  A    between atoms: O_6  and  C_7
REMARK    7  A    between atoms: C_10  and  C_11
REMARK    8  A    between atoms: C_13  and  C_14
REMARK    9  A    between atoms: C_14  and  N_15
REMARK   10  A    between atoms: N_15  and  C_16
REMARK   11  A    between atoms: C_16  and  C_17
REMARK   12  A    between atoms: C_17  and  C_18
REMARK   13  A    between atoms: N_22  and  C_23
REMARK                            x       y       z     vdW  Elec       q    Type
REMARK                         _______ _______ _______ _____ _____    ______ ____
ROOT
ATOM      1  C   UNL     1       3.492   4.906  18.353  0.00  0.00    +0.000 A 
ATOM      2  N   UNL     1       2.859   5.847  19.027  0.00  0.00    +0.000 NA
ATOM      3  C   UNL     1       2.148   5.161  19.985  0.00  0.00    +0.000 A 
ATOM      4  C   UNL     1       2.406   3.815  19.856  0.00  0.00    +0.000 A 
ATOM      5  O   UNL     1       3.263   3.637  18.813  0.00  0.00    +0.000 OA
ENDROOT
BRANCH   1   9
ATOM      6  C   UNL     1       6.100   5.222  14.981  0.00  0.00    +0.000 A 
ATOM      7  C   UNL     1       5.748   3.981  15.520  0.00  0.00    +0.000 A 
ATOM      8  C   UNL     1       4.906   3.905  16.625  0.00  0.00    +0.000 A 
ATOM      9  C   UNL     1       4.389   5.061  17.218  0.00  0.00    +0.000 A 
ATOM     10  C   UNL     1       4.755   6.306  16.689  0.00  0.00    +0.000 A 
ATOM     11  C   UNL     1       5.606   6.385  15.577  0.00  0.00    +0.000 A 
BRANCH   6  12
ATOM     12  O   UNL     1       6.909   5.393  13.884  0.00  0.00    +0.000 OA
BRANCH  12  13
ATOM     13  C   UNL     1       7.411   4.170  13.340  0.00  0.00    +0.000 C 
BRANCH  13  14
ATOM     14  C   UNL     1       6.816   3.896  11.969  0.00  0.00    +0.000 C 
BRANCH  14  15
ATOM     15  C   UNL     1       5.534   3.074  12.130  0.00  0.00    +0.000 C 
BRANCH  15  17
ATOM     16  C   UNL     1       7.031   1.488  10.882  0.00  0.00    +0.000 C 
ATOM     17  C   UNL     1       5.617   1.756  11.372  0.00  0.00    +0.000 C 
ENDBRANCH  15  17
ENDBRANCH  14  15
ENDBRANCH  13  14
ENDBRANCH  12  13
ENDBRANCH   6  12
ENDBRANCH   1   9
BRANCH   3  18
ATOM     18  C   UNL     1       1.286   5.862  20.974  0.00  0.00    +0.000 C 
BRANCH  18  19
ATOM     19  N   UNL     1       1.832   7.193  21.241  0.00  0.00    +0.000 NA
ATOM     20  H   UNL     1       2.660   7.353  20.673  0.00  0.00    +0.000 HD
BRANCH  19  21
ATOM     21  C   UNL     1       0.828   8.227  21.013  0.00  0.00    +0.000 C 
BRANCH  21  22
ATOM     22  C   UNL     1       1.005   9.370  22.017  0.00  0.00    +0.000 C 
BRANCH  22  23
ATOM     23  C   UNL     1      -0.068  10.455  21.843  0.00  0.00    +0.000 C 
ATOM     24  C   UNL     1      -1.003  10.570  23.049  0.00  0.00    +0.000 C 
ATOM     25  C   UNL     1      -1.437  12.030  23.086  0.00  0.00    +0.000 C 
ATOM     26  C   UNL     1      -0.652  12.709  21.976  0.00  0.00    +0.000 C 
ATOM     27  N   UNL     1       0.487  11.814  21.755  0.00  0.00    +0.000 NA
ATOM     28  C   UNL     1       1.151  12.097  20.490  0.00  0.00    +0.000 C 
ENDBRANCH  22  23
ENDBRANCH  21  22
ENDBRANCH  19  21
ENDBRANCH  18  19
ENDBRANCH   3  18
TORSDOF 11
ENDMDL
MODEL 9
REMARK VINA RESULT:      -6.7      6.785     10.321
REMARK  Name = 
REMARK  13 active torsions:
REMARK  status: ('A' for Active; 'I' for Inactive)
REMARK    1  A    between atoms: C_1  and  C_2
REMARK    2  A    between atoms: C_2  and  C_3
REMARK    3  A    between atoms: C_3  and  C_4
REMARK    4  A    between atoms: C_4  and  C_5
REMARK    5  A    between atoms: C_5  and  O_6
REMARK    6  A    between atoms: O_6  and  C_7
REMARK    7  A    between atoms: C_10  and  C_11
REMARK    8  A    between atoms: C_13  and  C_14
REMARK    9  A    between atoms: C_14  and  N_15
REMARK   10  A    between atoms: N_15  and  C_16
REMARK   11  A    between atoms: C_16  and  C_17
REMARK   12  A    between atoms: C_17  and  C_18
REMARK   13  A    between atoms: N_22  and  C_23
REMARK                            x       y       z     vdW  Elec       q    Type
REMARK                         _______ _______ _______ _____ _____    ______ ____
ROOT
ATOM      1  C   UNL     1       8.249   8.700  18.112  0.00  0.00    +0.000 A 
ATOM      2  N   UNL     1       7.485   8.203  17.159  0.00  0.00    +0.000 NA
ATOM      3  C   UNL     1       7.367   6.869  17.477  0.00  0.00    +0.000 A 
ATOM      4  C   UNL     1       8.060   6.624  18.641  0.00  0.00    +0.000 A 
ATOM      5  O   UNL     1       8.632   7.787  19.057  0.00  0.00    +0.000 OA
ENDROOT
BRANCH   1   9
ATOM      6  C   UNL     1       9.712  12.680  18.655  0.00  0.00    +0.000 A 
ATOM      7  C   UNL     1      10.196  11.612  19.418  0.00  0.00    +0.000 A 
ATOM      8  C   UNL     1       9.696  10.327  19.229  0.00  0.00    +0.000 A 
ATOM      9  C   UNL     1       8.705  10.072  18.275  0.00  0.00    +0.000 A 
ATOM     10  C   UNL     1       8.208  11.145  17.523  0.00  0.00    +0.000 A 
ATOM     11  C   UNL     1       8.710  12.441  17.713  0.00  0.00    +0.000 A 
BRANCH   6  12
ATOM     12  O   UNL     1      10.158  13.975  18.760  0.00  0.00    +0.000 OA
BRANCH  12  13
ATOM     13  C   UNL     1      11.366  14.231  18.040  0.00  0.00    +0.000 C 
BRANCH  13  14
ATOM     14  C   UNL     1      11.244  15.488  17.195  0.00  0.00    +0.000 C 
BRANCH  14  15
ATOM     15  C   UNL     1       9.997  16.266  17.625  0.00  0.00    +0.000 C 
BRANCH  15  17
ATOM     16  C   UNL     1      11.700  18.111  17.545  0.00  0.00    +0.000 C 
ATOM     17  C   UNL     1      10.219  17.770  17.540  0.00  0.00    +0.000 C 
ENDBRANCH  15  17
ENDBRANCH  14  15
ENDBRANCH  13  14
ENDBRANCH  12  13
ENDBRANCH   6  12
ENDBRANCH   1   9
BRANCH   3  18
ATOM     18  C   UNL     1       6.570   5.932  16.642  0.00  0.00    +0.000 C 
BRANCH  18  19
ATOM     19  N   UNL     1       6.717   4.570  17.158  0.00  0.00    +0.000 NA
ATOM     20  H   UNL     1       7.330   4.568  17.970  0.00  0.00    +0.000 HD
BRANCH  19  21
ATOM     21  C   UNL     1       5.418   3.988  17.478  0.00  0.00    +0.000 C 
BRANCH  21  22
ATOM     22  C   UNL     1       5.018   4.336  18.914  0.00  0.00    +0.000 C 
BRANCH  22  23
ATOM     23  C   UNL     1       3.495   4.451  19.071  0.00  0.00    +0.000 C 
ATOM     24  C   UNL     1       2.792   4.887  17.783  0.00  0.00    +0.000 C 
ATOM     25  C   UNL     1       1.409   4.252  17.841  0.00  0.00    +0.000 C 
ATOM     26  C   UNL     1       1.416   3.393  19.095  0.00  0.00    +0.000 C 
ATOM     27  N   UNL     1       2.839   3.165  19.355  0.00  0.00    +0.000 NA
ATOM     28  C   UNL     1       3.063   2.679  20.710  0.00  0.00    +0.000 C 
ENDBRANCH  22  23
ENDBRANCH  21  22
ENDBRANCH  19  21
ENDBRANCH  18  19
ENDBRANCH   3  18
TORSDOF 11
ENDMDL
