MODEL 1
REMARK VINA RESULT:      -6.4      0.000      0.000
REMARK  Name = 
REMARK  10 active torsions:
REMARK  status: ('A' for Active; 'I' for Inactive)
REMARK    1  A    between atoms: C_1  and  O_2
REMARK    2  A    between atoms: O_2  and  C_3
REMARK    3  A    between atoms: C_3  and  C_5
REMARK    4  A    between atoms: C_6  and  C_7
REMARK    5  A    between atoms: C_11  and  O_12
REMARK    6  A    between atoms: C_14  and  C_15
REMARK    7  A    between atoms: C_19  and  O_20
REMARK    8  A    between atoms: C_25  and  O_26
REMARK    9  A    between atoms: O_26  and  C_27
REMARK   10  A    between atoms: C_28  and  O_29
REMARK                            x       y       z     vdW  Elec       q    Type
REMARK                         _______ _______ _______ _____ _____    ______ ____
ROOT
ATOM      1  C   UNL     1      -3.001  14.320  22.160  0.00  0.00    +0.000 A 
ATOM      2  C   UNL     1      -4.274  13.983  21.704  0.00  0.00    +0.000 A 
ATOM      3  C   UNL     1      -4.106  13.021  20.623  0.00  0.00    +0.000 A 
ATOM      4  C   UNL     1      -2.726  12.829  20.435  0.00  0.00    +0.000 A 
ATOM      5  C   UNL     1      -1.840  11.992  19.548  0.00  0.00    +0.000 A 
ATOM      6  C   UNL     1      -2.272  11.193  18.481  0.00  0.00    +0.000 A 
ATOM      7  C   UNL     1      -1.421  10.301  17.782  0.00  0.00    +0.000 A 
ATOM      8  C   UNL     1      -0.066  10.289  18.104  0.00  0.00    +0.000 A 
ATOM      9  C   UNL     1       0.416  11.142  19.093  0.00  0.00    +0.000 A 
ATOM     10  C   UNL     1      -0.451  11.975  19.811  0.00  0.00    +0.000 A 
ATOM     11  C   UNL     1       0.124  12.833  20.849  0.00  0.00    +0.000 A 
ATOM     12  C   UNL     1      -0.691  13.590  21.589  0.00  0.00    +0.000 A 
ATOM     13  N   UNL     1      -2.080  13.608  21.408  0.00  0.00    +0.000 N 
ENDROOT
BRANCH   2  14
ATOM     14  C   UNL     1      -5.505  14.532  22.309  0.00  0.00    +0.000 A 
ATOM     15  C   UNL     1      -6.065  15.742  21.860  0.00  0.00    +0.000 A 
ATOM     16  C   UNL     1      -7.194  16.294  22.477  0.00  0.00    +0.000 A 
ATOM     17  C   UNL     1      -7.825  15.614  23.513  0.00  0.00    +0.000 A 
ATOM     18  C   UNL     1      -7.308  14.393  23.931  0.00  0.00    +0.000 A 
ATOM     19  C   UNL     1      -6.151  13.863  23.356  0.00  0.00    +0.000 A 
BRANCH  18  20
ATOM     20  O   UNL     1      -7.913  13.676  24.923  0.00  0.00    +0.000 OA
ATOM     21  H   UNL     1      -8.133  14.282  25.649  0.00  0.00    +0.000 HD
ENDBRANCH  18  20
ENDBRANCH   2  14
BRANCH   3  22
ATOM     22  C   UNL     1      -5.177  12.376  19.848  0.00  0.00    +0.000 A 
ATOM     23  C   UNL     1      -5.914  11.299  20.361  0.00  0.00    +0.000 A 
ATOM     24  C   UNL     1      -6.865  10.636  19.576  0.00  0.00    +0.000 A 
ATOM     25  C   UNL     1      -7.181  11.117  18.307  0.00  0.00    +0.000 A 
ATOM     26  C   UNL     1      -6.535  12.253  17.836  0.00  0.00    +0.000 A 
ATOM     27  C   UNL     1      -5.524  12.862  18.577  0.00  0.00    +0.000 A 
BRANCH  26  28
ATOM     28  O   UNL     1      -6.866  12.803  16.632  0.00  0.00    +0.000 OA
ATOM     29  H   UNL     1      -6.689  12.152  15.935  0.00  0.00    +0.000 HD
ENDBRANCH  26  28
ENDBRANCH   3  22
BRANCH   1  30
ATOM     30  C   UNL     1      -2.635  15.170  23.279  0.00  0.00    +0.000 C 
ATOM     31  O   UNL     1      -2.368  16.358  23.222  0.00  0.00    +0.000 OA
BRANCH  30  33
ATOM     32  C   UNL     1      -2.759  15.181  25.627  0.00  0.00    +0.000 C 
ATOM     33  O   UNL     1      -2.577  14.428  24.425  0.00  0.00    +0.000 OA
ENDBRANCH  30  33
ENDBRANCH   1  30
BRANCH   7  34
ATOM     34  O   UNL     1      -2.118   9.549  16.878  0.00  0.00    +0.000 OA
ATOM     35  C   UNL     1      -2.653  10.116  15.698  0.00  0.00    +0.000 C 
ENDBRANCH   7  34
BRANCH   8  36
ATOM     36  O   UNL     1       0.907   9.511  17.547  0.00  0.00    +0.000 OA
ATOM     37  H   UNL     1       0.513   8.815  17.011  0.00  0.00    +0.000 HD
ENDBRANCH   8  36
TORSDOF 8
ENDMDL
MODEL 2
REMARK VINA RESULT:      -6.4      2.038      7.669
REMARK  Name = 
REMARK  10 active torsions:
REMARK  status: ('A' for Active; 'I' for Inactive)
REMARK    1  A    between atoms: C_1  and  O_2
REMARK    2  A    between atoms: O_2  and  C_3
REMARK    3  A    between atoms: C_3  and  C_5
REMARK    4  A    between atoms: C_6  and  C_7
REMARK    5  A    between atoms: C_11  and  O_12
REMARK    6  A    between atoms: C_14  and  C_15
REMARK    7  A    between atoms: C_19  and  O_20
REMARK    8  A    between atoms: C_25  and  O_26
REMARK    9  A    between atoms: O_26  and  C_27
REMARK   10  A    between atoms: C_28  and  O_29
REMARK                            x       y       z     vdW  Elec       q    Type
REMARK                         _______ _______ _______ _____ _____    ______ ____
ROOT
ATOM      1  C   UNL     1      -5.049  11.889  19.110  0.00  0.00    +0.000 A 
ATOM      2  C   UNL     1      -3.730  11.702  18.700  0.00  0.00    +0.000 A 
ATOM      3  C   UNL     1      -2.873  12.325  19.699  0.00  0.00    +0.000 A 
ATOM      4  C   UNL     1      -3.705  12.904  20.673  0.00  0.00    +0.000 A 
ATOM      5  C   UNL     1      -3.530  13.664  21.963  0.00  0.00    +0.000 A 
ATOM      6  C   UNL     1      -2.312  14.123  22.482  0.00  0.00    +0.000 A 
ATOM      7  C   UNL     1      -2.181  14.689  23.774  0.00  0.00    +0.000 A 
ATOM      8  C   UNL     1      -3.333  14.890  24.530  0.00  0.00    +0.000 A 
ATOM      9  C   UNL     1      -4.573  14.534  24.005  0.00  0.00    +0.000 A 
ATOM     10  C   UNL     1      -4.676  13.924  22.748  0.00  0.00    +0.000 A 
ATOM     11  C   UNL     1      -6.010  13.562  22.268  0.00  0.00    +0.000 A 
ATOM     12  C   UNL     1      -6.128  12.924  21.101  0.00  0.00    +0.000 A 
ATOM     13  N   UNL     1      -5.024  12.592  20.304  0.00  0.00    +0.000 N 
ENDROOT
BRANCH   2  14
ATOM     14  C   UNL     1      -3.380  10.953  17.475  0.00  0.00    +0.000 A 
ATOM     15  C   UNL     1      -2.363   9.982  17.476  0.00  0.00    +0.000 A 
ATOM     16  C   UNL     1      -1.988   9.319  16.301  0.00  0.00    +0.000 A 
ATOM     17  C   UNL     1      -2.669   9.567  15.114  0.00  0.00    +0.000 A 
ATOM     18  C   UNL     1      -3.709  10.489  15.114  0.00  0.00    +0.000 A 
ATOM     19  C   UNL     1      -4.051  11.193  16.270  0.00  0.00    +0.000 A 
BRANCH  18  20
ATOM     20  O   UNL     1      -4.424  10.741  13.979  0.00  0.00    +0.000 OA
ATOM     21  H   UNL     1      -5.363  10.813  14.215  0.00  0.00    +0.000 HD
ENDBRANCH  18  20
ENDBRANCH   2  14
BRANCH   3  22
ATOM     22  C   UNL     1      -1.402  12.367  19.690  0.00  0.00    +0.000 A 
ATOM     23  C   UNL     1      -0.693  13.203  18.816  0.00  0.00    +0.000 A 
ATOM     24  C   UNL     1       0.705  13.163  18.755  0.00  0.00    +0.000 A 
ATOM     25  C   UNL     1       1.421  12.375  19.653  0.00  0.00    +0.000 A 
ATOM     26  C   UNL     1       0.728  11.629  20.598  0.00  0.00    +0.000 A 
ATOM     27  C   UNL     1      -0.665  11.597  20.604  0.00  0.00    +0.000 A 
BRANCH  26  28
ATOM     28  O   UNL     1       1.389  10.902  21.545  0.00  0.00    +0.000 OA
ATOM     29  H   UNL     1       1.610  11.488  22.286  0.00  0.00    +0.000 HD
ENDBRANCH  26  28
ENDBRANCH   3  22
BRANCH   1  30
ATOM     30  C   UNL     1      -6.267  11.380  18.506  0.00  0.00    +0.000 C 
ATOM     31  O   UNL     1      -7.094  12.034  17.894  0.00  0.00    +0.000 OA
BRANCH  30  33
ATOM     32  C   UNL     1      -7.231   9.739  19.886  0.00  0.00    +0.000 C 
ATOM     33  O   UNL     1      -6.392  10.045  18.770  0.00  0.00    +0.000 OA
ENDBRANCH  30  33
ENDBRANCH   1  30
BRANCH   7  34
ATOM     34  O   UNL     1      -0.872  14.933  24.084  0.00  0.00    +0.000 OA
ATOM     35  C   UNL     1      -0.365  16.251  24.174  0.00  0.00    +0.000 C 
ENDBRANCH   7  34
BRANCH   8  36
ATOM     36  O   UNL     1      -3.415  15.420  25.785  0.00  0.00    +0.000 OA
ATOM     37  H   UNL     1      -2.599  15.259  26.270  0.00  0.00    +0.000 HD
ENDBRANCH   8  36
TORSDOF 8
ENDMDL
MODEL 3
REMARK VINA RESULT:      -6.2      0.839      1.174
REMARK  Name = 
REMARK  10 active torsions:
REMARK  status: ('A' for Active; 'I' for Inactive)
REMARK    1  A    between atoms: C_1  and  O_2
REMARK    2  A    between atoms: O_2  and  C_3
REMARK    3  A    between atoms: C_3  and  C_5
REMARK    4  A    between atoms: C_6  and  C_7
REMARK    5  A    between atoms: C_11  and  O_12
REMARK    6  A    between atoms: C_14  and  C_15
REMARK    7  A    between atoms: C_19  and  O_20
REMARK    8  A    between atoms: C_25  and  O_26
REMARK    9  A    between atoms: O_26  and  C_27
REMARK   10  A    between atoms: C_28  and  O_29
REMARK                            x       y       z     vdW  Elec       q    Type
REMARK                         _______ _______ _______ _____ _____    ______ ____
ROOT
ATOM      1  C   UNL     1      -3.007  14.473  22.216  0.00  0.00    +0.000 A 
ATOM      2  C   UNL     1      -4.288  14.154  21.765  0.00  0.00    +0.000 A 
ATOM      3  C   UNL     1      -4.138  13.210  20.666  0.00  0.00    +0.000 A 
ATOM      4  C   UNL     1      -2.761  13.009  20.462  0.00  0.00    +0.000 A 
ATOM      5  C   UNL     1      -1.890  12.181  19.552  0.00  0.00    +0.000 A 
ATOM      6  C   UNL     1      -2.340  11.404  18.475  0.00  0.00    +0.000 A 
ATOM      7  C   UNL     1      -1.502  10.518  17.753  0.00  0.00    +0.000 A 
ATOM      8  C   UNL     1      -0.145  10.488  18.062  0.00  0.00    +0.000 A 
ATOM      9  C   UNL     1       0.353  11.320  19.062  0.00  0.00    +0.000 A 
ATOM     10  C   UNL     1      -0.500  12.147  19.802  0.00  0.00    +0.000 A 
ATOM     11  C   UNL     1       0.092  12.981  20.849  0.00  0.00    +0.000 A 
ATOM     12  C   UNL     1      -0.709  13.732  21.610  0.00  0.00    +0.000 A 
ATOM     13  N   UNL     1      -2.099  13.766  21.443  0.00  0.00    +0.000 N 
ENDROOT
BRANCH   2  14
ATOM     14  C   UNL     1      -5.508  14.703  22.391  0.00  0.00    +0.000 A 
ATOM     15  C   UNL     1      -6.053  15.932  21.979  0.00  0.00    +0.000 A 
ATOM     16  C   UNL     1      -7.172  16.483  22.615  0.00  0.00    +0.000 A 
ATOM     17  C   UNL     1      -7.807  15.783  23.635  0.00  0.00    +0.000 A 
ATOM     18  C   UNL     1      -7.305  14.544  24.017  0.00  0.00    +0.000 A 
ATOM     19  C   UNL     1      -6.158  14.015  23.423  0.00  0.00    +0.000 A 
BRANCH  18  20
ATOM     20  O   UNL     1      -7.915  13.809  24.993  0.00  0.00    +0.000 OA
ATOM     21  H   UNL     1      -7.885  14.313  25.822  0.00  0.00    +0.000 HD
ENDBRANCH  18  20
ENDBRANCH   2  14
BRANCH   3  22
ATOM     22  C   UNL     1      -5.221  12.588  19.889  0.00  0.00    +0.000 A 
ATOM     23  C   UNL     1      -5.485  12.960  18.563  0.00  0.00    +0.000 A 
ATOM     24  C   UNL     1      -6.578  12.427  17.868  0.00  0.00    +0.000 A 
ATOM     25  C   UNL     1      -7.351  11.423  18.447  0.00  0.00    +0.000 A 
ATOM     26  C   UNL     1      -7.026  10.970  19.719  0.00  0.00    +0.000 A 
ATOM     27  C   UNL     1      -5.996  11.560  20.449  0.00  0.00    +0.000 A 
BRANCH  26  28
ATOM     28  O   UNL     1      -7.708   9.937  20.295  0.00  0.00    +0.000 OA
ATOM     29  H   UNL     1      -8.548   9.821  19.824  0.00  0.00    +0.000 HD
ENDBRANCH  26  28
ENDBRANCH   3  22
BRANCH   1  30
ATOM     30  C   UNL     1      -2.624  15.299  23.346  0.00  0.00    +0.000 C 
ATOM     31  O   UNL     1      -2.492  16.511  23.338  0.00  0.00    +0.000 OA
BRANCH  30  33
ATOM     32  C   UNL     1      -2.949  14.981  25.653  0.00  0.00    +0.000 C 
ATOM     33  O   UNL     1      -2.372  14.510  24.433  0.00  0.00    +0.000 OA
ENDBRANCH  30  33
ENDBRANCH   1  30
BRANCH   7  34
ATOM     34  O   UNL     1      -2.214   9.788  16.842  0.00  0.00    +0.000 OA
ATOM     35  C   UNL     1      -2.585  10.326  15.588  0.00  0.00    +0.000 C 
ENDBRANCH   7  34
BRANCH   8  36
ATOM     36  O   UNL     1       0.816   9.712  17.482  0.00  0.00    +0.000 OA
ATOM     37  H   UNL     1       1.676   9.897  17.872  0.00  0.00    +0.000 HD
ENDBRANCH   8  36
TORSDOF 8
ENDMDL
MODEL 4
REMARK VINA RESULT:      -6.2      1.639      4.831
REMARK  Name = 
REMARK  10 active torsions:
REMARK  status: ('A' for Active; 'I' for Inactive)
REMARK    1  A    between atoms: C_1  and  O_2
REMARK    2  A    between atoms: O_2  and  C_3
REMARK    3  A    between atoms: C_3  and  C_5
REMARK    4  A    between atoms: C_6  and  C_7
REMARK    5  A    between atoms: C_11  and  O_12
REMARK    6  A    between atoms: C_14  and  C_15
REMARK    7  A    between atoms: C_19  and  O_20
REMARK    8  A    between atoms: C_25  and  O_26
REMARK    9  A    between atoms: O_26  and  C_27
REMARK   10  A    between atoms: C_28  and  O_29
REMARK                            x       y       z     vdW  Elec       q    Type
REMARK                         _______ _______ _______ _____ _____    ______ ____
ROOT
ATOM      1  C   UNL     1      -5.551  12.216  19.733  0.00  0.00    +0.000 A 
ATOM      2  C   UNL     1      -5.119  13.101  20.721  0.00  0.00    +0.000 A 
ATOM      3  C   UNL     1      -3.666  13.016  20.773  0.00  0.00    +0.000 A 
ATOM      4  C   UNL     1      -3.261  12.053  19.831  0.00  0.00    +0.000 A 
ATOM      5  C   UNL     1      -1.960  11.477  19.333  0.00  0.00    +0.000 A 
ATOM      6  C   UNL     1      -0.692  11.740  19.868  0.00  0.00    +0.000 A 
ATOM      7  C   UNL     1       0.512  11.302  19.263  0.00  0.00    +0.000 A 
ATOM      8  C   UNL     1       0.432  10.488  18.136  0.00  0.00    +0.000 A 
ATOM      9  C   UNL     1      -0.816  10.128  17.634  0.00  0.00    +0.000 A 
ATOM     10  C   UNL     1      -1.995  10.616  18.212  0.00  0.00    +0.000 A 
ATOM     11  C   UNL     1      -3.270  10.208  17.621  0.00  0.00    +0.000 A 
ATOM     12  C   UNL     1      -4.404  10.710  18.116  0.00  0.00    +0.000 A 
ATOM     13  N   UNL     1      -4.429  11.608  19.191  0.00  0.00    +0.000 N 
ENDROOT
BRANCH   2  14
ATOM     14  C   UNL     1      -6.053  13.951  21.487  0.00  0.00    +0.000 A 
ATOM     15  C   UNL     1      -6.465  15.206  21.004  0.00  0.00    +0.000 A 
ATOM     16  C   UNL     1      -7.300  16.038  21.760  0.00  0.00    +0.000 A 
ATOM     17  C   UNL     1      -7.793  15.604  22.985  0.00  0.00    +0.000 A 
ATOM     18  C   UNL     1      -7.432  14.343  23.448  0.00  0.00    +0.000 A 
ATOM     19  C   UNL     1      -6.556  13.531  22.725  0.00  0.00    +0.000 A 
BRANCH  18  20
ATOM     20  O   UNL     1      -7.916  13.864  24.630  0.00  0.00    +0.000 OA
ATOM     21  H   UNL     1      -8.528  13.134  24.440  0.00  0.00    +0.000 HD
ENDBRANCH  18  20
ENDBRANCH   2  14
BRANCH   3  22
ATOM     22  C   UNL     1      -2.774  13.780  21.659  0.00  0.00    +0.000 A 
ATOM     23  C   UNL     1      -2.379  13.287  22.910  0.00  0.00    +0.000 A 
ATOM     24  C   UNL     1      -1.606  14.065  23.781  0.00  0.00    +0.000 A 
ATOM     25  C   UNL     1      -1.114  15.299  23.365  0.00  0.00    +0.000 A 
ATOM     26  C   UNL     1      -1.408  15.745  22.082  0.00  0.00    +0.000 A 
ATOM     27  C   UNL     1      -2.250  15.015  21.246  0.00  0.00    +0.000 A 
BRANCH  26  28
ATOM     28  O   UNL     1      -0.886  16.912  21.604  0.00  0.00    +0.000 OA
ATOM     29  H   UNL     1      -1.533  17.621  21.746  0.00  0.00    +0.000 HD
ENDBRANCH  26  28
ENDBRANCH   3  22
BRANCH   1  30
ATOM     30  C   UNL     1      -6.898  11.998  19.238  0.00  0.00    +0.000 C 
ATOM     31  O   UNL     1      -7.769  11.347  19.789  0.00  0.00    +0.000 OA
BRANCH  30  33
ATOM     32  C   UNL     1      -7.911  13.726  18.008  0.00  0.00    +0.000 C 
ATOM     33  O   UNL     1      -7.044  12.590  18.015  0.00  0.00    +0.000 OA
ENDBRANCH  30  33
ENDBRANCH   1  30
BRANCH   7  34
ATOM     34  O   UNL     1       1.608  11.800  19.912  0.00  0.00    +0.000 OA
ATOM     35  C   UNL     1       1.682  13.156  20.308  0.00  0.00    +0.000 C 
ENDBRANCH   7  34
BRANCH   8  36
ATOM     36  O   UNL     1       1.469   9.967  17.419  0.00  0.00    +0.000 OA
ATOM     37  H   UNL     1       1.994   9.378  17.970  0.00  0.00    +0.000 HD
ENDBRANCH   8  36
TORSDOF 8
ENDMDL
MODEL 5
REMARK VINA RESULT:      -6.1      1.663      4.960
REMARK  Name = 
REMARK  10 active torsions:
REMARK  status: ('A' for Active; 'I' for Inactive)
REMARK    1  A    between atoms: C_1  and  O_2
REMARK    2  A    between atoms: O_2  and  C_3
REMARK    3  A    between atoms: C_3  and  C_5
REMARK    4  A    between atoms: C_6  and  C_7
REMARK    5  A    between atoms: C_11  and  O_12
REMARK    6  A    between atoms: C_14  and  C_15
REMARK    7  A    between atoms: C_19  and  O_20
REMARK    8  A    between atoms: C_25  and  O_26
REMARK    9  A    between atoms: O_26  and  C_27
REMARK   10  A    between atoms: C_28  and  O_29
REMARK                            x       y       z     vdW  Elec       q    Type
REMARK                         _______ _______ _______ _____ _____    ______ ____
ROOT
ATOM      1  C   UNL     1      -5.302  12.337  19.417  0.00  0.00    +0.000 A 
ATOM      2  C   UNL     1      -4.887  13.371  20.255  0.00  0.00    +0.000 A 
ATOM      3  C   UNL     1      -3.434  13.314  20.325  0.00  0.00    +0.000 A 
ATOM      4  C   UNL     1      -3.011  12.220  19.549  0.00  0.00    +0.000 A 
ATOM      5  C   UNL     1      -1.701  11.589  19.153  0.00  0.00    +0.000 A 
ATOM      6  C   UNL     1      -0.439  11.949  19.646  0.00  0.00    +0.000 A 
ATOM      7  C   UNL     1       0.774  11.437  19.123  0.00  0.00    +0.000 A 
ATOM      8  C   UNL     1       0.710  10.454  18.138  0.00  0.00    +0.000 A 
ATOM      9  C   UNL     1      -0.530  10.003  17.694  0.00  0.00    +0.000 A 
ATOM     10  C   UNL     1      -1.718  10.562  18.183  0.00  0.00    +0.000 A 
ATOM     11  C   UNL     1      -2.984  10.050  17.658  0.00  0.00    +0.000 A 
ATOM     12  C   UNL     1      -4.128  10.609  18.062  0.00  0.00    +0.000 A 
ATOM     13  N   UNL     1      -4.170  11.665  18.982  0.00  0.00    +0.000 N 
ENDROOT
BRANCH   2  14
ATOM     14  C   UNL     1      -5.836  14.319  20.873  0.00  0.00    +0.000 A 
ATOM     15  C   UNL     1      -6.236  15.493  20.209  0.00  0.00    +0.000 A 
ATOM     16  C   UNL     1      -7.085  16.422  20.821  0.00  0.00    +0.000 A 
ATOM     17  C   UNL     1      -7.605  16.164  22.085  0.00  0.00    +0.000 A 
ATOM     18  C   UNL     1      -7.255  14.983  22.729  0.00  0.00    +0.000 A 
ATOM     19  C   UNL     1      -6.365  14.078  22.147  0.00  0.00    +0.000 A 
BRANCH  18  20
ATOM     20  O   UNL     1      -7.765  14.675  23.958  0.00  0.00    +0.000 OA
ATOM     21  H   UNL     1      -8.733  14.721  23.910  0.00  0.00    +0.000 HD
ENDBRANCH  18  20
ENDBRANCH   2  14
BRANCH   3  22
ATOM     22  C   UNL     1      -2.556  14.219  21.084  0.00  0.00    +0.000 A 
ATOM     23  C   UNL     1      -2.111  15.436  20.549  0.00  0.00    +0.000 A 
ATOM     24  C   UNL     1      -1.202  16.242  21.245  0.00  0.00    +0.000 A 
ATOM     25  C   UNL     1      -0.818  15.903  22.540  0.00  0.00    +0.000 A 
ATOM     26  C   UNL     1      -1.343  14.755  23.120  0.00  0.00    +0.000 A 
ATOM     27  C   UNL     1      -2.177  13.904  22.398  0.00  0.00    +0.000 A 
BRANCH  26  28
ATOM     28  O   UNL     1      -1.054  14.423  24.413  0.00  0.00    +0.000 OA
ATOM     29  H   UNL     1      -0.508  15.126  24.797  0.00  0.00    +0.000 HD
ENDBRANCH  26  28
ENDBRANCH   3  22
BRANCH   1  30
ATOM     30  C   UNL     1      -6.644  12.026  18.957  0.00  0.00    +0.000 C 
ATOM     31  O   UNL     1      -7.108  12.294  17.862  0.00  0.00    +0.000 OA
BRANCH  30  33
ATOM     32  C   UNL     1      -7.269   9.999  19.969  0.00  0.00    +0.000 C 
ATOM     33  O   UNL     1      -7.351  11.426  19.961  0.00  0.00    +0.000 OA
ENDBRANCH  30  33
ENDBRANCH   1  30
BRANCH   7  34
ATOM     34  O   UNL     1       1.859  12.045  19.691  0.00  0.00    +0.000 OA
ATOM     35  C   UNL     1       1.813  13.390  20.124  0.00  0.00    +0.000 C 
ENDBRANCH   7  34
BRANCH   8  36
ATOM     36  O   UNL     1       1.758   9.840  17.517  0.00  0.00    +0.000 OA
ATOM     37  H   UNL     1       2.154  10.428  16.867  0.00  0.00    +0.000 HD
ENDBRANCH   8  36
TORSDOF 8
ENDMDL
MODEL 6
REMARK VINA RESULT:      -6.1      1.016      1.414
REMARK  Name = 
REMARK  10 active torsions:
REMARK  status: ('A' for Active; 'I' for Inactive)
REMARK    1  A    between atoms: C_1  and  O_2
REMARK    2  A    between atoms: O_2  and  C_3
REMARK    3  A    between atoms: C_3  and  C_5
REMARK    4  A    between atoms: C_6  and  C_7
REMARK    5  A    between atoms: C_11  and  O_12
REMARK    6  A    between atoms: C_14  and  C_15
REMARK    7  A    between atoms: C_19  and  O_20
REMARK    8  A    between atoms: C_25  and  O_26
REMARK    9  A    between atoms: O_26  and  C_27
REMARK   10  A    between atoms: C_28  and  O_29
REMARK                            x       y       z     vdW  Elec       q    Type
REMARK                         _______ _______ _______ _____ _____    ______ ____
ROOT
ATOM      1  C   UNL     1      -3.024  13.851  22.828  0.00  0.00    +0.000 A 
ATOM      2  C   UNL     1      -4.273  13.697  22.228  0.00  0.00    +0.000 A 
ATOM      3  C   UNL     1      -4.076  12.921  21.011  0.00  0.00    +0.000 A 
ATOM      4  C   UNL     1      -2.701  12.655  20.893  0.00  0.00    +0.000 A 
ATOM      5  C   UNL     1      -1.799  11.912  19.941  0.00  0.00    +0.000 A 
ATOM      6  C   UNL     1      -2.190  11.341  18.723  0.00  0.00    +0.000 A 
ATOM      7  C   UNL     1      -1.342  10.515  17.943  0.00  0.00    +0.000 A 
ATOM      8  C   UNL     1      -0.024  10.342  18.355  0.00  0.00    +0.000 A 
ATOM      9  C   UNL     1       0.427  10.975  19.511  0.00  0.00    +0.000 A 
ATOM     10  C   UNL     1      -0.442  11.741  20.298  0.00  0.00    +0.000 A 
ATOM     11  C   UNL     1       0.097  12.363  21.508  0.00  0.00    +0.000 A 
ATOM     12  C   UNL     1      -0.726  13.047  22.308  0.00  0.00    +0.000 A 
ATOM     13  N   UNL     1      -2.091  13.206  22.032  0.00  0.00    +0.000 N 
ENDROOT
BRANCH   2  14
ATOM     14  C   UNL     1      -5.512  14.232  22.828  0.00  0.00    +0.000 A 
ATOM     15  C   UNL     1      -6.329  13.438  23.652  0.00  0.00    +0.000 A 
ATOM     16  C   UNL     1      -7.536  13.926  24.169  0.00  0.00    +0.000 A 
ATOM     17  C   UNL     1      -7.917  15.241  23.925  0.00  0.00    +0.000 A 
ATOM     18  C   UNL     1      -7.091  16.050  23.153  0.00  0.00    +0.000 A 
ATOM     19  C   UNL     1      -5.914  15.553  22.590  0.00  0.00    +0.000 A 
BRANCH  18  20
ATOM     20  O   UNL     1      -7.410  17.355  22.914  0.00  0.00    +0.000 OA
ATOM     21  H   UNL     1      -7.637  17.777  23.758  0.00  0.00    +0.000 HD
ENDBRANCH  18  20
ENDBRANCH   2  14
BRANCH   3  22
ATOM     22  C   UNL     1      -5.117  12.503  20.059  0.00  0.00    +0.000 A 
ATOM     23  C   UNL     1      -6.104  11.570  20.407  0.00  0.00    +0.000 A 
ATOM     24  C   UNL     1      -7.030  11.112  19.462  0.00  0.00    +0.000 A 
ATOM     25  C   UNL     1      -7.061  11.671  18.187  0.00  0.00    +0.000 A 
ATOM     26  C   UNL     1      -6.158  12.678  17.870  0.00  0.00    +0.000 A 
ATOM     27  C   UNL     1      -5.177  13.073  18.778  0.00  0.00    +0.000 A 
BRANCH  26  28
ATOM     28  O   UNL     1      -6.200  13.307  16.660  0.00  0.00    +0.000 OA
ATOM     29  H   UNL     1      -6.868  12.871  16.108  0.00  0.00    +0.000 HD
ENDBRANCH  26  28
ENDBRANCH   3  22
BRANCH   1  30
ATOM     30  C   UNL     1      -2.700  14.469  24.102  0.00  0.00    +0.000 C 
ATOM     31  O   UNL     1      -2.964  14.022  25.205  0.00  0.00    +0.000 OA
BRANCH  30  33
ATOM     32  C   UNL     1      -2.862  16.804  24.312  0.00  0.00    +0.000 C 
ATOM     33  O   UNL     1      -2.093  15.675  23.891  0.00  0.00    +0.000 OA
ENDBRANCH  30  33
ENDBRANCH   1  30
BRANCH   7  34
ATOM     34  O   UNL     1      -2.007   9.984  16.873  0.00  0.00    +0.000 OA
ATOM     35  C   UNL     1      -3.373  10.265  16.635  0.00  0.00    +0.000 C 
ENDBRANCH   7  34
BRANCH   8  36
ATOM     36  O   UNL     1       0.940   9.595  17.743  0.00  0.00    +0.000 OA
ATOM     37  H   UNL     1       1.760  10.095  17.675  0.00  0.00    +0.000 HD
ENDBRANCH   8  36
TORSDOF 8
ENDMDL
MODEL 7
REMARK VINA RESULT:      -6.1      1.965      5.003
REMARK  Name = 
REMARK  10 active torsions:
REMARK  status: ('A' for Active; 'I' for Inactive)
REMARK    1  A    between atoms: C_1  and  O_2
REMARK    2  A    between atoms: O_2  and  C_3
REMARK    3  A    between atoms: C_3  and  C_5
REMARK    4  A    between atoms: C_6  and  C_7
REMARK    5  A    between atoms: C_11  and  O_12
REMARK    6  A    between atoms: C_14  and  C_15
REMARK    7  A    between atoms: C_19  and  O_20
REMARK    8  A    between atoms: C_25  and  O_26
REMARK    9  A    between atoms: O_26  and  C_27
REMARK   10  A    between atoms: C_28  and  O_29
REMARK                            x       y       z     vdW  Elec       q    Type
REMARK                         _______ _______ _______ _____ _____    ______ ____
ROOT
ATOM      1  C   UNL     1      -5.339  12.020  19.365  0.00  0.00    +0.000 A 
ATOM      2  C   UNL     1      -4.980  12.931  20.357  0.00  0.00    +0.000 A 
ATOM      3  C   UNL     1      -3.531  12.876  20.491  0.00  0.00    +0.000 A 
ATOM      4  C   UNL     1      -3.056  11.903  19.594  0.00  0.00    +0.000 A 
ATOM      5  C   UNL     1      -1.719  11.342  19.180  0.00  0.00    +0.000 A 
ATOM      6  C   UNL     1      -0.488  11.639  19.780  0.00  0.00    +0.000 A 
ATOM      7  C   UNL     1       0.756  11.213  19.252  0.00  0.00    +0.000 A 
ATOM      8  C   UNL     1       0.753  10.376  18.139  0.00  0.00    +0.000 A 
ATOM      9  C   UNL     1      -0.458   9.982  17.576  0.00  0.00    +0.000 A 
ATOM     10  C   UNL     1      -1.675  10.459  18.078  0.00  0.00    +0.000 A 
ATOM     11  C   UNL     1      -2.908  10.015  17.425  0.00  0.00    +0.000 A 
ATOM     12  C   UNL     1      -4.077  10.505  17.845  0.00  0.00    +0.000 A 
ATOM     13  N   UNL     1      -4.179  11.423  18.899  0.00  0.00    +0.000 N 
ENDROOT
BRANCH   2  14
ATOM     14  C   UNL     1      -5.971  13.778  21.052  0.00  0.00    +0.000 A 
ATOM     15  C   UNL     1      -6.565  13.370  22.259  0.00  0.00    +0.000 A 
ATOM     16  C   UNL     1      -7.551  14.143  22.884  0.00  0.00    +0.000 A 
ATOM     17  C   UNL     1      -7.915  15.373  22.347  0.00  0.00    +0.000 A 
ATOM     18  C   UNL     1      -7.297  15.809  21.181  0.00  0.00    +0.000 A 
ATOM     19  C   UNL     1      -6.353  15.017  20.524  0.00  0.00    +0.000 A 
BRANCH  18  20
ATOM     20  O   UNL     1      -7.602  17.023  20.636  0.00  0.00    +0.000 OA
ATOM     21  H   UNL     1      -7.867  16.888  19.711  0.00  0.00    +0.000 HD
ENDBRANCH  18  20
ENDBRANCH   2  14
BRANCH   3  22
ATOM     22  C   UNL     1      -2.703  13.674  21.410  0.00  0.00    +0.000 A 
ATOM     23  C   UNL     1      -2.499  13.288  22.742  0.00  0.00    +0.000 A 
ATOM     24  C   UNL     1      -1.788  14.105  23.629  0.00  0.00    +0.000 A 
ATOM     25  C   UNL     1      -1.164  15.261  23.167  0.00  0.00    +0.000 A 
ATOM     26  C   UNL     1      -1.268  15.591  21.821  0.00  0.00    +0.000 A 
ATOM     27  C   UNL     1      -2.050  14.830  20.955  0.00  0.00    +0.000 A 
BRANCH  26  28
ATOM     28  O   UNL     1      -0.613  16.673  21.308  0.00  0.00    +0.000 OA
ATOM     29  H   UNL     1      -0.630  16.614  20.340  0.00  0.00    +0.000 HD
ENDBRANCH  26  28
ENDBRANCH   3  22
BRANCH   1  30
ATOM     30  C   UNL     1      -6.653  11.766  18.800  0.00  0.00    +0.000 C 
ATOM     31  O   UNL     1      -7.078  12.205  17.746  0.00  0.00    +0.000 OA
BRANCH  30  33
ATOM     32  C   UNL     1      -7.178   9.588  19.511  0.00  0.00    +0.000 C 
ATOM     33  O   UNL     1      -7.385  10.994  19.659  0.00  0.00    +0.000 OA
ENDBRANCH  30  33
ENDBRANCH   1  30
BRANCH   7  34
ATOM     34  O   UNL     1       1.804  11.744  19.951  0.00  0.00    +0.000 OA
ATOM     35  C   UNL     1       1.841  13.114  20.306  0.00  0.00    +0.000 C 
ENDBRANCH   7  34
BRANCH   8  36
ATOM     36  O   UNL     1       1.838   9.861  17.492  0.00  0.00    +0.000 OA
ATOM     37  H   UNL     1       2.431  10.568  17.216  0.00  0.00    +0.000 HD
ENDBRANCH   8  36
TORSDOF 8
ENDMDL
MODEL 8
REMARK VINA RESULT:      -6.0      3.019      4.788
REMARK  Name = 
REMARK  10 active torsions:
REMARK  status: ('A' for Active; 'I' for Inactive)
REMARK    1  A    between atoms: C_1  and  O_2
REMARK    2  A    between atoms: O_2  and  C_3
REMARK    3  A    between atoms: C_3  and  C_5
REMARK    4  A    between atoms: C_6  and  C_7
REMARK    5  A    between atoms: C_11  and  O_12
REMARK    6  A    between atoms: C_14  and  C_15
REMARK    7  A    between atoms: C_19  and  O_20
REMARK    8  A    between atoms: C_25  and  O_26
REMARK    9  A    between atoms: O_26  and  C_27
REMARK   10  A    between atoms: C_28  and  O_29
REMARK                            x       y       z     vdW  Elec       q    Type
REMARK                         _______ _______ _______ _____ _____    ______ ____
ROOT
ATOM      1  C   UNL     1      -2.502  15.530  21.355  0.00  0.00    +0.000 A 
ATOM      2  C   UNL     1      -2.515  14.177  21.693  0.00  0.00    +0.000 A 
ATOM      3  C   UNL     1      -1.387  13.551  21.019  0.00  0.00    +0.000 A 
ATOM      4  C   UNL     1      -0.739  14.542  20.261  0.00  0.00    +0.000 A 
ATOM      5  C   UNL     1       0.469  14.631  19.364  0.00  0.00    +0.000 A 
ATOM      6  C   UNL     1       1.253  13.550  18.939  0.00  0.00    +0.000 A 
ATOM      7  C   UNL     1       2.470  13.704  18.230  0.00  0.00    +0.000 A 
ATOM      8  C   UNL     1       2.859  14.985  17.849  0.00  0.00    +0.000 A 
ATOM      9  C   UNL     1       2.053  16.074  18.170  0.00  0.00    +0.000 A 
ATOM     10  C   UNL     1       0.882  15.908  18.921  0.00  0.00    +0.000 A 
ATOM     11  C   UNL     1       0.094  17.101  19.235  0.00  0.00    +0.000 A 
ATOM     12  C   UNL     1      -0.993  16.976  20.002  0.00  0.00    +0.000 A 
ATOM     13  N   UNL     1      -1.421  15.744  20.513  0.00  0.00    +0.000 N 
ENDROOT
BRANCH   2  14
ATOM     14  C   UNL     1      -3.518  13.601  22.612  0.00  0.00    +0.000 A 
ATOM     15  C   UNL     1      -3.265  13.479  23.990  0.00  0.00    +0.000 A 
ATOM     16  C   UNL     1      -4.190  12.874  24.849  0.00  0.00    +0.000 A 
ATOM     17  C   UNL     1      -5.415  12.438  24.358  0.00  0.00    +0.000 A 
ATOM     18  C   UNL     1      -5.696  12.599  23.006  0.00  0.00    +0.000 A 
ATOM     19  C   UNL     1      -4.756  13.152  22.134  0.00  0.00    +0.000 A 
BRANCH  18  20
ATOM     20  O   UNL     1      -6.898  12.213  22.487  0.00  0.00    +0.000 OA
ATOM     21  H   UNL     1      -6.892  12.389  21.532  0.00  0.00    +0.000 HD
ENDBRANCH  18  20
ENDBRANCH   2  14
BRANCH   3  22
ATOM     22  C   UNL     1      -0.997  12.134  21.092  0.00  0.00    +0.000 A 
ATOM     23  C   UNL     1      -1.021  11.303  19.963  0.00  0.00    +0.000 A 
ATOM     24  C   UNL     1      -0.738   9.936  20.067  0.00  0.00    +0.000 A 
ATOM     25  C   UNL     1      -0.308   9.402  21.279  0.00  0.00    +0.000 A 
ATOM     26  C   UNL     1      -0.174  10.243  22.377  0.00  0.00    +0.000 A 
ATOM     27  C   UNL     1      -0.540  11.585  22.300  0.00  0.00    +0.000 A 
BRANCH  26  28
ATOM     28  O   UNL     1       0.316   9.780  23.564  0.00  0.00    +0.000 OA
ATOM     29  H   UNL     1      -0.314  10.005  24.267  0.00  0.00    +0.000 HD
ENDBRANCH  26  28
ENDBRANCH   3  22
BRANCH   1  30
ATOM     30  C   UNL     1      -3.362  16.594  21.839  0.00  0.00    +0.000 C 
ATOM     31  O   UNL     1      -4.344  17.039  21.270  0.00  0.00    +0.000 OA
BRANCH  30  33
ATOM     32  C   UNL     1      -3.884  17.567  23.914  0.00  0.00    +0.000 C 
ATOM     33  O   UNL     1      -2.880  17.079  23.022  0.00  0.00    +0.000 OA
ENDBRANCH  30  33
ENDBRANCH   1  30
BRANCH   7  34
ATOM     34  O   UNL     1       3.100  12.503  18.051  0.00  0.00    +0.000 OA
ATOM     35  C   UNL     1       2.381  11.285  18.032  0.00  0.00    +0.000 C 
ENDBRANCH   7  34
BRANCH   8  36
ATOM     36  O   UNL     1       3.986  15.336  17.163  0.00  0.00    +0.000 OA
ATOM     37  H   UNL     1       4.185  16.267  17.300  0.00  0.00    +0.000 HD
ENDBRANCH   8  36
TORSDOF 8
ENDMDL
MODEL 9
REMARK VINA RESULT:      -6.0      1.998      6.762
REMARK  Name = 
REMARK  10 active torsions:
REMARK  status: ('A' for Active; 'I' for Inactive)
REMARK    1  A    between atoms: C_1  and  O_2
REMARK    2  A    between atoms: O_2  and  C_3
REMARK    3  A    between atoms: C_3  and  C_5
REMARK    4  A    between atoms: C_6  and  C_7
REMARK    5  A    between atoms: C_11  and  O_12
REMARK    6  A    between atoms: C_14  and  C_15
REMARK    7  A    between atoms: C_19  and  O_20
REMARK    8  A    between atoms: C_25  and  O_26
REMARK    9  A    between atoms: O_26  and  C_27
REMARK   10  A    between atoms: C_28  and  O_29
REMARK                            x       y       z     vdW  Elec       q    Type
REMARK                         _______ _______ _______ _____ _____    ______ ____
ROOT
ATOM      1  C   UNL     1      -1.301  12.798  21.072  0.00  0.00    +0.000 A 
ATOM      2  C   UNL     1      -2.386  12.456  20.266  0.00  0.00    +0.000 A 
ATOM      3  C   UNL     1      -3.558  13.128  20.810  0.00  0.00    +0.000 A 
ATOM      4  C   UNL     1      -3.151  13.836  21.955  0.00  0.00    +0.000 A 
ATOM      5  C   UNL     1      -3.788  14.744  22.975  0.00  0.00    +0.000 A 
ATOM      6  C   UNL     1      -5.157  15.024  23.077  0.00  0.00    +0.000 A 
ATOM      7  C   UNL     1      -5.687  16.009  23.948  0.00  0.00    +0.000 A 
ATOM      8  C   UNL     1      -4.817  16.662  24.817  0.00  0.00    +0.000 A 
ATOM      9  C   UNL     1      -3.462  16.338  24.810  0.00  0.00    +0.000 A 
ATOM     10  C   UNL     1      -2.950  15.403  23.902  0.00  0.00    +0.000 A 
ATOM     11  C   UNL     1      -1.513  15.125  23.941  0.00  0.00    +0.000 A 
ATOM     12  C   UNL     1      -0.991  14.284  23.045  0.00  0.00    +0.000 A 
ATOM     13  N   UNL     1      -1.764  13.642  22.068  0.00  0.00    +0.000 N 
ENDROOT
BRANCH   2  14
ATOM     14  C   UNL     1      -2.249  11.591  19.077  0.00  0.00    +0.000 A 
ATOM     15  C   UNL     1      -1.496  10.404  19.117  0.00  0.00    +0.000 A 
ATOM     16  C   UNL     1      -1.313   9.618  17.972  0.00  0.00    +0.000 A 
ATOM     17  C   UNL     1      -1.934   9.970  16.779  0.00  0.00    +0.000 A 
ATOM     18  C   UNL     1      -2.722  11.116  16.742  0.00  0.00    +0.000 A 
ATOM     19  C   UNL     1      -2.864  11.932  17.865  0.00  0.00    +0.000 A 
BRANCH  18  20
ATOM     20  O   UNL     1      -3.375  11.482  15.600  0.00  0.00    +0.000 OA
ATOM     21  H   UNL     1      -2.946  11.046  14.847  0.00  0.00    +0.000 HD
ENDBRANCH  18  20
ENDBRANCH   2  14
BRANCH   3  22
ATOM     22  C   UNL     1      -4.929  13.069  20.279  0.00  0.00    +0.000 A 
ATOM     23  C   UNL     1      -5.510  14.158  19.614  0.00  0.00    +0.000 A 
ATOM     24  C   UNL     1      -6.847  14.120  19.198  0.00  0.00    +0.000 A 
ATOM     25  C   UNL     1      -7.586  12.947  19.331  0.00  0.00    +0.000 A 
ATOM     26  C   UNL     1      -6.981  11.827  19.887  0.00  0.00    +0.000 A 
ATOM     27  C   UNL     1      -5.680  11.888  20.384  0.00  0.00    +0.000 A 
BRANCH  26  28
ATOM     28  O   UNL     1      -7.642  10.636  19.969  0.00  0.00    +0.000 OA
ATOM     29  H   UNL     1      -7.481  10.137  19.152  0.00  0.00    +0.000 HD
ENDBRANCH  26  28
ENDBRANCH   3  22
BRANCH   1  30
ATOM     30  C   UNL     1       0.100  12.457  20.898  0.00  0.00    +0.000 C 
ATOM     31  O   UNL     1       0.713  11.602  21.513  0.00  0.00    +0.000 OA
BRANCH  30  33
ATOM     32  C   UNL     1       1.454  12.610  18.982  0.00  0.00    +0.000 C 
ATOM     33  O   UNL     1       0.665  13.283  19.966  0.00  0.00    +0.000 OA
ENDBRANCH  30  33
ENDBRANCH   1  30
BRANCH   7  34
ATOM     34  O   UNL     1      -7.031  16.172  23.760  0.00  0.00    +0.000 OA
ATOM     35  C   UNL     1      -7.867  15.089  23.403  0.00  0.00    +0.000 C 
ENDBRANCH   7  34
BRANCH   8  36
ATOM     36  O   UNL     1      -5.132  17.630  25.726  0.00  0.00    +0.000 OA
ATOM     37  H   UNL     1      -5.960  18.057  25.487  0.00  0.00    +0.000 HD
ENDBRANCH   8  36
TORSDOF 8
ENDMDL
