MODEL 1
REMARK VINA RESULT:      -7.6      0.000      0.000
REMARK  Name = 
REMARK  7 active torsions:
REMARK  status: ('A' for Active; 'I' for Inactive)
REMARK    1  A    between atoms: C_1  and  C_2
REMARK    2  A    between atoms: C_4  and  C_5
REMARK    3  A    between atoms: C_12  and  N_13
REMARK    4  A    between atoms: N_13  and  C_14
REMARK    5  A    between atoms: N_13  and  C_21
REMARK    6  A    between atoms: C_14  and  C_15
REMARK    7  A    between atoms: N_19  and  C_20
REMARK                            x       y       z     vdW  Elec       q    Type
REMARK                         _______ _______ _______ _____ _____    ______ ____
ROOT
ATOM      1  C   UNL     1       2.420   8.576  17.983  0.00  0.00    +0.000 C 
ATOM      2  C   UNL     1       2.963   7.193  17.801  0.00  0.00    +0.000 A 
ATOM      3  N   UNL     1       2.327   6.182  18.430  0.00  0.00    +0.000 NA
ATOM      4  C   UNL     1       2.865   4.961  18.292  0.00  0.00    +0.000 A 
ATOM      5  C   UNL     1       4.029   4.770  17.545  0.00  0.00    +0.000 A 
ATOM      6  C   UNL     1       4.596   5.847  16.868  0.00  0.00    +0.000 A 
ATOM      7  N   UNL     1       4.056   7.067  17.016  0.00  0.00    +0.000 NA
ENDROOT
BRANCH   4   8
ATOM      8  C   UNL     1       2.179   3.746  18.927  0.00  0.00    +0.000 C 
ATOM      9  C   UNL     1       1.150   4.059  20.041  0.00  0.00    +0.000 C 
ATOM     10  C   UNL     1       1.416   3.478  21.434  0.00  0.00    +0.000 C 
ATOM     11  C   UNL     1       2.300   2.242  21.463  0.00  0.00    +0.000 C 
ATOM     12  N   UNL     1       3.502   2.463  20.672  0.00  0.00    +0.000 NA
ATOM     13  C   UNL     1       3.152   2.596  19.257  0.00  0.00    +0.000 C 
ATOM     14  H   UNL     1       4.134   1.669  20.778  0.00  0.00    +0.000 HD
ENDBRANCH   4   8
BRANCH   6  15
ATOM     15  N   UNL     1       5.735   5.690  16.045  0.00  0.00    +0.000 N 
BRANCH  15  16
ATOM     16  C   UNL     1       5.643   5.126  14.682  0.00  0.00    +0.000 C 
ATOM     17  C   UNL     1       6.796   4.695  13.820  0.00  0.00    +0.000 C 
ATOM     18  C   UNL     1       5.971   3.657  14.507  0.00  0.00    +0.000 C 
ENDBRANCH  15  16
BRANCH  15  19
ATOM     19  C   UNL     1       7.061   5.567  16.682  0.00  0.00    +0.000 C 
BRANCH  19  20
ATOM     20  C   UNL     1       7.482   6.787  17.450  0.00  0.00    +0.000 A 
ATOM     21  N   UNL     1       7.421   8.029  16.992  0.00  0.00    +0.000 NA
ATOM     22  C   UNL     1       8.119   8.792  17.886  0.00  0.00    +0.000 A 
ATOM     23  C   UNL     1       8.572   8.022  18.929  0.00  0.00    +0.000 A 
ATOM     24  N   UNL     1       8.046   6.779  18.707  0.00  0.00    +0.000 N 
ATOM     25  C   UNL     1       8.043   5.708  19.674  0.00  0.00    +0.000 C 
ENDBRANCH  19  20
ENDBRANCH  15  19
ENDBRANCH   6  15
TORSDOF 5
ENDMDL
MODEL 2
REMARK VINA RESULT:      -7.2      1.497      6.576
REMARK  Name = 
REMARK  7 active torsions:
REMARK  status: ('A' for Active; 'I' for Inactive)
REMARK    1  A    between atoms: C_1  and  C_2
REMARK    2  A    between atoms: C_4  and  C_5
REMARK    3  A    between atoms: C_12  and  N_13
REMARK    4  A    between atoms: N_13  and  C_14
REMARK    5  A    between atoms: N_13  and  C_21
REMARK    6  A    between atoms: C_14  and  C_15
REMARK    7  A    between atoms: N_19  and  C_20
REMARK                            x       y       z     vdW  Elec       q    Type
REMARK                         _______ _______ _______ _____ _____    ______ ____
ROOT
ATOM      1  C   UNL     1       7.921   8.354  17.733  0.00  0.00    +0.000 C 
ATOM      2  C   UNL     1       7.049   7.220  17.291  0.00  0.00    +0.000 A 
ATOM      3  N   UNL     1       7.499   6.437  16.288  0.00  0.00    +0.000 NA
ATOM      4  C   UNL     1       6.677   5.461  15.877  0.00  0.00    +0.000 A 
ATOM      5  C   UNL     1       5.419   5.290  16.458  0.00  0.00    +0.000 A 
ATOM      6  C   UNL     1       5.045   6.092  17.534  0.00  0.00    +0.000 A 
ATOM      7  N   UNL     1       5.871   7.072  17.936  0.00  0.00    +0.000 NA
ENDROOT
BRANCH   4   8
ATOM      8  C   UNL     1       7.128   4.490  14.779  0.00  0.00    +0.000 C 
ATOM      9  C   UNL     1       7.901   5.123  13.597  0.00  0.00    +0.000 C 
ATOM     10  C   UNL     1       7.297   4.975  12.196  0.00  0.00    +0.000 C 
ATOM     11  C   UNL     1       6.355   3.796  12.017  0.00  0.00    +0.000 C 
ATOM     12  N   UNL     1       5.374   3.767  13.093  0.00  0.00    +0.000 NA
ATOM     13  C   UNL     1       6.038   3.482  14.367  0.00  0.00    +0.000 C 
ATOM     14  H   UNL     1       4.687   3.036  12.912  0.00  0.00    +0.000 HD
ENDBRANCH   4   8
BRANCH   6  15
ATOM     15  N   UNL     1       3.810   5.913  18.200  0.00  0.00    +0.000 N 
BRANCH  15  16
ATOM     16  C   UNL     1       2.668   6.825  17.986  0.00  0.00    +0.000 C 
ATOM     17  C   UNL     1       2.203   7.901  18.927  0.00  0.00    +0.000 C 
ATOM     18  C   UNL     1       2.976   8.282  17.708  0.00  0.00    +0.000 C 
ENDBRANCH  15  16
BRANCH  15  19
ATOM     19  C   UNL     1       3.793   5.183  19.483  0.00  0.00    +0.000 C 
BRANCH  19  20
ATOM     20  C   UNL     1       3.378   3.745  19.359  0.00  0.00    +0.000 A 
ATOM     21  N   UNL     1       4.169   2.759  18.963  0.00  0.00    +0.000 NA
ATOM     22  C   UNL     1       3.351   1.685  18.752  0.00  0.00    +0.000 A 
ATOM     23  C   UNL     1       2.052   1.997  19.067  0.00  0.00    +0.000 A 
ATOM     24  N   UNL     1       2.105   3.265  19.579  0.00  0.00    +0.000 N 
ATOM     25  C   UNL     1       1.021   3.911  20.278  0.00  0.00    +0.000 C 
ENDBRANCH  19  20
ENDBRANCH  15  19
ENDBRANCH   6  15
TORSDOF 5
ENDMDL
MODEL 3
REMARK VINA RESULT:      -7.0      1.641      6.698
REMARK  Name = 
REMARK  7 active torsions:
REMARK  status: ('A' for Active; 'I' for Inactive)
REMARK    1  A    between atoms: C_1  and  C_2
REMARK    2  A    between atoms: C_4  and  C_5
REMARK    3  A    between atoms: C_12  and  N_13
REMARK    4  A    between atoms: N_13  and  C_14
REMARK    5  A    between atoms: N_13  and  C_21
REMARK    6  A    between atoms: C_14  and  C_15
REMARK    7  A    between atoms: N_19  and  C_20
REMARK                            x       y       z     vdW  Elec       q    Type
REMARK                         _______ _______ _______ _____ _____    ______ ____
ROOT
ATOM      1  C   UNL     1       7.904   8.257  17.674  0.00  0.00    +0.000 C 
ATOM      2  C   UNL     1       7.125   7.043  17.273  0.00  0.00    +0.000 A 
ATOM      3  N   UNL     1       7.560   6.343  16.204  0.00  0.00    +0.000 NA
ATOM      4  C   UNL     1       6.815   5.291  15.836  0.00  0.00    +0.000 A 
ATOM      5  C   UNL     1       5.647   4.962  16.526  0.00  0.00    +0.000 A 
ATOM      6  C   UNL     1       5.292   5.687  17.661  0.00  0.00    +0.000 A 
ATOM      7  N   UNL     1       6.039   6.744  18.020  0.00  0.00    +0.000 NA
ENDROOT
BRANCH   4   8
ATOM      8  C   UNL     1       7.263   4.407  14.666  0.00  0.00    +0.000 C 
ATOM      9  C   UNL     1       7.979   5.139  13.505  0.00  0.00    +0.000 C 
ATOM     10  C   UNL     1       7.337   5.061  12.115  0.00  0.00    +0.000 C 
ATOM     11  C   UNL     1       6.427   3.864  11.888  0.00  0.00    +0.000 C 
ATOM     12  N   UNL     1       5.482   3.735  12.987  0.00  0.00    +0.000 NA
ATOM     13  C   UNL     1       6.192   3.391  14.220  0.00  0.00    +0.000 C 
ATOM     14  H   UNL     1       4.812   2.993  12.780  0.00  0.00    +0.000 HD
ENDBRANCH   4   8
BRANCH   6  15
ATOM     15  N   UNL     1       4.155   5.350  18.433  0.00  0.00    +0.000 N 
BRANCH  15  16
ATOM     16  C   UNL     1       3.187   6.370  18.882  0.00  0.00    +0.000 C 
ATOM     17  C   UNL     1       2.847   7.648  18.168  0.00  0.00    +0.000 C 
ATOM     18  C   UNL     1       1.893   6.501  18.105  0.00  0.00    +0.000 C 
ENDBRANCH  15  16
BRANCH  15  19
ATOM     19  C   UNL     1       4.189   4.120  19.248  0.00  0.00    +0.000 C 
BRANCH  19  20
ATOM     20  C   UNL     1       2.891   3.363  19.259  0.00  0.00    +0.000 A 
ATOM     21  N   UNL     1       2.404   2.679  18.234  0.00  0.00    +0.000 NA
ATOM     22  C   UNL     1       1.118   2.364  18.572  0.00  0.00    +0.000 A 
ATOM     23  C   UNL     1       0.825   2.815  19.836  0.00  0.00    +0.000 A 
ATOM     24  N   UNL     1       2.002   3.328  20.311  0.00  0.00    +0.000 N 
ATOM     25  C   UNL     1       2.241   3.684  21.688  0.00  0.00    +0.000 C 
ENDBRANCH  19  20
ENDBRANCH  15  19
ENDBRANCH   6  15
TORSDOF 5
ENDMDL
MODEL 4
REMARK VINA RESULT:      -7.0      1.489      3.533
REMARK  Name = 
REMARK  7 active torsions:
REMARK  status: ('A' for Active; 'I' for Inactive)
REMARK    1  A    between atoms: C_1  and  C_2
REMARK    2  A    between atoms: C_4  and  C_5
REMARK    3  A    between atoms: C_12  and  N_13
REMARK    4  A    between atoms: N_13  and  C_14
REMARK    5  A    between atoms: N_13  and  C_21
REMARK    6  A    between atoms: C_14  and  C_15
REMARK    7  A    between atoms: N_19  and  C_20
REMARK                            x       y       z     vdW  Elec       q    Type
REMARK                         _______ _______ _______ _____ _____    ______ ____
ROOT
ATOM      1  C   UNL     1       2.608   8.381  17.506  0.00  0.00    +0.000 C 
ATOM      2  C   UNL     1       3.437   7.276  18.084  0.00  0.00    +0.000 A 
ATOM      3  N   UNL     1       2.843   6.438  18.959  0.00  0.00    +0.000 NA
ATOM      4  C   UNL     1       3.622   5.490  19.501  0.00  0.00    +0.000 A 
ATOM      5  C   UNL     1       4.977   5.401  19.174  0.00  0.00    +0.000 A 
ATOM      6  C   UNL     1       5.510   6.256  18.213  0.00  0.00    +0.000 A 
ATOM      7  N   UNL     1       4.725   7.208  17.680  0.00  0.00    +0.000 NA
ENDROOT
BRANCH   4   8
ATOM      8  C   UNL     1       3.019   4.460  20.463  0.00  0.00    +0.000 C 
ATOM      9  C   UNL     1       3.342   2.978  20.154  0.00  0.00    +0.000 C 
ATOM     10  C   UNL     1       2.162   2.040  19.874  0.00  0.00    +0.000 C 
ATOM     11  C   UNL     1       0.831   2.480  20.460  0.00  0.00    +0.000 C 
ATOM     12  N   UNL     1       0.572   3.875  20.131  0.00  0.00    +0.000 NA
ATOM     13  C   UNL     1       1.542   4.736  20.808  0.00  0.00    +0.000 C 
ATOM     14  H   UNL     1      -0.366   4.133  20.441  0.00  0.00    +0.000 HD
ENDBRANCH   4   8
BRANCH   6  15
ATOM     15  N   UNL     1       6.859   6.161  17.799  0.00  0.00    +0.000 N 
BRANCH  15  16
ATOM     16  C   UNL     1       7.626   7.344  17.359  0.00  0.00    +0.000 C 
ATOM     17  C   UNL     1       7.317   8.777  17.690  0.00  0.00    +0.000 C 
ATOM     18  C   UNL     1       8.432   8.087  18.404  0.00  0.00    +0.000 C 
ENDBRANCH  15  16
BRANCH  15  19
ATOM     19  C   UNL     1       7.355   4.869  17.285  0.00  0.00    +0.000 C 
BRANCH  19  20
ATOM     20  C   UNL     1       6.921   4.568  15.880  0.00  0.00    +0.000 A 
ATOM     21  N   UNL     1       7.633   4.830  14.793  0.00  0.00    +0.000 NA
ATOM     22  C   UNL     1       6.789   4.638  13.737  0.00  0.00    +0.000 A 
ATOM     23  C   UNL     1       5.560   4.206  14.171  0.00  0.00    +0.000 A 
ATOM     24  N   UNL     1       5.701   4.037  15.522  0.00  0.00    +0.000 N 
ATOM     25  C   UNL     1       4.748   3.355  16.364  0.00  0.00    +0.000 C 
ENDBRANCH  19  20
ENDBRANCH  15  19
ENDBRANCH   6  15
TORSDOF 5
ENDMDL
MODEL 5
REMARK VINA RESULT:      -6.9      1.586      6.418
REMARK  Name = 
REMARK  7 active torsions:
REMARK  status: ('A' for Active; 'I' for Inactive)
REMARK    1  A    between atoms: C_1  and  C_2
REMARK    2  A    between atoms: C_4  and  C_5
REMARK    3  A    between atoms: C_12  and  N_13
REMARK    4  A    between atoms: N_13  and  C_14
REMARK    5  A    between atoms: N_13  and  C_21
REMARK    6  A    between atoms: C_14  and  C_15
REMARK    7  A    between atoms: N_19  and  C_20
REMARK                            x       y       z     vdW  Elec       q    Type
REMARK                         _______ _______ _______ _____ _____    ______ ____
ROOT
ATOM      1  C   UNL     1       8.018   8.529  17.648  0.00  0.00    +0.000 C 
ATOM      2  C   UNL     1       7.098   7.392  17.328  0.00  0.00    +0.000 A 
ATOM      3  N   UNL     1       7.485   6.522  16.371  0.00  0.00    +0.000 NA
ATOM      4  C   UNL     1       6.620   5.544  16.068  0.00  0.00    +0.000 A 
ATOM      5  C   UNL     1       5.383   5.456  16.709  0.00  0.00    +0.000 A 
ATOM      6  C   UNL     1       5.075   6.346  17.735  0.00  0.00    +0.000 A 
ATOM      7  N   UNL     1       5.944   7.328  18.028  0.00  0.00    +0.000 NA
ENDROOT
BRANCH   4   8
ATOM      8  C   UNL     1       6.999   4.480  15.031  0.00  0.00    +0.000 C 
ATOM      9  C   UNL     1       7.835   4.980  13.828  0.00  0.00    +0.000 C 
ATOM     10  C   UNL     1       7.234   4.807  12.428  0.00  0.00    +0.000 C 
ATOM     11  C   UNL     1       6.198   3.703  12.299  0.00  0.00    +0.000 C 
ATOM     12  N   UNL     1       5.207   3.815  13.360  0.00  0.00    +0.000 NA
ATOM     13  C   UNL     1       5.831   3.546  14.657  0.00  0.00    +0.000 C 
ATOM     14  H   UNL     1       4.462   3.135  13.209  0.00  0.00    +0.000 HD
ENDBRANCH   4   8
BRANCH   6  15
ATOM     15  N   UNL     1       3.865   6.255  18.460  0.00  0.00    +0.000 N 
BRANCH  15  16
ATOM     16  C   UNL     1       2.954   7.409  18.607  0.00  0.00    +0.000 C 
ATOM     17  C   UNL     1       2.761   8.521  17.615  0.00  0.00    +0.000 C 
ATOM     18  C   UNL     1       1.726   7.451  17.720  0.00  0.00    +0.000 C 
ENDBRANCH  15  16
BRANCH  15  19
ATOM     19  C   UNL     1       3.742   5.226  19.511  0.00  0.00    +0.000 C 
BRANCH  19  20
ATOM     20  C   UNL     1       2.934   4.029  19.097  0.00  0.00    +0.000 A 
ATOM     21  N   UNL     1       1.835   4.075  18.358  0.00  0.00    +0.000 NA
ATOM     22  C   UNL     1       1.286   2.825  18.427  0.00  0.00    +0.000 A 
ATOM     23  C   UNL     1       2.079   1.988  19.173  0.00  0.00    +0.000 A 
ATOM     24  N   UNL     1       3.188   2.730  19.480  0.00  0.00    +0.000 N 
ATOM     25  C   UNL     1       4.405   2.189  20.035  0.00  0.00    +0.000 C 
ENDBRANCH  19  20
ENDBRANCH  15  19
ENDBRANCH   6  15
TORSDOF 5
ENDMDL
MODEL 6
REMARK VINA RESULT:      -6.8      1.515      6.480
REMARK  Name = 
REMARK  7 active torsions:
REMARK  status: ('A' for Active; 'I' for Inactive)
REMARK    1  A    between atoms: C_1  and  C_2
REMARK    2  A    between atoms: C_4  and  C_5
REMARK    3  A    between atoms: C_12  and  N_13
REMARK    4  A    between atoms: N_13  and  C_14
REMARK    5  A    between atoms: N_13  and  C_21
REMARK    6  A    between atoms: C_14  and  C_15
REMARK    7  A    between atoms: N_19  and  C_20
REMARK                            x       y       z     vdW  Elec       q    Type
REMARK                         _______ _______ _______ _____ _____    ______ ____
ROOT
ATOM      1  C   UNL     1       7.707   8.023  17.812  0.00  0.00    +0.000 C 
ATOM      2  C   UNL     1       6.825   6.999  17.165  0.00  0.00    +0.000 A 
ATOM      3  N   UNL     1       7.364   6.224  16.202  0.00  0.00    +0.000 NA
ATOM      4  C   UNL     1       6.539   5.352  15.604  0.00  0.00    +0.000 A 
ATOM      5  C   UNL     1       5.192   5.277  15.964  0.00  0.00    +0.000 A 
ATOM      6  C   UNL     1       4.716   6.060  17.014  0.00  0.00    +0.000 A 
ATOM      7  N   UNL     1       5.547   6.936  17.602  0.00  0.00    +0.000 NA
ENDROOT
BRANCH   4   8
ATOM      8  C   UNL     1       7.079   4.394  14.536  0.00  0.00    +0.000 C 
ATOM      9  C   UNL     1       7.864   5.053  13.376  0.00  0.00    +0.000 C 
ATOM     10  C   UNL     1       7.322   4.861  11.955  0.00  0.00    +0.000 C 
ATOM     11  C   UNL     1       6.447   3.635  11.755  0.00  0.00    +0.000 C 
ATOM     12  N   UNL     1       5.429   3.568  12.794  0.00  0.00    +0.000 NA
ATOM     13  C   UNL     1       6.056   3.329  14.095  0.00  0.00    +0.000 C 
ATOM     14  H   UNL     1       4.785   2.801  12.597  0.00  0.00    +0.000 HD
ENDBRANCH   4   8
BRANCH   6  15
ATOM     15  N   UNL     1       3.377   5.970  17.460  0.00  0.00    +0.000 N 
BRANCH  15  16
ATOM     16  C   UNL     1       2.779   6.990  18.345  0.00  0.00    +0.000 C 
ATOM     17  C   UNL     1       2.792   8.476  18.124  0.00  0.00    +0.000 C 
ATOM     18  C   UNL     1       1.540   7.709  17.851  0.00  0.00    +0.000 C 
ENDBRANCH  15  16
BRANCH  15  19
ATOM     19  C   UNL     1       2.733   4.643  17.514  0.00  0.00    +0.000 C 
BRANCH  19  20
ATOM     20  C   UNL     1       2.392   4.190  18.904  0.00  0.00    +0.000 A 
ATOM     21  N   UNL     1       1.186   4.259  19.450  0.00  0.00    +0.000 NA
ATOM     22  C   UNL     1       1.360   3.987  20.777  0.00  0.00    +0.000 A 
ATOM     23  C   UNL     1       2.676   3.700  21.045  0.00  0.00    +0.000 A 
ATOM     24  N   UNL     1       3.294   3.700  19.824  0.00  0.00    +0.000 N 
ATOM     25  C   UNL     1       4.626   3.201  19.581  0.00  0.00    +0.000 C 
ENDBRANCH  19  20
ENDBRANCH  15  19
ENDBRANCH   6  15
TORSDOF 5
ENDMDL
MODEL 7
REMARK VINA RESULT:      -6.8      1.183      1.871
REMARK  Name = 
REMARK  7 active torsions:
REMARK  status: ('A' for Active; 'I' for Inactive)
REMARK    1  A    between atoms: C_1  and  C_2
REMARK    2  A    between atoms: C_4  and  C_5
REMARK    3  A    between atoms: C_12  and  N_13
REMARK    4  A    between atoms: N_13  and  C_14
REMARK    5  A    between atoms: N_13  and  C_21
REMARK    6  A    between atoms: C_14  and  C_15
REMARK    7  A    between atoms: N_19  and  C_20
REMARK                            x       y       z     vdW  Elec       q    Type
REMARK                         _______ _______ _______ _____ _____    ______ ____
ROOT
ATOM      1  C   UNL     1       2.213   9.017  17.847  0.00  0.00    +0.000 C 
ATOM      2  C   UNL     1       2.907   7.691  17.905  0.00  0.00    +0.000 A 
ATOM      3  N   UNL     1       2.662   6.901  18.970  0.00  0.00    +0.000 NA
ATOM      4  C   UNL     1       3.336   5.743  19.023  0.00  0.00    +0.000 A 
ATOM      5  C   UNL     1       4.250   5.399  18.025  0.00  0.00    +0.000 A 
ATOM      6  C   UNL     1       4.405   6.230  16.918  0.00  0.00    +0.000 A 
ATOM      7  N   UNL     1       3.732   7.392  16.876  0.00  0.00    +0.000 NA
ENDROOT
BRANCH   4   8
ATOM      8  C   UNL     1       3.080   4.758  20.170  0.00  0.00    +0.000 C 
ATOM      9  C   UNL     1       3.519   3.296  19.913  0.00  0.00    +0.000 C 
ATOM     10  C   UNL     1       2.437   2.212  19.969  0.00  0.00    +0.000 C 
ATOM     11  C   UNL     1       1.209   2.563  20.793  0.00  0.00    +0.000 C 
ATOM     12  N   UNL     1       0.713   3.880  20.422  0.00  0.00    +0.000 NA
ATOM     13  C   UNL     1       1.683   4.907  20.804  0.00  0.00    +0.000 C 
ATOM     14  H   UNL     1      -0.166   4.065  20.906  0.00  0.00    +0.000 HD
ENDBRANCH   4   8
BRANCH   6  15
ATOM     15  N   UNL     1       5.267   5.892  15.849  0.00  0.00    +0.000 N 
BRANCH  15  16
ATOM     16  C   UNL     1       5.058   4.682  15.030  0.00  0.00    +0.000 C 
ATOM     17  C   UNL     1       6.104   3.959  14.229  0.00  0.00    +0.000 C 
ATOM     18  C   UNL     1       5.655   3.383  15.531  0.00  0.00    +0.000 C 
ENDBRANCH  15  16
BRANCH  15  19
ATOM     19  C   UNL     1       6.653   6.402  15.865  0.00  0.00    +0.000 C 
BRANCH  19  20
ATOM     20  C   UNL     1       7.373   6.162  17.161  0.00  0.00    +0.000 A 
ATOM     21  N   UNL     1       7.666   4.968  17.656  0.00  0.00    +0.000 NA
ATOM     22  C   UNL     1       8.084   5.187  18.938  0.00  0.00    +0.000 A 
ATOM     23  C   UNL     1       8.096   6.530  19.221  0.00  0.00    +0.000 A 
ATOM     24  N   UNL     1       7.772   7.144  18.041  0.00  0.00    +0.000 N 
ATOM     25  C   UNL     1       7.908   8.558  17.791  0.00  0.00    +0.000 C 
ENDBRANCH  19  20
ENDBRANCH  15  19
ENDBRANCH   6  15
TORSDOF 5
ENDMDL
MODEL 8
REMARK VINA RESULT:      -6.8      1.193      3.320
REMARK  Name = 
REMARK  7 active torsions:
REMARK  status: ('A' for Active; 'I' for Inactive)
REMARK    1  A    between atoms: C_1  and  C_2
REMARK    2  A    between atoms: C_4  and  C_5
REMARK    3  A    between atoms: C_12  and  N_13
REMARK    4  A    between atoms: N_13  and  C_14
REMARK    5  A    between atoms: N_13  and  C_21
REMARK    6  A    between atoms: C_14  and  C_15
REMARK    7  A    between atoms: N_19  and  C_20
REMARK                            x       y       z     vdW  Elec       q    Type
REMARK                         _______ _______ _______ _____ _____    ______ ____
ROOT
ATOM      1  C   UNL     1       2.554   8.279  17.657  0.00  0.00    +0.000 C 
ATOM      2  C   UNL     1       3.359   7.036  17.877  0.00  0.00    +0.000 A 
ATOM      3  N   UNL     1       2.713   5.943  18.334  0.00  0.00    +0.000 NA
ATOM      4  C   UNL     1       3.466   4.859  18.572  0.00  0.00    +0.000 A 
ATOM      5  C   UNL     1       4.847   4.885  18.365  0.00  0.00    +0.000 A 
ATOM      6  C   UNL     1       5.440   6.026  17.828  0.00  0.00    +0.000 A 
ATOM      7  N   UNL     1       4.680   7.110  17.600  0.00  0.00    +0.000 NA
ENDROOT
BRANCH   4   8
ATOM      8  C   UNL     1       2.808   3.557  19.041  0.00  0.00    +0.000 C 
ATOM      9  C   UNL     1       1.270   3.603  19.214  0.00  0.00    +0.000 C 
ATOM     10  C   UNL     1       0.705   3.311  20.608  0.00  0.00    +0.000 C 
ATOM     11  C   UNL     1       1.602   2.479  21.510  0.00  0.00    +0.000 C 
ATOM     12  N   UNL     1       2.952   3.025  21.519  0.00  0.00    +0.000 NA
ATOM     13  C   UNL     1       3.562   2.871  20.197  0.00  0.00    +0.000 C 
ATOM     14  H   UNL     1       3.521   2.524  22.201  0.00  0.00    +0.000 HD
ENDBRANCH   4   8
BRANCH   6  15
ATOM     15  N   UNL     1       6.823   6.077  17.538  0.00  0.00    +0.000 N 
BRANCH  15  16
ATOM     16  C   UNL     1       7.510   7.349  17.234  0.00  0.00    +0.000 C 
ATOM     17  C   UNL     1       7.156   8.703  17.782  0.00  0.00    +0.000 C 
ATOM     18  C   UNL     1       8.339   7.979  18.335  0.00  0.00    +0.000 C 
ENDBRANCH  15  16
BRANCH  15  19
ATOM     19  C   UNL     1       7.483   4.869  17.004  0.00  0.00    +0.000 C 
BRANCH  19  20
ATOM     20  C   UNL     1       7.183   4.603  15.557  0.00  0.00    +0.000 A 
ATOM     21  N   UNL     1       7.841   5.134  14.536  0.00  0.00    +0.000 NA
ATOM     22  C   UNL     1       7.105   4.839  13.423  0.00  0.00    +0.000 A 
ATOM     23  C   UNL     1       6.011   4.078  13.753  0.00  0.00    +0.000 A 
ATOM     24  N   UNL     1       6.146   3.824  15.091  0.00  0.00    +0.000 N 
ATOM     25  C   UNL     1       5.368   2.853  15.821  0.00  0.00    +0.000 C 
ENDBRANCH  19  20
ENDBRANCH  15  19
ENDBRANCH   6  15
TORSDOF 5
ENDMDL
MODEL 9
REMARK VINA RESULT:      -6.7      0.842      1.511
REMARK  Name = 
REMARK  7 active torsions:
REMARK  status: ('A' for Active; 'I' for Inactive)
REMARK    1  A    between atoms: C_1  and  C_2
REMARK    2  A    between atoms: C_4  and  C_5
REMARK    3  A    between atoms: C_12  and  N_13
REMARK    4  A    between atoms: N_13  and  C_14
REMARK    5  A    between atoms: N_13  and  C_21
REMARK    6  A    between atoms: C_14  and  C_15
REMARK    7  A    between atoms: N_19  and  C_20
REMARK                            x       y       z     vdW  Elec       q    Type
REMARK                         _______ _______ _______ _____ _____    ______ ____
ROOT
ATOM      1  C   UNL     1       2.819   8.161  17.890  0.00  0.00    +0.000 C 
ATOM      2  C   UNL     1       3.309   6.768  17.638  0.00  0.00    +0.000 A 
ATOM      3  N   UNL     1       2.686   5.758  18.279  0.00  0.00    +0.000 NA
ATOM      4  C   UNL     1       3.179   4.527  18.076  0.00  0.00    +0.000 A 
ATOM      5  C   UNL     1       4.287   4.325  17.251  0.00  0.00    +0.000 A 
ATOM      6  C   UNL     1       4.840   5.404  16.566  0.00  0.00    +0.000 A 
ATOM      7  N   UNL     1       4.346   6.635  16.781  0.00  0.00    +0.000 NA
ENDROOT
BRANCH   4   8
ATOM      8  C   UNL     1       2.500   3.314  18.722  0.00  0.00    +0.000 C 
ATOM      9  C   UNL     1       1.153   3.595  19.432  0.00  0.00    +0.000 C 
ATOM     10  C   UNL     1       1.063   3.283  20.930  0.00  0.00    +0.000 C 
ATOM     11  C   UNL     1       2.051   2.245  21.436  0.00  0.00    +0.000 C 
ATOM     12  N   UNL     1       3.395   2.562  20.975  0.00  0.00    +0.000 NA
ATOM     13  C   UNL     1       3.471   2.421  19.520  0.00  0.00    +0.000 C 
ATOM     14  H   UNL     1       4.065   1.921  21.400  0.00  0.00    +0.000 HD
ENDBRANCH   4   8
BRANCH   6  15
ATOM     15  N   UNL     1       5.920   5.240  15.668  0.00  0.00    +0.000 N 
BRANCH  15  16
ATOM     16  C   UNL     1       5.708   5.048  14.219  0.00  0.00    +0.000 C 
ATOM     17  C   UNL     1       6.653   4.375  13.264  0.00  0.00    +0.000 C 
ATOM     18  C   UNL     1       5.439   3.640  13.728  0.00  0.00    +0.000 C 
ENDBRANCH  15  16
BRANCH  15  19
ATOM     19  C   UNL     1       7.201   4.719  16.184  0.00  0.00    +0.000 C 
BRANCH  19  20
ATOM     20  C   UNL     1       7.563   5.240  17.546  0.00  0.00    +0.000 A 
ATOM     21  N   UNL     1       7.805   4.484  18.607  0.00  0.00    +0.000 NA
ATOM     22  C   UNL     1       7.844   5.338  19.673  0.00  0.00    +0.000 A 
ATOM     23  C   UNL     1       7.675   6.637  19.260  0.00  0.00    +0.000 A 
ATOM     24  N   UNL     1       7.633   6.572  17.894  0.00  0.00    +0.000 N 
ATOM     25  C   UNL     1       7.721   7.715  17.018  0.00  0.00    +0.000 C 
ENDBRANCH  19  20
ENDBRANCH  15  19
ENDBRANCH   6  15
TORSDOF 5
ENDMDL
