MODEL 1
REMARK VINA RESULT:      -8.1      0.000      0.000
REMARK  Name = 
REMARK  3 active torsions:
REMARK  status: ('A' for Active; 'I' for Inactive)
REMARK    1  A    between atoms: C_1  and  C_2
REMARK    2  A    between atoms: C_5  and  C_6
REMARK    3  A    between atoms: C_10  and  C_11
REMARK                            x       y       z     vdW  Elec       q    Type
REMARK                         _______ _______ _______ _____ _____    ______ ____
ROOT
ATOM      1  C   UNL     1       3.391   6.034  18.226  0.00  0.00    +0.000 A 
ATOM      2  C   UNL     1       2.931   7.302  18.196  0.00  0.00    +0.000 A 
ATOM      3  C   UNL     1       2.124   7.738  19.261  0.00  0.00    +0.000 A 
ATOM      4  N   UNL     1       1.491   8.852  19.534  0.00  0.00    +0.000 NA
ATOM      5  C   UNL     1       0.971   8.617  20.796  0.00  0.00    +0.000 A 
ATOM      6  N   UNL     1       1.235   7.397  21.298  0.00  0.00    +0.000 NA
ATOM      7  N   UNL     1       1.917   6.843  20.270  0.00  0.00    +0.000 N 
ATOM      8  C   UNL     1       2.356   5.507  20.221  0.00  0.00    +0.000 A 
ATOM      9  N   UNL     1       1.979   4.653  21.223  0.00  0.00    +0.000 N 
ATOM     10  N   UNL     1       3.092   5.106  19.218  0.00  0.00    +0.000 NA
ATOM     11  H   UNL     1       1.627   5.058  22.087  0.00  0.00    +0.000 HD
ATOM     12  H   UNL     1       2.473   3.771  21.284  0.00  0.00    +0.000 HD
ENDROOT
BRANCH   1  17
ATOM     13  C   UNL     1       6.688   4.240  13.814  0.00  0.00    +0.000 C 
ATOM     14  C   UNL     1       5.842   4.719  14.958  0.00  0.00    +0.000 A 
ATOM     15  C   UNL     1       5.635   6.087  15.178  0.00  0.00    +0.000 A 
ATOM     16  C   UNL     1       4.849   6.522  16.251  0.00  0.00    +0.000 A 
ATOM     17  C   UNL     1       4.259   5.591  17.119  0.00  0.00    +0.000 A 
ATOM     18  C   UNL     1       4.474   4.220  16.899  0.00  0.00    +0.000 A 
ATOM     19  C   UNL     1       5.259   3.793  15.828  0.00  0.00    +0.000 A 
ENDBRANCH   1  17
BRANCH   5  20
ATOM     20  C   UNL     1       0.209   9.676  21.523  0.00  0.00    +0.000 A 
ATOM     21  C   UNL     1      -0.359   9.516  22.774  0.00  0.00    +0.000 A 
ATOM     22  C   UNL     1      -1.014  10.728  23.089  0.00  0.00    +0.000 A 
ATOM     23  C   UNL     1      -0.821  11.553  22.009  0.00  0.00    +0.000 A 
ATOM     24  O   UNL     1      -0.062  10.937  21.064  0.00  0.00    +0.000 OA
ENDBRANCH   5  20
TORSDOF 2
ENDMDL
MODEL 2
REMARK VINA RESULT:      -8.0      0.060      1.032
REMARK  Name = 
REMARK  3 active torsions:
REMARK  status: ('A' for Active; 'I' for Inactive)
REMARK    1  A    between atoms: C_1  and  C_2
REMARK    2  A    between atoms: C_5  and  C_6
REMARK    3  A    between atoms: C_10  and  C_11
REMARK                            x       y       z     vdW  Elec       q    Type
REMARK                         _______ _______ _______ _____ _____    ______ ____
ROOT
ATOM      1  C   UNL     1       3.374   6.018  18.212  0.00  0.00    +0.000 A 
ATOM      2  C   UNL     1       2.906   7.284  18.183  0.00  0.00    +0.000 A 
ATOM      3  C   UNL     1       2.114   7.720  19.260  0.00  0.00    +0.000 A 
ATOM      4  N   UNL     1       1.479   8.831  19.537  0.00  0.00    +0.000 NA
ATOM      5  C   UNL     1       0.980   8.599  20.808  0.00  0.00    +0.000 A 
ATOM      6  N   UNL     1       1.259   7.383  21.312  0.00  0.00    +0.000 NA
ATOM      7  N   UNL     1       1.929   6.828  20.276  0.00  0.00    +0.000 N 
ATOM      8  C   UNL     1       2.375   5.495  20.225  0.00  0.00    +0.000 A 
ATOM      9  N   UNL     1       2.019   4.643  21.237  0.00  0.00    +0.000 N 
ATOM     10  N   UNL     1       3.097   5.093  19.212  0.00  0.00    +0.000 NA
ATOM     11  H   UNL     1       1.678   5.050  22.105  0.00  0.00    +0.000 HD
ATOM     12  H   UNL     1       2.519   3.764  21.294  0.00  0.00    +0.000 HD
ENDROOT
BRANCH   1  17
ATOM     13  C   UNL     1       6.840   4.336  13.886  0.00  0.00    +0.000 C 
ATOM     14  C   UNL     1       5.933   4.757  15.006  0.00  0.00    +0.000 A 
ATOM     15  C   UNL     1       5.324   3.808  15.835  0.00  0.00    +0.000 A 
ATOM     16  C   UNL     1       4.475   4.213  16.873  0.00  0.00    +0.000 A 
ATOM     17  C   UNL     1       4.228   5.576  17.093  0.00  0.00    +0.000 A 
ATOM     18  C   UNL     1       4.837   6.525  16.256  0.00  0.00    +0.000 A 
ATOM     19  C   UNL     1       5.681   6.115  15.223  0.00  0.00    +0.000 A 
ENDBRANCH   1  17
BRANCH   5  20
ATOM     20  C   UNL     1       0.222   9.657  21.542  0.00  0.00    +0.000 A 
ATOM     21  C   UNL     1      -0.377   9.479  22.777  0.00  0.00    +0.000 A 
ATOM     22  C   UNL     1      -1.014  10.697  23.105  0.00  0.00    +0.000 A 
ATOM     23  C   UNL     1      -0.780  11.543  22.048  0.00  0.00    +0.000 A 
ATOM     24  O   UNL     1      -0.013  10.933  21.107  0.00  0.00    +0.000 OA
ENDBRANCH   5  20
TORSDOF 2
ENDMDL
MODEL 3
REMARK VINA RESULT:      -7.9      2.966      8.155
REMARK  Name = 
REMARK  3 active torsions:
REMARK  status: ('A' for Active; 'I' for Inactive)
REMARK    1  A    between atoms: C_1  and  C_2
REMARK    2  A    between atoms: C_5  and  C_6
REMARK    3  A    between atoms: C_10  and  C_11
REMARK                            x       y       z     vdW  Elec       q    Type
REMARK                         _______ _______ _______ _____ _____    ______ ____
ROOT
ATOM      1  C   UNL     1       2.886   6.889  18.708  0.00  0.00    +0.000 A 
ATOM      2  C   UNL     1       3.538   7.373  17.630  0.00  0.00    +0.000 A 
ATOM      3  C   UNL     1       4.315   6.480  16.871  0.00  0.00    +0.000 A 
ATOM      4  N   UNL     1       5.089   6.603  15.822  0.00  0.00    +0.000 NA
ATOM      5  C   UNL     1       5.464   5.298  15.553  0.00  0.00    +0.000 A 
ATOM      6  N   UNL     1       4.976   4.381  16.408  0.00  0.00    +0.000 NA
ATOM      7  N   UNL     1       4.299   5.174  17.270  0.00  0.00    +0.000 N 
ATOM      8  C   UNL     1       3.664   4.732  18.444  0.00  0.00    +0.000 A 
ATOM      9  N   UNL     1       3.823   3.426  18.827  0.00  0.00    +0.000 N 
ATOM     10  N   UNL     1       2.957   5.573  19.152  0.00  0.00    +0.000 NA
ATOM     11  H   UNL     1       4.163   2.765  18.133  0.00  0.00    +0.000 HD
ATOM     12  H   UNL     1       3.195   3.078  19.541  0.00  0.00    +0.000 HD
ENDROOT
BRANCH   1  17
ATOM     13  C   UNL     1      -0.285  10.594  21.833  0.00  0.00    +0.000 C 
ATOM     14  C   UNL     1       0.529   9.640  21.009  0.00  0.00    +0.000 A 
ATOM     15  C   UNL     1       0.841   9.925  19.674  0.00  0.00    +0.000 A 
ATOM     16  C   UNL     1       1.596   9.024  18.913  0.00  0.00    +0.000 A 
ATOM     17  C   UNL     1       2.049   7.825  19.483  0.00  0.00    +0.000 A 
ATOM     18  C   UNL     1       1.730   7.539  20.820  0.00  0.00    +0.000 A 
ATOM     19  C   UNL     1       0.977   8.441  21.572  0.00  0.00    +0.000 A 
ENDBRANCH   1  17
BRANCH   5  20
ATOM     20  C   UNL     1       6.322   4.971  14.374  0.00  0.00    +0.000 A 
ATOM     21  C   UNL     1       6.048   3.972  13.457  0.00  0.00    +0.000 A 
ATOM     22  C   UNL     1       7.110   3.965  12.525  0.00  0.00    +0.000 A 
ATOM     23  C   UNL     1       7.978   4.949  12.932  0.00  0.00    +0.000 A 
ATOM     24  O   UNL     1       7.500   5.582  14.037  0.00  0.00    +0.000 OA
ENDBRANCH   5  20
TORSDOF 2
ENDMDL
MODEL 4
REMARK VINA RESULT:      -7.9      2.972      8.208
REMARK  Name = 
REMARK  3 active torsions:
REMARK  status: ('A' for Active; 'I' for Inactive)
REMARK    1  A    between atoms: C_1  and  C_2
REMARK    2  A    between atoms: C_5  and  C_6
REMARK    3  A    between atoms: C_10  and  C_11
REMARK                            x       y       z     vdW  Elec       q    Type
REMARK                         _______ _______ _______ _____ _____    ______ ____
ROOT
ATOM      1  C   UNL     1       2.927   6.895  18.713  0.00  0.00    +0.000 A 
ATOM      2  C   UNL     1       3.528   7.363  17.599  0.00  0.00    +0.000 A 
ATOM      3  C   UNL     1       4.311   6.470  16.846  0.00  0.00    +0.000 A 
ATOM      4  N   UNL     1       5.047   6.582  15.769  0.00  0.00    +0.000 NA
ATOM      5  C   UNL     1       5.457   5.281  15.531  0.00  0.00    +0.000 A 
ATOM      6  N   UNL     1       5.026   4.379  16.431  0.00  0.00    +0.000 NA
ATOM      7  N   UNL     1       4.351   5.179  17.288  0.00  0.00    +0.000 N 
ATOM      8  C   UNL     1       3.768   4.757  18.496  0.00  0.00    +0.000 A 
ATOM      9  N   UNL     1       3.982   3.471  18.917  0.00  0.00    +0.000 N 
ATOM     10  N   UNL     1       3.056   5.599  19.199  0.00  0.00    +0.000 NA
ATOM     11  H   UNL     1       4.323   2.797  18.235  0.00  0.00    +0.000 HD
ATOM     12  H   UNL     1       3.389   3.127  19.662  0.00  0.00    +0.000 HD
ENDROOT
BRANCH   1  17
ATOM     13  C   UNL     1      -0.488  10.535  21.654  0.00  0.00    +0.000 C 
ATOM     14  C   UNL     1       0.404   9.586  20.906  0.00  0.00    +0.000 A 
ATOM     15  C   UNL     1       0.875   8.414  21.509  0.00  0.00    +0.000 A 
ATOM     16  C   UNL     1       1.712   7.539  20.804  0.00  0.00    +0.000 A 
ATOM     17  C   UNL     1       2.085   7.830  19.484  0.00  0.00    +0.000 A 
ATOM     18  C   UNL     1       1.615   9.009  18.884  0.00  0.00    +0.000 A 
ATOM     19  C   UNL     1       0.782   9.876  19.592  0.00  0.00    +0.000 A 
ENDBRANCH   1  17
BRANCH   5  20
ATOM     20  C   UNL     1       6.287   4.942  14.336  0.00  0.00    +0.000 A 
ATOM     21  C   UNL     1       6.019   3.902  13.464  0.00  0.00    +0.000 A 
ATOM     22  C   UNL     1       7.051   3.898  12.498  0.00  0.00    +0.000 A 
ATOM     23  C   UNL     1       7.896   4.924  12.842  0.00  0.00    +0.000 A 
ATOM     24  O   UNL     1       7.432   5.580  13.939  0.00  0.00    +0.000 OA
ENDBRANCH   5  20
TORSDOF 2
ENDMDL
MODEL 5
REMARK VINA RESULT:      -7.8      2.333      7.932
REMARK  Name = 
REMARK  3 active torsions:
REMARK  status: ('A' for Active; 'I' for Inactive)
REMARK    1  A    between atoms: C_1  and  C_2
REMARK    2  A    between atoms: C_5  and  C_6
REMARK    3  A    between atoms: C_10  and  C_11
REMARK                            x       y       z     vdW  Elec       q    Type
REMARK                         _______ _______ _______ _____ _____    ______ ____
ROOT
ATOM      1  C   UNL     1       1.392   7.835  20.456  0.00  0.00    +0.000 A 
ATOM      2  C   UNL     1       2.109   8.120  19.349  0.00  0.00    +0.000 A 
ATOM      3  C   UNL     1       2.847   7.082  18.753  0.00  0.00    +0.000 A 
ATOM      4  N   UNL     1       3.660   7.007  17.730  0.00  0.00    +0.000 NA
ATOM      5  C   UNL     1       3.954   5.656  17.659  0.00  0.00    +0.000 A 
ATOM      6  N   UNL     1       3.377   4.902  18.612  0.00  0.00    +0.000 NA
ATOM      7  N   UNL     1       2.730   5.850  19.328  0.00  0.00    +0.000 N 
ATOM      8  C   UNL     1       2.029   5.618  20.526  0.00  0.00    +0.000 A 
ATOM      9  N   UNL     1       2.087   4.371  21.091  0.00  0.00    +0.000 N 
ATOM     10  N   UNL     1       1.359   6.593  21.081  0.00  0.00    +0.000 NA
ATOM     11  H   UNL     1       2.403   3.599  20.510  0.00  0.00    +0.000 HD
ATOM     12  H   UNL     1       1.415   4.167  21.820  0.00  0.00    +0.000 HD
ENDROOT
BRANCH   1  17
ATOM     13  C   UNL     1      -1.612  12.142  22.902  0.00  0.00    +0.000 C 
ATOM     14  C   UNL     1      -0.841  11.029  22.253  0.00  0.00    +0.000 A 
ATOM     15  C   UNL     1      -0.528  11.069  20.889  0.00  0.00    +0.000 A 
ATOM     16  C   UNL     1       0.187  10.023  20.294  0.00  0.00    +0.000 A 
ATOM     17  C   UNL     1       0.598   8.922  21.060  0.00  0.00    +0.000 A 
ATOM     18  C   UNL     1       0.278   8.882  22.427  0.00  0.00    +0.000 A 
ATOM     19  C   UNL     1      -0.435   9.928  23.014  0.00  0.00    +0.000 A 
ENDBRANCH   1  17
BRANCH   5  20
ATOM     20  C   UNL     1       4.823   5.114  16.572  0.00  0.00    +0.000 A 
ATOM     21  C   UNL     1       5.353   5.869  15.541  0.00  0.00    +0.000 A 
ATOM     22  C   UNL     1       6.081   4.984  14.714  0.00  0.00    +0.000 A 
ATOM     23  C   UNL     1       5.943   3.739  15.277  0.00  0.00    +0.000 A 
ATOM     24  O   UNL     1       5.204   3.808  16.416  0.00  0.00    +0.000 OA
ENDBRANCH   5  20
TORSDOF 2
ENDMDL
MODEL 6
REMARK VINA RESULT:      -7.8      2.337      7.976
REMARK  Name = 
REMARK  3 active torsions:
REMARK  status: ('A' for Active; 'I' for Inactive)
REMARK    1  A    between atoms: C_1  and  C_2
REMARK    2  A    between atoms: C_5  and  C_6
REMARK    3  A    between atoms: C_10  and  C_11
REMARK                            x       y       z     vdW  Elec       q    Type
REMARK                         _______ _______ _______ _____ _____    ______ ____
ROOT
ATOM      1  C   UNL     1       1.430   7.839  20.466  0.00  0.00    +0.000 A 
ATOM      2  C   UNL     1       2.151   8.129  19.362  0.00  0.00    +0.000 A 
ATOM      3  C   UNL     1       2.880   7.089  18.758  0.00  0.00    +0.000 A 
ATOM      4  N   UNL     1       3.693   7.017  17.734  0.00  0.00    +0.000 NA
ATOM      5  C   UNL     1       3.975   5.664  17.651  0.00  0.00    +0.000 A 
ATOM      6  N   UNL     1       3.390   4.906  18.596  0.00  0.00    +0.000 NA
ATOM      7  N   UNL     1       2.751   5.853  19.320  0.00  0.00    +0.000 N 
ATOM      8  C   UNL     1       2.047   5.616  20.515  0.00  0.00    +0.000 A 
ATOM      9  N   UNL     1       2.092   4.363  21.068  0.00  0.00    +0.000 N 
ATOM     10  N   UNL     1       1.385   6.592  21.079  0.00  0.00    +0.000 NA
ATOM     11  H   UNL     1       2.402   3.594  20.481  0.00  0.00    +0.000 HD
ATOM     12  H   UNL     1       1.418   4.159  21.795  0.00  0.00    +0.000 HD
ENDROOT
BRANCH   1  17
ATOM     13  C   UNL     1      -1.766  12.065  22.807  0.00  0.00    +0.000 C 
ATOM     14  C   UNL     1      -0.930  10.968  22.215  0.00  0.00    +0.000 A 
ATOM     15  C   UNL     1      -0.407   9.947  23.019  0.00  0.00    +0.000 A 
ATOM     16  C   UNL     1       0.377   8.932  22.456  0.00  0.00    +0.000 A 
ATOM     17  C   UNL     1       0.646   8.928  21.079  0.00  0.00    +0.000 A 
ATOM     18  C   UNL     1       0.124   9.956  20.277  0.00  0.00    +0.000 A 
ATOM     19  C   UNL     1      -0.656  10.964  20.844  0.00  0.00    +0.000 A 
ENDBRANCH   1  17
BRANCH   5  20
ATOM     20  C   UNL     1       4.840   5.124  16.559  0.00  0.00    +0.000 A 
ATOM     21  C   UNL     1       5.328   5.871  15.502  0.00  0.00    +0.000 A 
ATOM     22  C   UNL     1       6.067   4.991  14.681  0.00  0.00    +0.000 A 
ATOM     23  C   UNL     1       5.978   3.755  15.274  0.00  0.00    +0.000 A 
ATOM     24  O   UNL     1       5.258   3.827  16.425  0.00  0.00    +0.000 OA
ENDBRANCH   5  20
TORSDOF 2
ENDMDL
MODEL 7
REMARK VINA RESULT:      -7.7      2.408      7.909
REMARK  Name = 
REMARK  3 active torsions:
REMARK  status: ('A' for Active; 'I' for Inactive)
REMARK    1  A    between atoms: C_1  and  C_2
REMARK    2  A    between atoms: C_5  and  C_6
REMARK    3  A    between atoms: C_10  and  C_11
REMARK                            x       y       z     vdW  Elec       q    Type
REMARK                         _______ _______ _______ _____ _____    ______ ____
ROOT
ATOM      1  C   UNL     1       1.905   7.598  19.927  0.00  0.00    +0.000 A 
ATOM      2  C   UNL     1       2.589   7.960  18.821  0.00  0.00    +0.000 A 
ATOM      3  C   UNL     1       3.360   6.980  18.171  0.00  0.00    +0.000 A 
ATOM      4  N   UNL     1       4.157   6.982  17.132  0.00  0.00    +0.000 NA
ATOM      5  C   UNL     1       4.507   5.649  17.001  0.00  0.00    +0.000 A 
ATOM      6  N   UNL     1       3.982   4.832  17.931  0.00  0.00    +0.000 NA
ATOM      7  N   UNL     1       3.307   5.721  18.696  0.00  0.00    +0.000 N 
ATOM      8  C   UNL     1       2.639   5.411  19.895  0.00  0.00    +0.000 A 
ATOM      9  N   UNL     1       2.761   4.146  20.407  0.00  0.00    +0.000 N 
ATOM     10  N   UNL     1       1.938   6.332  20.501  0.00  0.00    +0.000 NA
ATOM     11  H   UNL     1       3.100   3.412  19.790  0.00  0.00    +0.000 HD
ATOM     12  H   UNL     1       2.112   3.883  21.139  0.00  0.00    +0.000 HD
ENDROOT
BRANCH   1  17
ATOM     13  C   UNL     1      -1.234  11.678  22.583  0.00  0.00    +0.000 C 
ATOM     14  C   UNL     1      -0.430  10.623  21.881  0.00  0.00    +0.000 A 
ATOM     15  C   UNL     1      -0.280  10.639  20.489  0.00  0.00    +0.000 A 
ATOM     16  C   UNL     1       0.468   9.645  19.844  0.00  0.00    +0.000 A 
ATOM     17  C   UNL     1       1.076   8.624  20.588  0.00  0.00    +0.000 A 
ATOM     18  C   UNL     1       0.920   8.608  21.984  0.00  0.00    +0.000 A 
ATOM     19  C   UNL     1       0.173   9.601  22.620  0.00  0.00    +0.000 A 
ENDBRANCH   1  17
BRANCH   5  20
ATOM     20  C   UNL     1       5.379   5.190  15.878  0.00  0.00    +0.000 A 
ATOM     21  C   UNL     1       5.217   3.998  15.195  0.00  0.00    +0.000 A 
ATOM     22  C   UNL     1       6.257   3.924  14.241  0.00  0.00    +0.000 A 
ATOM     23  C   UNL     1       7.002   5.065  14.405  0.00  0.00    +0.000 A 
ATOM     24  O   UNL     1       6.468   5.852  15.377  0.00  0.00    +0.000 OA
ENDBRANCH   5  20
TORSDOF 2
ENDMDL
MODEL 8
REMARK VINA RESULT:      -7.7      2.409      7.951
REMARK  Name = 
REMARK  3 active torsions:
REMARK  status: ('A' for Active; 'I' for Inactive)
REMARK    1  A    between atoms: C_1  and  C_2
REMARK    2  A    between atoms: C_5  and  C_6
REMARK    3  A    between atoms: C_10  and  C_11
REMARK                            x       y       z     vdW  Elec       q    Type
REMARK                         _______ _______ _______ _____ _____    ______ ____
ROOT
ATOM      1  C   UNL     1       1.923   7.619  19.943  0.00  0.00    +0.000 A 
ATOM      2  C   UNL     1       2.616   7.978  18.842  0.00  0.00    +0.000 A 
ATOM      3  C   UNL     1       3.369   6.990  18.183  0.00  0.00    +0.000 A 
ATOM      4  N   UNL     1       4.167   6.988  17.146  0.00  0.00    +0.000 NA
ATOM      5  C   UNL     1       4.492   5.649  17.001  0.00  0.00    +0.000 A 
ATOM      6  N   UNL     1       3.948   4.833  17.922  0.00  0.00    +0.000 NA
ATOM      7  N   UNL     1       3.290   5.727  18.695  0.00  0.00    +0.000 N 
ATOM      8  C   UNL     1       2.613   5.417  19.889  0.00  0.00    +0.000 A 
ATOM      9  N   UNL     1       2.709   4.145  20.389  0.00  0.00    +0.000 N 
ATOM     10  N   UNL     1       1.929   6.346  20.504  0.00  0.00    +0.000 NA
ATOM     11  H   UNL     1       3.035   3.412  19.765  0.00  0.00    +0.000 HD
ATOM     12  H   UNL     1       2.053   3.888  21.116  0.00  0.00    +0.000 HD
ENDROOT
BRANCH   1  17
ATOM     13  C   UNL     1      -1.375  11.626  22.516  0.00  0.00    +0.000 C 
ATOM     14  C   UNL     1      -0.511  10.586  21.864  0.00  0.00    +0.000 A 
ATOM     15  C   UNL     1       0.147   9.614  22.627  0.00  0.00    +0.000 A 
ATOM     16  C   UNL     1       0.955   8.652  22.007  0.00  0.00    +0.000 A 
ATOM     17  C   UNL     1       1.113   8.654  20.613  0.00  0.00    +0.000 A 
ATOM     18  C   UNL     1       0.456   9.634  19.852  0.00  0.00    +0.000 A 
ATOM     19  C   UNL     1      -0.347  10.590  20.475  0.00  0.00    +0.000 A 
ENDBRANCH   1  17
BRANCH   5  20
ATOM     20  C   UNL     1       5.357   5.184  15.876  0.00  0.00    +0.000 A 
ATOM     21  C   UNL     1       5.163   4.010  15.170  0.00  0.00    +0.000 A 
ATOM     22  C   UNL     1       6.207   3.922  14.221  0.00  0.00    +0.000 A 
ATOM     23  C   UNL     1       6.984   5.038  14.409  0.00  0.00    +0.000 A 
ATOM     24  O   UNL     1       6.467   5.823  15.392  0.00  0.00    +0.000 OA
ENDBRANCH   5  20
TORSDOF 2
ENDMDL
MODEL 9
REMARK VINA RESULT:      -7.6      0.840      1.440
REMARK  Name = 
REMARK  3 active torsions:
REMARK  status: ('A' for Active; 'I' for Inactive)
REMARK    1  A    between atoms: C_1  and  C_2
REMARK    2  A    between atoms: C_5  and  C_6
REMARK    3  A    between atoms: C_10  and  C_11
REMARK                            x       y       z     vdW  Elec       q    Type
REMARK                         _______ _______ _______ _____ _____    ______ ____
ROOT
ATOM      1  C   UNL     1       3.361   6.376  18.041  0.00  0.00    +0.000 A 
ATOM      2  C   UNL     1       2.869   7.614  17.827  0.00  0.00    +0.000 A 
ATOM      3  C   UNL     1       2.082   8.196  18.837  0.00  0.00    +0.000 A 
ATOM      4  N   UNL     1       1.429   9.325  18.952  0.00  0.00    +0.000 NA
ATOM      5  C   UNL     1       0.951   9.281  20.251  0.00  0.00    +0.000 A 
ATOM      6  N   UNL     1       1.259   8.160  20.929  0.00  0.00    +0.000 NA
ATOM      7  N   UNL     1       1.926   7.465  19.979  0.00  0.00    +0.000 N 
ATOM      8  C   UNL     1       2.397   6.148  20.125  0.00  0.00    +0.000 A 
ATOM      9  N   UNL     1       2.070   5.454  21.260  0.00  0.00    +0.000 N 
ATOM     10  N   UNL     1       3.114   5.609  19.174  0.00  0.00    +0.000 NA
ATOM     11  H   UNL     1       1.732   5.982  22.060  0.00  0.00    +0.000 HD
ATOM     12  H   UNL     1       2.587   4.603  21.442  0.00  0.00    +0.000 HD
ENDROOT
BRANCH   1  17
ATOM     13  C   UNL     1       6.806   4.101  13.977  0.00  0.00    +0.000 C 
ATOM     14  C   UNL     1       5.904   4.676  15.030  0.00  0.00    +0.000 A 
ATOM     15  C   UNL     1       5.214   3.845  15.921  0.00  0.00    +0.000 A 
ATOM     16  C   UNL     1       4.371   4.393  16.895  0.00  0.00    +0.000 A 
ATOM     17  C   UNL     1       4.210   5.783  16.989  0.00  0.00    +0.000 A 
ATOM     18  C   UNL     1       4.898   6.614  16.091  0.00  0.00    +0.000 A 
ATOM     19  C   UNL     1       5.737   6.061  15.122  0.00  0.00    +0.000 A 
ENDBRANCH   1  17
BRANCH   5  20
ATOM     20  C   UNL     1       0.183  10.425  20.827  0.00  0.00    +0.000 A 
ATOM     21  C   UNL     1      -0.934  10.994  20.242  0.00  0.00    +0.000 A 
ATOM     22  C   UNL     1      -1.339  12.060  21.076  0.00  0.00    +0.000 A 
ATOM     23  C   UNL     1      -0.440  12.091  22.114  0.00  0.00    +0.000 A 
ATOM     24  O   UNL     1       0.472  11.091  21.988  0.00  0.00    +0.000 OA
ENDBRANCH   5  20
TORSDOF 2
ENDMDL
