MODEL 1
REMARK VINA RESULT:      -9.2      0.000      0.000
REMARK  Name = 
REMARK  4 active torsions:
REMARK  status: ('A' for Active; 'I' for Inactive)
REMARK    1  A    between atoms: C_1  and  C_2
REMARK    2  A    between atoms: N_5  and  S_6
REMARK    3  A    between atoms: S_6  and  C_9
REMARK    4  A    between atoms: C_14  and  C_16
REMARK                            x       y       z     vdW  Elec       q    Type
REMARK                         _______ _______ _______ _____ _____    ______ ____
ROOT
ATOM      1  C   UNL     1       6.672   5.458  17.657  0.00  0.00    +0.000 A 
ATOM      2  N   UNL     1       7.360   5.007  18.688  0.00  0.00    +0.000 NA
ATOM      3  N   UNL     1       8.206   5.985  19.194  0.00  0.00    +0.000 NA
ATOM      4  C   UNL     1       8.068   7.133  18.568  0.00  0.00    +0.000 A 
ATOM      5  N   UNL     1       8.811   8.251  18.879  0.00  0.00    +0.000 N 
ATOM      6  C   UNL     1       8.538   9.530  18.450  0.00  0.00    +0.000 C 
ATOM      7  O   UNL     1       7.569   9.884  17.789  0.00  0.00    +0.000 OA
ATOM      8  S   UNL     1       6.946   7.100  17.285  0.00  0.00    +0.000 S 
ATOM      9  H   UNL     1       9.510   8.089  19.590  0.00  0.00    +0.000 HD
ENDROOT
BRANCH   6  10
ATOM     10  C   UNL     1       9.490  10.592  18.890  0.00  0.00    +0.000 A 
ATOM     11  C   UNL     1       9.754  10.859  20.239  0.00  0.00    +0.000 A 
ATOM     12  C   UNL     1      10.690  11.839  20.587  0.00  0.00    +0.000 A 
ATOM     13  C   UNL     1      11.364  12.552  19.595  0.00  0.00    +0.000 A 
ATOM     14  C   UNL     1      11.106  12.279  18.251  0.00  0.00    +0.000 A 
ATOM     15 BR   UNL     1      12.028  13.233  16.906  0.00  0.00    +0.000 Br
ATOM     16  C   UNL     1      10.177  11.305  17.896  0.00  0.00    +0.000 A 
ENDBRANCH   6  10
BRANCH   1  17
ATOM     17  S   UNL     1       5.513   4.547  16.675  0.00  0.00    +0.000 S 
ATOM     18  O   UNL     1       6.307   3.610  15.902  0.00  0.00    +0.000 OA
ATOM     19  O   UNL     1       4.696   5.529  15.991  0.00  0.00    +0.000 OA
BRANCH  17  24
ATOM     20  C   UNL     1       2.208   6.686  19.620  0.00  0.00    +0.000 C 
ATOM     21  C   UNL     1       2.638   5.260  19.274  0.00  0.00    +0.000 C 
ATOM     22  C   UNL     1       4.098   5.036  19.692  0.00  0.00    +0.000 C 
ATOM     23  C   UNL     1       4.669   3.733  19.153  0.00  0.00    +0.000 C 
ATOM     24  N   UNL     1       4.483   3.623  17.690  0.00  0.00    +0.000 NA
ATOM     25  C   UNL     1       3.040   3.666  17.330  0.00  0.00    +0.000 C 
ATOM     26  C   UNL     1       2.398   4.976  17.782  0.00  0.00    +0.000 C 
ENDBRANCH  17  24
ENDBRANCH   1  17
TORSDOF 3
ENDMDL
MODEL 2
REMARK VINA RESULT:      -8.9      0.796      1.614
REMARK  Name = 
REMARK  4 active torsions:
REMARK  status: ('A' for Active; 'I' for Inactive)
REMARK    1  A    between atoms: C_1  and  C_2
REMARK    2  A    between atoms: N_5  and  S_6
REMARK    3  A    between atoms: S_6  and  C_9
REMARK    4  A    between atoms: C_14  and  C_16
REMARK                            x       y       z     vdW  Elec       q    Type
REMARK                         _______ _______ _______ _____ _____    ______ ____
ROOT
ATOM      1  C   UNL     1       6.599   5.606  17.433  0.00  0.00    +0.000 A 
ATOM      2  N   UNL     1       7.242   5.114  18.474  0.00  0.00    +0.000 NA
ATOM      3  N   UNL     1       8.090   6.061  19.033  0.00  0.00    +0.000 NA
ATOM      4  C   UNL     1       7.998   7.227  18.431  0.00  0.00    +0.000 A 
ATOM      5  N   UNL     1       8.754   8.320  18.795  0.00  0.00    +0.000 N 
ATOM      6  C   UNL     1       8.524   9.615  18.389  0.00  0.00    +0.000 C 
ATOM      7  O   UNL     1       7.585  10.006  17.705  0.00  0.00    +0.000 OA
ATOM      8  S   UNL     1       6.921   7.250  17.111  0.00  0.00    +0.000 S 
ATOM      9  H   UNL     1       9.425   8.125  19.525  0.00  0.00    +0.000 HD
ENDROOT
BRANCH   6  10
ATOM     10  C   UNL     1       9.482  10.645  18.888  0.00  0.00    +0.000 A 
ATOM     11  C   UNL     1       9.709  10.868  20.251  0.00  0.00    +0.000 A 
ATOM     12  C   UNL     1      10.653  11.820  20.655  0.00  0.00    +0.000 A 
ATOM     13  C   UNL     1      11.371  12.545  19.704  0.00  0.00    +0.000 A 
ATOM     14  C   UNL     1      11.150  12.315  18.345  0.00  0.00    +0.000 A 
ATOM     15 BR   UNL     1      12.131  13.286  17.056  0.00  0.00    +0.000 Br
ATOM     16  C   UNL     1      10.213  11.371  17.935  0.00  0.00    +0.000 A 
ENDBRANCH   6  10
BRANCH   1  17
ATOM     17  S   UNL     1       5.456   4.745  16.389  0.00  0.00    +0.000 S 
ATOM     18  O   UNL     1       5.900   3.364  16.377  0.00  0.00    +0.000 OA
ATOM     19  O   UNL     1       5.395   5.489  15.148  0.00  0.00    +0.000 OA
BRANCH  17  24
ATOM     20  C   UNL     1       4.380   2.067  20.370  0.00  0.00    +0.000 C 
ATOM     21  C   UNL     1       3.652   3.060  19.462  0.00  0.00    +0.000 C 
ATOM     22  C   UNL     1       3.563   2.497  18.035  0.00  0.00    +0.000 C 
ATOM     23  C   UNL     1       3.082   3.530  17.027  0.00  0.00    +0.000 C 
ATOM     24  N   UNL     1       3.890   4.768  17.091  0.00  0.00    +0.000 NA
ATOM     25  C   UNL     1       3.813   5.387  18.441  0.00  0.00    +0.000 C 
ATOM     26  C   UNL     1       4.338   4.435  19.514  0.00  0.00    +0.000 C 
ENDBRANCH  17  24
ENDBRANCH   1  17
TORSDOF 3
ENDMDL
MODEL 3
REMARK VINA RESULT:      -8.8      5.247      7.670
REMARK  Name = 
REMARK  4 active torsions:
REMARK  status: ('A' for Active; 'I' for Inactive)
REMARK    1  A    between atoms: C_1  and  C_2
REMARK    2  A    between atoms: N_5  and  S_6
REMARK    3  A    between atoms: S_6  and  C_9
REMARK    4  A    between atoms: C_14  and  C_16
REMARK                            x       y       z     vdW  Elec       q    Type
REMARK                         _______ _______ _______ _____ _____    ______ ____
ROOT
ATOM      1  C   UNL     1       3.484   4.882  19.462  0.00  0.00    +0.000 A 
ATOM      2  N   UNL     1       2.763   4.228  20.352  0.00  0.00    +0.000 NA
ATOM      3  N   UNL     1       1.899   5.082  21.024  0.00  0.00    +0.000 NA
ATOM      4  C   UNL     1       1.963   6.314  20.567  0.00  0.00    +0.000 A 
ATOM      5  N   UNL     1       1.213   7.347  21.086  0.00  0.00    +0.000 N 
ATOM      6  C   UNL     1       1.040   8.577  20.494  0.00  0.00    +0.000 C 
ATOM      7  O   UNL     1       1.465   8.923  19.398  0.00  0.00    +0.000 OA
ATOM      8  S   UNL     1       3.113   6.542  19.330  0.00  0.00    +0.000 S 
ATOM      9  H   UNL     1       0.655   7.081  21.886  0.00  0.00    +0.000 HD
ENDROOT
BRANCH   6  10
ATOM     10  C   UNL     1       0.201   9.559  21.243  0.00  0.00    +0.000 A 
ATOM     11  C   UNL     1      -0.117   9.404  22.598  0.00  0.00    +0.000 A 
ATOM     12  C   UNL     1      -0.873  10.381  23.254  0.00  0.00    +0.000 A 
ATOM     13  C   UNL     1      -1.310  11.513  22.565  0.00  0.00    +0.000 A 
ATOM     14  C   UNL     1      -0.985  11.670  21.217  0.00  0.00    +0.000 A 
ATOM     15 BR   UNL     1      -1.564  13.208  20.285  0.00  0.00    +0.000 Br
ATOM     16  C   UNL     1      -0.233  10.703  20.556  0.00  0.00    +0.000 A 
ENDBRANCH   6  10
BRANCH   1  17
ATOM     17  S   UNL     1       4.742   4.208  18.414  0.00  0.00    +0.000 S 
ATOM     18  O   UNL     1       4.043   3.636  17.279  0.00  0.00    +0.000 OA
ATOM     19  O   UNL     1       5.561   3.357  19.254  0.00  0.00    +0.000 OA
BRANCH  17  24
ATOM     20  C   UNL     1       6.522   4.117  13.831  0.00  0.00    +0.000 C 
ATOM     21  C   UNL     1       6.579   5.061  15.033  0.00  0.00    +0.000 C 
ATOM     22  C   UNL     1       7.284   4.371  16.210  0.00  0.00    +0.000 C 
ATOM     23  C   UNL     1       7.153   5.149  17.510  0.00  0.00    +0.000 C 
ATOM     24  N   UNL     1       5.741   5.467  17.812  0.00  0.00    +0.000 NA
ATOM     25  C   UNL     1       5.135   6.290  16.731  0.00  0.00    +0.000 C 
ATOM     26  C   UNL     1       5.168   5.554  15.394  0.00  0.00    +0.000 C 
ENDBRANCH  17  24
ENDBRANCH   1  17
TORSDOF 3
ENDMDL
MODEL 4
REMARK VINA RESULT:      -8.4      2.125      2.623
REMARK  Name = 
REMARK  4 active torsions:
REMARK  status: ('A' for Active; 'I' for Inactive)
REMARK    1  A    between atoms: C_1  and  C_2
REMARK    2  A    between atoms: N_5  and  S_6
REMARK    3  A    between atoms: S_6  and  C_9
REMARK    4  A    between atoms: C_14  and  C_16
REMARK                            x       y       z     vdW  Elec       q    Type
REMARK                         _______ _______ _______ _____ _____    ______ ____
ROOT
ATOM      1  C   UNL     1       5.317   5.315  17.163  0.00  0.00    +0.000 A 
ATOM      2  N   UNL     1       5.031   5.932  16.033  0.00  0.00    +0.000 NA
ATOM      3  N   UNL     1       5.644   7.176  15.970  0.00  0.00    +0.000 NA
ATOM      4  C   UNL     1       6.407   7.407  17.016  0.00  0.00    +0.000 A 
ATOM      5  N   UNL     1       7.107   8.582  17.190  0.00  0.00    +0.000 N 
ATOM      6  C   UNL     1       8.110   8.779  18.112  0.00  0.00    +0.000 C 
ATOM      7  O   UNL     1       8.580   7.935  18.867  0.00  0.00    +0.000 OA
ATOM      8  S   UNL     1       6.396   6.161  18.179  0.00  0.00    +0.000 S 
ATOM      9  H   UNL     1       6.931   9.269  16.470  0.00  0.00    +0.000 HD
ENDROOT
BRANCH   6  10
ATOM     10  C   UNL     1       8.720  10.140  18.143  0.00  0.00    +0.000 A 
ATOM     11  C   UNL     1       8.098  11.261  17.579  0.00  0.00    +0.000 A 
ATOM     12  C   UNL     1       8.703  12.519  17.679  0.00  0.00    +0.000 A 
ATOM     13  C   UNL     1       9.922  12.663  18.341  0.00  0.00    +0.000 A 
ATOM     14  C   UNL     1      10.537  11.547  18.910  0.00  0.00    +0.000 A 
ATOM     15 BR   UNL     1      12.181  11.741  19.819  0.00  0.00    +0.000 Br
ATOM     16  C   UNL     1       9.942  10.291  18.816  0.00  0.00    +0.000 A 
ENDBRANCH   6  10
BRANCH   1  17
ATOM     17  S   UNL     1       4.718   3.734  17.689  0.00  0.00    +0.000 S 
ATOM     18  O   UNL     1       5.055   3.636  19.097  0.00  0.00    +0.000 OA
ATOM     19  O   UNL     1       5.252   2.763  16.756  0.00  0.00    +0.000 OA
BRANCH  17  24
ATOM     20  C   UNL     1       1.889   2.979  21.639  0.00  0.00    +0.000 C 
ATOM     21  C   UNL     1       1.677   3.240  20.147  0.00  0.00    +0.000 C 
ATOM     22  C   UNL     1       2.275   2.089  19.324  0.00  0.00    +0.000 C 
ATOM     23  C   UNL     1       2.328   2.399  17.835  0.00  0.00    +0.000 C 
ATOM     24  N   UNL     1       3.006   3.687  17.573  0.00  0.00    +0.000 NA
ATOM     25  C   UNL     1       2.298   4.811  18.243  0.00  0.00    +0.000 C 
ATOM     26  C   UNL     1       2.253   4.610  19.756  0.00  0.00    +0.000 C 
ENDBRANCH  17  24
ENDBRANCH   1  17
TORSDOF 3
ENDMDL
MODEL 5
REMARK VINA RESULT:      -8.4      1.177      1.468
REMARK  Name = 
REMARK  4 active torsions:
REMARK  status: ('A' for Active; 'I' for Inactive)
REMARK    1  A    between atoms: C_1  and  C_2
REMARK    2  A    between atoms: N_5  and  S_6
REMARK    3  A    between atoms: S_6  and  C_9
REMARK    4  A    between atoms: C_14  and  C_16
REMARK                            x       y       z     vdW  Elec       q    Type
REMARK                         _______ _______ _______ _____ _____    ______ ____
ROOT
ATOM      1  C   UNL     1       6.675   5.442  17.662  0.00  0.00    +0.000 A 
ATOM      2  N   UNL     1       7.369   4.988  18.687  0.00  0.00    +0.000 NA
ATOM      3  N   UNL     1       8.218   5.964  19.192  0.00  0.00    +0.000 NA
ATOM      4  C   UNL     1       8.075   7.114  18.571  0.00  0.00    +0.000 A 
ATOM      5  N   UNL     1       8.820   8.232  18.882  0.00  0.00    +0.000 N 
ATOM      6  C   UNL     1       8.544   9.512  18.460  0.00  0.00    +0.000 C 
ATOM      7  O   UNL     1       7.570   9.868  17.806  0.00  0.00    +0.000 OA
ATOM      8  S   UNL     1       6.947   7.086  17.295  0.00  0.00    +0.000 S 
ATOM      9  H   UNL     1       9.523   8.067  19.589  0.00  0.00    +0.000 HD
ENDROOT
BRANCH   6  10
ATOM     10  C   UNL     1       9.498  10.573  18.899  0.00  0.00    +0.000 A 
ATOM     11  C   UNL     1      10.658  10.890  18.183  0.00  0.00    +0.000 A 
ATOM     12  C   UNL     1      11.490  11.925  18.624  0.00  0.00    +0.000 A 
ATOM     13  C   UNL     1      11.166  12.646  19.774  0.00  0.00    +0.000 A 
ATOM     14  C   UNL     1      10.005  12.335  20.482  0.00  0.00    +0.000 A 
ATOM     15 BR   UNL     1       9.558  13.319  22.031  0.00  0.00    +0.000 Br
ATOM     16  C   UNL     1       9.172  11.307  20.050  0.00  0.00    +0.000 A 
ENDBRANCH   6  10
BRANCH   1  17
ATOM     17  S   UNL     1       5.512   4.534  16.682  0.00  0.00    +0.000 S 
ATOM     18  O   UNL     1       6.300   3.586  15.918  0.00  0.00    +0.000 OA
ATOM     19  O   UNL     1       4.705   5.518  15.990  0.00  0.00    +0.000 OA
BRANCH  17  24
ATOM     20  C   UNL     1       2.223   6.721  19.611  0.00  0.00    +0.000 C 
ATOM     21  C   UNL     1       2.640   5.288  19.273  0.00  0.00    +0.000 C 
ATOM     22  C   UNL     1       4.098   5.053  19.694  0.00  0.00    +0.000 C 
ATOM     23  C   UNL     1       4.657   3.742  19.163  0.00  0.00    +0.000 C 
ATOM     24  N   UNL     1       4.471   3.626  17.700  0.00  0.00    +0.000 NA
ATOM     25  C   UNL     1       3.029   3.680  17.338  0.00  0.00    +0.000 C 
ATOM     26  C   UNL     1       2.400   4.999  17.782  0.00  0.00    +0.000 C 
ENDBRANCH  17  24
ENDBRANCH   1  17
TORSDOF 3
ENDMDL
MODEL 6
REMARK VINA RESULT:      -8.3      6.151      6.997
REMARK  Name = 
REMARK  4 active torsions:
REMARK  status: ('A' for Active; 'I' for Inactive)
REMARK    1  A    between atoms: C_1  and  C_2
REMARK    2  A    between atoms: N_5  and  S_6
REMARK    3  A    between atoms: S_6  and  C_9
REMARK    4  A    between atoms: C_14  and  C_16
REMARK                            x       y       z     vdW  Elec       q    Type
REMARK                         _______ _______ _______ _____ _____    ______ ____
ROOT
ATOM      1  C   UNL     1       3.737   5.432  19.034  0.00  0.00    +0.000 A 
ATOM      2  N   UNL     1       3.049   5.316  20.153  0.00  0.00    +0.000 NA
ATOM      3  N   UNL     1       2.271   6.442  20.384  0.00  0.00    +0.000 NA
ATOM      4  C   UNL     1       2.359   7.315  19.404  0.00  0.00    +0.000 A 
ATOM      5  N   UNL     1       1.692   8.521  19.412  0.00  0.00    +0.000 N 
ATOM      6  C   UNL     1       1.535   9.348  18.323  0.00  0.00    +0.000 C 
ATOM      7  O   UNL     1       1.900   9.118  17.176  0.00  0.00    +0.000 OA
ATOM      8  S   UNL     1       3.432   6.864  18.160  0.00  0.00    +0.000 S 
ATOM      9  H   UNL     1       1.177   8.695  20.264  0.00  0.00    +0.000 HD
ENDROOT
BRANCH   6  10
ATOM     10  C   UNL     1       0.792  10.621  18.561  0.00  0.00    +0.000 A 
ATOM     11  C   UNL     1       1.438  11.836  18.819  0.00  0.00    +0.000 A 
ATOM     12  C   UNL     1       0.686  13.004  18.991  0.00  0.00    +0.000 A 
ATOM     13  C   UNL     1      -0.706  12.963  18.904  0.00  0.00    +0.000 A 
ATOM     14  C   UNL     1      -1.348  11.752  18.638  0.00  0.00    +0.000 A 
ATOM     15 BR   UNL     1      -3.231  11.698  18.505  0.00  0.00    +0.000 Br
ATOM     16  C   UNL     1      -0.607  10.587  18.465  0.00  0.00    +0.000 A 
ENDBRANCH   6  10
BRANCH   1  17
ATOM     17  S   UNL     1       4.892   4.263  18.373  0.00  0.00    +0.000 S 
ATOM     18  O   UNL     1       5.568   3.689  19.520  0.00  0.00    +0.000 OA
ATOM     19  O   UNL     1       5.659   4.970  17.368  0.00  0.00    +0.000 OA
BRANCH  17  24
ATOM     20  C   UNL     1       0.372   2.920  19.767  0.00  0.00    +0.000 C 
ATOM     21  C   UNL     1       1.378   2.506  18.693  0.00  0.00    +0.000 C 
ATOM     22  C   UNL     1       2.649   1.949  19.352  0.00  0.00    +0.000 C 
ATOM     23  C   UNL     1       3.786   1.754  18.360  0.00  0.00    +0.000 C 
ATOM     24  N   UNL     1       4.051   2.988  17.589  0.00  0.00    +0.000 NA
ATOM     25  C   UNL     1       2.848   3.405  16.819  0.00  0.00    +0.000 C 
ATOM     26  C   UNL     1       1.669   3.684  17.748  0.00  0.00    +0.000 C 
ENDBRANCH  17  24
ENDBRANCH   1  17
TORSDOF 3
ENDMDL
MODEL 7
REMARK VINA RESULT:      -8.3      6.077      7.765
REMARK  Name = 
REMARK  4 active torsions:
REMARK  status: ('A' for Active; 'I' for Inactive)
REMARK    1  A    between atoms: C_1  and  C_2
REMARK    2  A    between atoms: N_5  and  S_6
REMARK    3  A    between atoms: S_6  and  C_9
REMARK    4  A    between atoms: C_14  and  C_16
REMARK                            x       y       z     vdW  Elec       q    Type
REMARK                         _______ _______ _______ _____ _____    ______ ____
ROOT
ATOM      1  C   UNL     1       2.943   6.976  18.420  0.00  0.00    +0.000 A 
ATOM      2  N   UNL     1       2.687   7.830  17.449  0.00  0.00    +0.000 NA
ATOM      3  N   UNL     1       1.862   8.857  17.887  0.00  0.00    +0.000 NA
ATOM      4  C   UNL     1       1.592   8.763  19.171  0.00  0.00    +0.000 A 
ATOM      5  N   UNL     1       0.779   9.657  19.834  0.00  0.00    +0.000 N 
ATOM      6  C   UNL     1       0.670   9.768  21.201  0.00  0.00    +0.000 C 
ATOM      7  O   UNL     1       1.317   9.145  22.035  0.00  0.00    +0.000 OA
ATOM      8  S   UNL     1       2.270   7.397  19.930  0.00  0.00    +0.000 S 
ATOM      9  H   UNL     1       0.364  10.354  19.229  0.00  0.00    +0.000 HD
ENDROOT
BRANCH   6  10
ATOM     10  C   UNL     1      -0.290  10.793  21.707  0.00  0.00    +0.000 A 
ATOM     11  C   UNL     1      -1.039  10.615  22.877  0.00  0.00    +0.000 A 
ATOM     12  C   UNL     1      -1.890  11.633  23.322  0.00  0.00    +0.000 A 
ATOM     13  C   UNL     1      -1.994  12.826  22.607  0.00  0.00    +0.000 A 
ATOM     14  C   UNL     1      -1.240  13.005  21.446  0.00  0.00    +0.000 A 
ATOM     15 BR   UNL     1      -1.369  14.625  20.484  0.00  0.00    +0.000 Br
ATOM     16  C   UNL     1      -0.391  11.998  20.996  0.00  0.00    +0.000 A 
ENDBRANCH   6  10
BRANCH   1  17
ATOM     17  S   UNL     1       3.908   5.495  18.304  0.00  0.00    +0.000 S 
ATOM     18  O   UNL     1       4.336   5.199  19.659  0.00  0.00    +0.000 OA
ATOM     19  O   UNL     1       4.899   5.732  17.275  0.00  0.00    +0.000 OA
BRANCH  17  24
ATOM     20  C   UNL     1       1.691   2.514  21.526  0.00  0.00    +0.000 C 
ATOM     21  C   UNL     1       1.758   2.663  20.005  0.00  0.00    +0.000 C 
ATOM     22  C   UNL     1       3.197   2.435  19.519  0.00  0.00    +0.000 C 
ATOM     23  C   UNL     1       3.389   2.814  18.058  0.00  0.00    +0.000 C 
ATOM     24  N   UNL     1       2.919   4.190  17.789  0.00  0.00    +0.000 NA
ATOM     25  C   UNL     1       1.472   4.333  18.105  0.00  0.00    +0.000 C 
ATOM     26  C   UNL     1       1.197   4.029  19.576  0.00  0.00    +0.000 C 
ENDBRANCH  17  24
ENDBRANCH   1  17
TORSDOF 3
ENDMDL
MODEL 8
REMARK VINA RESULT:      -8.3      5.864      7.212
REMARK  Name = 
REMARK  4 active torsions:
REMARK  status: ('A' for Active; 'I' for Inactive)
REMARK    1  A    between atoms: C_1  and  C_2
REMARK    2  A    between atoms: N_5  and  S_6
REMARK    3  A    between atoms: S_6  and  C_9
REMARK    4  A    between atoms: C_14  and  C_16
REMARK                            x       y       z     vdW  Elec       q    Type
REMARK                         _______ _______ _______ _____ _____    ______ ____
ROOT
ATOM      1  C   UNL     1       3.944   5.833  18.185  0.00  0.00    +0.000 A 
ATOM      2  N   UNL     1       3.888   6.798  17.288  0.00  0.00    +0.000 NA
ATOM      3  N   UNL     1       3.045   7.820  17.702  0.00  0.00    +0.000 NA
ATOM      4  C   UNL     1       2.562   7.608  18.907  0.00  0.00    +0.000 A 
ATOM      5  N   UNL     1       1.687   8.474  19.528  0.00  0.00    +0.000 N 
ATOM      6  C   UNL     1       1.357   8.445  20.864  0.00  0.00    +0.000 C 
ATOM      7  O   UNL     1       1.831   7.701  21.715  0.00  0.00    +0.000 OA
ATOM      8  S   UNL     1       3.048   6.131  19.606  0.00  0.00    +0.000 S 
ATOM      9  H   UNL     1       1.408   9.253  18.949  0.00  0.00    +0.000 HD
ENDROOT
BRANCH   6  10
ATOM     10  C   UNL     1       0.370   9.466  21.323  0.00  0.00    +0.000 A 
ATOM     11  C   UNL     1      -0.067   9.552  22.651  0.00  0.00    +0.000 A 
ATOM     12  C   UNL     1      -0.962  10.560  23.027  0.00  0.00    +0.000 A 
ATOM     13  C   UNL     1      -1.420  11.482  22.085  0.00  0.00    +0.000 A 
ATOM     14  C   UNL     1      -0.977  11.400  20.765  0.00  0.00    +0.000 A 
ATOM     15 BR   UNL     1      -1.585  12.656  19.491  0.00  0.00    +0.000 Br
ATOM     16  C   UNL     1      -0.087  10.401  20.382  0.00  0.00    +0.000 A 
ENDBRANCH   6  10
BRANCH   1  17
ATOM     17  S   UNL     1       4.853   4.318  18.058  0.00  0.00    +0.000 S 
ATOM     18  O   UNL     1       5.216   3.964  19.417  0.00  0.00    +0.000 OA
ATOM     19  O   UNL     1       5.893   4.547  17.075  0.00  0.00    +0.000 OA
BRANCH  17  24
ATOM     20  C   UNL     1       0.589   3.216  20.243  0.00  0.00    +0.000 C 
ATOM     21  C   UNL     1       1.375   2.736  19.022  0.00  0.00    +0.000 C 
ATOM     22  C   UNL     1       2.715   2.130  19.466  0.00  0.00    +0.000 C 
ATOM     23  C   UNL     1       3.653   1.865  18.299  0.00  0.00    +0.000 C 
ATOM     24  N   UNL     1       3.834   3.072  17.463  0.00  0.00    +0.000 NA
ATOM     25  C   UNL     1       2.536   3.533  16.901  0.00  0.00    +0.000 C 
ATOM     26  C   UNL     1       1.549   3.882  18.012  0.00  0.00    +0.000 C 
ENDBRANCH  17  24
ENDBRANCH   1  17
TORSDOF 3
ENDMDL
MODEL 9
REMARK VINA RESULT:      -8.2      6.876      8.788
REMARK  Name = 
REMARK  4 active torsions:
REMARK  status: ('A' for Active; 'I' for Inactive)
REMARK    1  A    between atoms: C_1  and  C_2
REMARK    2  A    between atoms: N_5  and  S_6
REMARK    3  A    between atoms: S_6  and  C_9
REMARK    4  A    between atoms: C_14  and  C_16
REMARK                            x       y       z     vdW  Elec       q    Type
REMARK                         _______ _______ _______ _____ _____    ______ ____
ROOT
ATOM      1  C   UNL     1       2.029   7.560  19.497  0.00  0.00    +0.000 A 
ATOM      2  N   UNL     1       2.063   8.441  18.517  0.00  0.00    +0.000 NA
ATOM      3  N   UNL     1       1.412   9.615  18.873  0.00  0.00    +0.000 NA
ATOM      4  C   UNL     1       0.980   9.585  20.115  0.00  0.00    +0.000 A 
ATOM      5  N   UNL     1       0.288  10.627  20.694  0.00  0.00    +0.000 N 
ATOM      6  C   UNL     1       0.042  10.766  22.041  0.00  0.00    +0.000 C 
ATOM      7  O   UNL     1       0.450  10.032  22.934  0.00  0.00    +0.000 OA
ATOM      8  S   UNL     1       1.280   8.116  20.925  0.00  0.00    +0.000 S 
ATOM      9  H   UNL     1       0.093  11.388  20.057  0.00  0.00    +0.000 HD
ENDROOT
BRANCH   6  10
ATOM     10  C   UNL     1      -0.748  11.965  22.449  0.00  0.00    +0.000 A 
ATOM     11  C   UNL     1      -0.375  13.269  22.102  0.00  0.00    +0.000 A 
ATOM     12  C   UNL     1      -1.182  14.349  22.479  0.00  0.00    +0.000 A 
ATOM     13  C   UNL     1      -2.358  14.131  23.196  0.00  0.00    +0.000 A 
ATOM     14  C   UNL     1      -2.733  12.830  23.534  0.00  0.00    +0.000 A 
ATOM     15 BR   UNL     1      -4.332  12.532  24.493  0.00  0.00    +0.000 Br
ATOM     16  C   UNL     1      -1.937  11.750  23.163  0.00  0.00    +0.000 A 
ENDBRANCH   6  10
BRANCH   1  17
ATOM     17  S   UNL     1       2.688   5.916  19.469  0.00  0.00    +0.000 S 
ATOM     18  O   UNL     1       1.859   5.147  20.378  0.00  0.00    +0.000 OA
ATOM     19  O   UNL     1       4.108   6.041  19.725  0.00  0.00    +0.000 OA
BRANCH  17  24
ATOM     20  C   UNL     1       3.689   1.185  18.583  0.00  0.00    +0.000 C 
ATOM     21  C   UNL     1       3.170   2.384  17.788  0.00  0.00    +0.000 C 
ATOM     22  C   UNL     1       4.243   3.482  17.736  0.00  0.00    +0.000 C 
ATOM     23  C   UNL     1       3.710   4.796  17.185  0.00  0.00    +0.000 C 
ATOM     24  N   UNL     1       2.495   5.234  17.906  0.00  0.00    +0.000 NA
ATOM     25  C   UNL     1       1.410   4.223  17.789  0.00  0.00    +0.000 C 
ATOM     26  C   UNL     1       1.841   2.882  18.378  0.00  0.00    +0.000 C 
ENDBRANCH  17  24
ENDBRANCH   1  17
TORSDOF 3
ENDMDL
