MODEL 1
REMARK VINA RESULT:      -8.0      0.000      0.000
REMARK  Name = 
REMARK  5 active torsions:
REMARK  status: ('A' for Active; 'I' for Inactive)
REMARK    1  A    between atoms: C_2  and  O_3
REMARK    2  A    between atoms: C_2  and  C_4
REMARK    3  A    between atoms: C_6  and  C_7
REMARK    4  A    between atoms: C_7  and  N_8
REMARK    5  A    between atoms: C_11  and  C_12
REMARK                            x       y       z     vdW  Elec       q    Type
REMARK                         _______ _______ _______ _____ _____    ______ ____
ROOT
ATOM      1  C   UNL     1       2.039   3.942  18.762  0.00  0.00    +0.000 A 
ATOM      2  C   UNL     1       2.048   5.280  18.890  0.00  0.00    +0.000 A 
ATOM      3  C   UNL     1       2.989   6.132  18.168  0.00  0.00    +0.000 A 
ATOM      4  C   UNL     1       3.892   5.554  17.340  0.00  0.00    +0.000 A 
ATOM      5  C   UNL     1       4.867   6.337  16.577  0.00  0.00    +0.000 A 
ATOM      6  C   UNL     1       5.763   5.748  15.773  0.00  0.00    +0.000 A 
ATOM      7  C   UNL     1       5.765   4.319  15.658  0.00  0.00    +0.000 A 
ATOM      8  C   UNL     1       4.869   3.600  16.347  0.00  0.00    +0.000 A 
ATOM      9  N   UNL     1       3.909   4.153  17.190  0.00  0.00    +0.000 N 
ATOM     10  C   UNL     1       3.030   3.307  17.859  0.00  0.00    +0.000 A 
ATOM     11  O   UNL     1       3.022   2.076  17.753  0.00  0.00    +0.000 OA
ENDROOT
BRANCH   1  13
ATOM     12  O   UNL     1       0.920   3.229  20.739  0.00  0.00    +0.000 OA
ATOM     13  C   UNL     1       1.047   3.149  19.526  0.00  0.00    +0.000 C 
BRANCH  13  14
ATOM     14  O   UNL     1       0.271   2.325  18.786  0.00  0.00    +0.000 OA
ATOM     15  H   UNL     1       0.549   1.378  18.806  0.00  0.00    +0.000 HD
ENDBRANCH  13  14
ENDBRANCH   1  13
BRANCH   3  16
ATOM     16  C   UNL     1       2.949   7.620  18.521  0.00  0.00    +0.000 C 
BRANCH  16  17
ATOM     17  N   UNL     1       1.612   8.175  18.845  0.00  0.00    +0.000 NA
ATOM     18  C   UNL     1       1.597   8.735  20.209  0.00  0.00    +0.000 C 
ATOM     19  C   UNL     1       0.299   9.473  20.553  0.00  0.00    +0.000 C 
ATOM     20  C   UNL     1      -0.072  10.552  19.535  0.00  0.00    +0.000 C 
ATOM     21  C   UNL     1      -0.029   9.957  18.127  0.00  0.00    +0.000 C 
ATOM     22  C   UNL     1       1.270   9.200  17.836  0.00  0.00    +0.000 C 
BRANCH  20  23
ATOM     23  C   UNL     1       0.759  11.815  19.680  0.00  0.00    +0.000 A 
ATOM     24  N   UNL     1       1.328  12.093  20.869  0.00  0.00    +0.000 NA
ATOM     25  C   UNL     1       2.040  13.233  20.954  0.00  0.00    +0.000 A 
ATOM     26  C   UNL     1       2.210  14.100  19.904  0.00  0.00    +0.000 A 
ATOM     27  C   UNL     1       1.596  13.731  18.733  0.00  0.00    +0.000 A 
ATOM     28  N   UNL     1       0.870  12.605  18.594  0.00  0.00    +0.000 NA
ENDBRANCH  20  23
ENDBRANCH  16  17
ENDBRANCH   3  16
TORSDOF 5
ENDMDL
MODEL 2
REMARK VINA RESULT:      -7.8      2.307      4.255
REMARK  Name = 
REMARK  5 active torsions:
REMARK  status: ('A' for Active; 'I' for Inactive)
REMARK    1  A    between atoms: C_2  and  O_3
REMARK    2  A    between atoms: C_2  and  C_4
REMARK    3  A    between atoms: C_6  and  C_7
REMARK    4  A    between atoms: C_7  and  N_8
REMARK    5  A    between atoms: C_11  and  C_12
REMARK                            x       y       z     vdW  Elec       q    Type
REMARK                         _______ _______ _______ _____ _____    ______ ____
ROOT
ATOM      1  C   UNL     1       4.305   5.944  17.558  0.00  0.00    +0.000 A 
ATOM      2  C   UNL     1       3.605   6.648  18.464  0.00  0.00    +0.000 A 
ATOM      3  C   UNL     1       2.514   6.065  19.240  0.00  0.00    +0.000 A 
ATOM      4  C   UNL     1       2.189   4.765  19.037  0.00  0.00    +0.000 A 
ATOM      5  C   UNL     1       1.111   4.105  19.777  0.00  0.00    +0.000 A 
ATOM      6  C   UNL     1       0.794   2.822  19.554  0.00  0.00    +0.000 A 
ATOM      7  C   UNL     1       1.526   2.081  18.569  0.00  0.00    +0.000 A 
ATOM      8  C   UNL     1       2.519   2.680  17.897  0.00  0.00    +0.000 A 
ATOM      9  N   UNL     1       2.902   4.005  18.089  0.00  0.00    +0.000 N 
ATOM     10  C   UNL     1       3.947   4.523  17.331  0.00  0.00    +0.000 A 
ATOM     11  O   UNL     1       4.589   3.883  16.491  0.00  0.00    +0.000 OA
ENDROOT
BRANCH   1  13
ATOM     12  O   UNL     1       6.412   7.033  17.356  0.00  0.00    +0.000 OA
ATOM     13  C   UNL     1       5.402   6.609  16.816  0.00  0.00    +0.000 C 
BRANCH  13  14
ATOM     14  O   UNL     1       5.217   6.711  15.480  0.00  0.00    +0.000 OA
ATOM     15  H   UNL     1       6.038   6.906  14.969  0.00  0.00    +0.000 HD
ENDBRANCH  13  14
ENDBRANCH   1  13
BRANCH   3  16
ATOM     16  C   UNL     1       1.740   7.034  20.136  0.00  0.00    +0.000 C 
BRANCH  16  17
ATOM     17  N   UNL     1       1.895   8.475  19.820  0.00  0.00    +0.000 NA
ATOM     18  C   UNL     1       1.659   8.722  18.385  0.00  0.00    +0.000 C 
ATOM     19  C   UNL     1       1.640  10.209  18.016  0.00  0.00    +0.000 C 
ATOM     20  C   UNL     1       0.663  11.029  18.860  0.00  0.00    +0.000 C 
ATOM     21  C   UNL     1       0.910  10.743  20.342  0.00  0.00    +0.000 C 
ATOM     22  C   UNL     1       0.956   9.246  20.662  0.00  0.00    +0.000 C 
BRANCH  20  23
ATOM     23  C   UNL     1      -0.785  10.841  18.443  0.00  0.00    +0.000 A 
ATOM     24  N   UNL     1      -1.084   9.914  17.513  0.00  0.00    +0.000 NA
ATOM     25  C   UNL     1      -2.379   9.797  17.162  0.00  0.00    +0.000 A 
ATOM     26  C   UNL     1      -3.383  10.560  17.703  0.00  0.00    +0.000 A 
ATOM     27  C   UNL     1      -2.982  11.475  18.645  0.00  0.00    +0.000 A 
ATOM     28  N   UNL     1      -1.701  11.636  19.030  0.00  0.00    +0.000 NA
ENDBRANCH  20  23
ENDBRANCH  16  17
ENDBRANCH   3  16
TORSDOF 5
ENDMDL
MODEL 3
REMARK VINA RESULT:      -7.8      2.649      4.374
REMARK  Name = 
REMARK  5 active torsions:
REMARK  status: ('A' for Active; 'I' for Inactive)
REMARK    1  A    between atoms: C_2  and  O_3
REMARK    2  A    between atoms: C_2  and  C_4
REMARK    3  A    between atoms: C_6  and  C_7
REMARK    4  A    between atoms: C_7  and  N_8
REMARK    5  A    between atoms: C_11  and  C_12
REMARK                            x       y       z     vdW  Elec       q    Type
REMARK                         _______ _______ _______ _____ _____    ______ ____
ROOT
ATOM      1  C   UNL     1       5.729   6.117  17.589  0.00  0.00    +0.000 A 
ATOM      2  C   UNL     1       4.614   6.868  17.554  0.00  0.00    +0.000 A 
ATOM      3  C   UNL     1       3.383   6.478  18.234  0.00  0.00    +0.000 A 
ATOM      4  C   UNL     1       3.357   5.312  18.923  0.00  0.00    +0.000 A 
ATOM      5  C   UNL     1       2.163   4.851  19.635  0.00  0.00    +0.000 A 
ATOM      6  C   UNL     1       2.151   3.688  20.302  0.00  0.00    +0.000 A 
ATOM      7  C   UNL     1       3.335   2.879  20.317  0.00  0.00    +0.000 A 
ATOM      8  C   UNL     1       4.432   3.302  19.674  0.00  0.00    +0.000 A 
ATOM      9  N   UNL     1       4.509   4.502  18.973  0.00  0.00    +0.000 N 
ATOM     10  C   UNL     1       5.702   4.839  18.340  0.00  0.00    +0.000 A 
ATOM     11  O   UNL     1       6.727   4.149  18.361  0.00  0.00    +0.000 OA
ENDROOT
BRANCH   1  13
ATOM     12  O   UNL     1       7.460   7.673  17.088  0.00  0.00    +0.000 OA
ATOM     13  C   UNL     1       6.940   6.587  16.877  0.00  0.00    +0.000 C 
BRANCH  13  14
ATOM     14  O   UNL     1       7.449   5.724  15.968  0.00  0.00    +0.000 OA
ATOM     15  H   UNL     1       6.960   4.869  15.902  0.00  0.00    +0.000 HD
ENDBRANCH  13  14
ENDBRANCH   1  13
BRANCH   3  16
ATOM     16  C   UNL     1       2.172   7.380  17.990  0.00  0.00    +0.000 C 
BRANCH  16  17
ATOM     17  N   UNL     1       2.145   8.652  18.753  0.00  0.00    +0.000 NA
ATOM     18  C   UNL     1       1.915   9.796  17.851  0.00  0.00    +0.000 C 
ATOM     19  C   UNL     1       1.711  11.124  18.587  0.00  0.00    +0.000 C 
ATOM     20  C   UNL     1       0.615  11.063  19.653  0.00  0.00    +0.000 C 
ATOM     21  C   UNL     1       0.860   9.859  20.563  0.00  0.00    +0.000 C 
ATOM     22  C   UNL     1       1.092   8.560  19.787  0.00  0.00    +0.000 C 
BRANCH  20  23
ATOM     23  C   UNL     1      -0.785  11.100  19.067  0.00  0.00    +0.000 A 
ATOM     24  N   UNL     1      -1.706  11.913  19.619  0.00  0.00    +0.000 NA
ATOM     25  C   UNL     1      -2.938  11.897  19.076  0.00  0.00    +0.000 A 
ATOM     26  C   UNL     1      -3.286  11.109  18.007  0.00  0.00    +0.000 A 
ATOM     27  C   UNL     1      -2.281  10.318  17.511  0.00  0.00    +0.000 A 
ATOM     28  N   UNL     1      -1.033  10.292  18.016  0.00  0.00    +0.000 NA
ENDBRANCH  20  23
ENDBRANCH  16  17
ENDBRANCH   3  16
TORSDOF 5
ENDMDL
MODEL 4
REMARK VINA RESULT:      -7.7      0.929      1.352
REMARK  Name = 
REMARK  5 active torsions:
REMARK  status: ('A' for Active; 'I' for Inactive)
REMARK    1  A    between atoms: C_2  and  O_3
REMARK    2  A    between atoms: C_2  and  C_4
REMARK    3  A    between atoms: C_6  and  C_7
REMARK    4  A    between atoms: C_7  and  N_8
REMARK    5  A    between atoms: C_11  and  C_12
REMARK                            x       y       z     vdW  Elec       q    Type
REMARK                         _______ _______ _______ _____ _____    ______ ____
ROOT
ATOM      1  C   UNL     1       2.604   3.953  20.084  0.00  0.00    +0.000 A 
ATOM      2  C   UNL     1       2.459   5.289  20.126  0.00  0.00    +0.000 A 
ATOM      3  C   UNL     1       3.033   6.174  19.117  0.00  0.00    +0.000 A 
ATOM      4  C   UNL     1       3.745   5.631  18.100  0.00  0.00    +0.000 A 
ATOM      5  C   UNL     1       4.351   6.448  17.046  0.00  0.00    +0.000 A 
ATOM      6  C   UNL     1       5.064   5.896  16.055  0.00  0.00    +0.000 A 
ATOM      7  C   UNL     1       5.237   4.473  16.028  0.00  0.00    +0.000 A 
ATOM      8  C   UNL     1       4.677   3.721  16.985  0.00  0.00    +0.000 A 
ATOM      9  N   UNL     1       3.919   4.234  18.034  0.00  0.00    +0.000 N 
ATOM     10  C   UNL     1       3.387   3.358  18.975  0.00  0.00    +0.000 A 
ATOM     11  O   UNL     1       3.524   2.130  18.947  0.00  0.00    +0.000 OA
ENDROOT
BRANCH   1  13
ATOM     12  O   UNL     1       2.614   2.663  22.085  0.00  0.00    +0.000 OA
ATOM     13  C   UNL     1       1.984   3.125  21.145  0.00  0.00    +0.000 C 
BRANCH  13  14
ATOM     14  O   UNL     1       0.654   2.916  21.013  0.00  0.00    +0.000 OA
ATOM     15  H   UNL     1       0.143   3.007  21.852  0.00  0.00    +0.000 HD
ENDBRANCH  13  14
ENDBRANCH   1  13
BRANCH   3  16
ATOM     16  C   UNL     1       2.882   7.673  19.380  0.00  0.00    +0.000 C 
BRANCH  16  17
ATOM     17  N   UNL     1       1.501   8.210  19.307  0.00  0.00    +0.000 NA
ATOM     18  C   UNL     1       1.138   8.888  20.566  0.00  0.00    +0.000 C 
ATOM     19  C   UNL     1      -0.213   9.609  20.505  0.00  0.00    +0.000 C 
ATOM     20  C   UNL     1      -0.327  10.581  19.329  0.00  0.00    +0.000 C 
ATOM     21  C   UNL     1       0.073   9.865  18.039  0.00  0.00    +0.000 C 
ATOM     22  C   UNL     1       1.412   9.129  18.153  0.00  0.00    +0.000 C 
BRANCH  20  23
ATOM     23  C   UNL     1       0.428  11.878  19.556  0.00  0.00    +0.000 A 
ATOM     24  N   UNL     1       0.853  12.585  18.492  0.00  0.00    +0.000 NA
ATOM     25  C   UNL     1       1.534  13.719  18.743  0.00  0.00    +0.000 A 
ATOM     26  C   UNL     1       1.803  14.177  20.009  0.00  0.00    +0.000 A 
ATOM     27  C   UNL     1       1.328  13.392  21.029  0.00  0.00    +0.000 A 
ATOM     28  N   UNL     1       0.645  12.248  20.835  0.00  0.00    +0.000 NA
ENDBRANCH  20  23
ENDBRANCH  16  17
ENDBRANCH   3  16
TORSDOF 5
ENDMDL
MODEL 5
REMARK VINA RESULT:      -7.6      1.008      1.360
REMARK  Name = 
REMARK  5 active torsions:
REMARK  status: ('A' for Active; 'I' for Inactive)
REMARK    1  A    between atoms: C_2  and  O_3
REMARK    2  A    between atoms: C_2  and  C_4
REMARK    3  A    between atoms: C_6  and  C_7
REMARK    4  A    between atoms: C_7  and  N_8
REMARK    5  A    between atoms: C_11  and  C_12
REMARK                            x       y       z     vdW  Elec       q    Type
REMARK                         _______ _______ _______ _____ _____    ______ ____
ROOT
ATOM      1  C   UNL     1       2.472   4.403  18.620  0.00  0.00    +0.000 A 
ATOM      2  C   UNL     1       2.234   5.706  18.387  0.00  0.00    +0.000 A 
ATOM      3  C   UNL     1       3.277   6.630  17.952  0.00  0.00    +0.000 A 
ATOM      4  C   UNL     1       4.536   6.161  17.780  0.00  0.00    +0.000 A 
ATOM      5  C   UNL     1       5.639   7.021  17.343  0.00  0.00    +0.000 A 
ATOM      6  C   UNL     1       6.881   6.543  17.191  0.00  0.00    +0.000 A 
ATOM      7  C   UNL     1       7.136   5.159  17.464  0.00  0.00    +0.000 A 
ATOM      8  C   UNL     1       6.129   4.367  17.855  0.00  0.00    +0.000 A 
ATOM      9  N   UNL     1       4.816   4.801  18.023  0.00  0.00    +0.000 N 
ATOM     10  C   UNL     1       3.850   3.889  18.437  0.00  0.00    +0.000 A 
ATOM     11  O   UNL     1       4.065   2.693  18.661  0.00  0.00    +0.000 OA
ENDROOT
BRANCH   1  13
ATOM     12  O   UNL     1       0.749   3.694  20.102  0.00  0.00    +0.000 OA
ATOM     13  C   UNL     1       1.356   3.531  19.054  0.00  0.00    +0.000 C 
BRANCH  13  14
ATOM     14  O   UNL     1       1.038   2.531  18.200  0.00  0.00    +0.000 OA
ATOM     15  H   UNL     1       1.494   2.581  17.327  0.00  0.00    +0.000 HD
ENDBRANCH  13  14
ENDBRANCH   1  13
BRANCH   3  16
ATOM     16  C   UNL     1       2.868   8.100  17.853  0.00  0.00    +0.000 C 
BRANCH  16  17
ATOM     17  N   UNL     1       1.582   8.462  18.498  0.00  0.00    +0.000 NA
ATOM     18  C   UNL     1       1.803   8.916  19.884  0.00  0.00    +0.000 C 
ATOM     19  C   UNL     1       0.541   9.461  20.559  0.00  0.00    +0.000 C 
ATOM     20  C   UNL     1      -0.153  10.557  19.749  0.00  0.00    +0.000 C 
ATOM     21  C   UNL     1      -0.354  10.075  18.311  0.00  0.00    +0.000 C 
ATOM     22  C   UNL     1       0.923   9.507  17.686  0.00  0.00    +0.000 C 
BRANCH  20  23
ATOM     23  C   UNL     1       0.553  11.898  19.841  0.00  0.00    +0.000 A 
ATOM     24  N   UNL     1       0.448  12.766  18.816  0.00  0.00    +0.000 NA
ATOM     25  C   UNL     1       1.106  13.935  18.935  0.00  0.00    +0.000 A 
ATOM     26  C   UNL     1       1.858  14.273  20.033  0.00  0.00    +0.000 A 
ATOM     27  C   UNL     1       1.902  13.328  21.027  0.00  0.00    +0.000 A 
ATOM     28  N   UNL     1       1.266  12.142  20.958  0.00  0.00    +0.000 NA
ENDBRANCH  20  23
ENDBRANCH  16  17
ENDBRANCH   3  16
TORSDOF 5
ENDMDL
MODEL 6
REMARK VINA RESULT:      -7.6      1.779      3.439
REMARK  Name = 
REMARK  5 active torsions:
REMARK  status: ('A' for Active; 'I' for Inactive)
REMARK    1  A    between atoms: C_2  and  O_3
REMARK    2  A    between atoms: C_2  and  C_4
REMARK    3  A    between atoms: C_6  and  C_7
REMARK    4  A    between atoms: C_7  and  N_8
REMARK    5  A    between atoms: C_11  and  C_12
REMARK                            x       y       z     vdW  Elec       q    Type
REMARK                         _______ _______ _______ _____ _____    ______ ____
ROOT
ATOM      1  C   UNL     1       4.377   5.556  17.188  0.00  0.00    +0.000 A 
ATOM      2  C   UNL     1       3.988   6.432  18.130  0.00  0.00    +0.000 A 
ATOM      3  C   UNL     1       2.987   6.106  19.142  0.00  0.00    +0.000 A 
ATOM      4  C   UNL     1       2.422   4.874  19.129  0.00  0.00    +0.000 A 
ATOM      5  C   UNL     1       1.413   4.467  20.110  0.00  0.00    +0.000 A 
ATOM      6  C   UNL     1       0.855   3.249  20.074  0.00  0.00    +0.000 A 
ATOM      7  C   UNL     1       1.254   2.326  19.053  0.00  0.00    +0.000 A 
ATOM      8  C   UNL     1       2.184   2.692  18.160  0.00  0.00    +0.000 A 
ATOM      9  N   UNL     1       2.806   3.938  18.149  0.00  0.00    +0.000 N 
ATOM     10  C   UNL     1       3.757   4.210  17.170  0.00  0.00    +0.000 A 
ATOM     11  O   UNL     1       4.112   3.411  16.296  0.00  0.00    +0.000 OA
ENDROOT
BRANCH   1  13
ATOM     12  O   UNL     1       5.226   6.853  15.382  0.00  0.00    +0.000 OA
ATOM     13  C   UNL     1       5.404   5.964  16.201  0.00  0.00    +0.000 C 
BRANCH  13  14
ATOM     14  O   UNL     1       6.574   5.288  16.270  0.00  0.00    +0.000 OA
ATOM     15  H   UNL     1       6.993   5.291  17.163  0.00  0.00    +0.000 HD
ENDBRANCH  13  14
ENDBRANCH   1  13
BRANCH   3  16
ATOM     16  C   UNL     1       2.567   7.254  20.061  0.00  0.00    +0.000 C 
BRANCH  16  17
ATOM     17  N   UNL     1       1.396   8.048  19.615  0.00  0.00    +0.000 NA
ATOM     18  C   UNL     1       0.932   8.943  20.692  0.00  0.00    +0.000 C 
ATOM     19  C   UNL     1      -0.170   9.911  20.251  0.00  0.00    +0.000 C 
ATOM     20  C   UNL     1       0.202  10.726  19.012  0.00  0.00    +0.000 C 
ATOM     21  C   UNL     1       0.699   9.784  17.915  0.00  0.00    +0.000 C 
ATOM     22  C   UNL     1       1.775   8.810  18.406  0.00  0.00    +0.000 C 
BRANCH  20  23
ATOM     23  C   UNL     1       1.165  11.860  19.314  0.00  0.00    +0.000 A 
ATOM     24  N   UNL     1       1.202  12.376  20.558  0.00  0.00    +0.000 NA
ATOM     25  C   UNL     1       2.059  13.392  20.773  0.00  0.00    +0.000 A 
ATOM     26  C   UNL     1       2.880  13.909  19.802  0.00  0.00    +0.000 A 
ATOM     27  C   UNL     1       2.774  13.318  18.568  0.00  0.00    +0.000 A 
ATOM     28  N   UNL     1       1.933  12.302  18.298  0.00  0.00    +0.000 NA
ENDBRANCH  20  23
ENDBRANCH  16  17
ENDBRANCH   3  16
TORSDOF 5
ENDMDL
MODEL 7
REMARK VINA RESULT:      -7.4      1.253      1.407
REMARK  Name = 
REMARK  5 active torsions:
REMARK  status: ('A' for Active; 'I' for Inactive)
REMARK    1  A    between atoms: C_2  and  O_3
REMARK    2  A    between atoms: C_2  and  C_4
REMARK    3  A    between atoms: C_6  and  C_7
REMARK    4  A    between atoms: C_7  and  N_8
REMARK    5  A    between atoms: C_11  and  C_12
REMARK                            x       y       z     vdW  Elec       q    Type
REMARK                         _______ _______ _______ _____ _____    ______ ____
ROOT
ATOM      1  C   UNL     1       2.683   4.639  19.780  0.00  0.00    +0.000 A 
ATOM      2  C   UNL     1       2.314   5.822  19.259  0.00  0.00    +0.000 A 
ATOM      3  C   UNL     1       3.180   6.596  18.375  0.00  0.00    +0.000 A 
ATOM      4  C   UNL     1       4.408   6.109  18.071  0.00  0.00    +0.000 A 
ATOM      5  C   UNL     1       5.336   6.822  17.191  0.00  0.00    +0.000 A 
ATOM      6  C   UNL     1       6.551   6.332  16.911  0.00  0.00    +0.000 A 
ATOM      7  C   UNL     1       6.951   5.081  17.488  0.00  0.00    +0.000 A 
ATOM      8  C   UNL     1       6.101   4.422  18.287  0.00  0.00    +0.000 A 
ATOM      9  N   UNL     1       4.824   4.874  18.608  0.00  0.00    +0.000 N 
ATOM     10  C   UNL     1       4.027   4.106  19.452  0.00  0.00    +0.000 A 
ATOM     11  O   UNL     1       4.364   3.022  19.941  0.00  0.00    +0.000 OA
ENDROOT
BRANCH   1  13
ATOM     12  O   UNL     1       0.616   3.586  20.316  0.00  0.00    +0.000 OA
ATOM     13  C   UNL     1       1.741   3.913  20.663  0.00  0.00    +0.000 C 
BRANCH  13  14
ATOM     14  O   UNL     1       2.214   3.620  21.897  0.00  0.00    +0.000 OA
ATOM     15  H   UNL     1       2.486   2.679  22.015  0.00  0.00    +0.000 HD
ENDBRANCH  13  14
ENDBRANCH   1  13
BRANCH   3  16
ATOM     16  C   UNL     1       2.660   7.977  17.971  0.00  0.00    +0.000 C 
BRANCH  16  17
ATOM     17  N   UNL     1       1.446   8.447  18.682  0.00  0.00    +0.000 NA
ATOM     18  C   UNL     1       1.790   8.942  20.028  0.00  0.00    +0.000 C 
ATOM     19  C   UNL     1       0.612   9.596  20.759  0.00  0.00    +0.000 C 
ATOM     20  C   UNL     1      -0.066  10.701  19.947  0.00  0.00    +0.000 C 
ATOM     21  C   UNL     1      -0.394  10.174  18.549  0.00  0.00    +0.000 C 
ATOM     22  C   UNL     1       0.800   9.499  17.868  0.00  0.00    +0.000 C 
BRANCH  20  23
ATOM     23  C   UNL     1       0.726  11.996  19.931  0.00  0.00    +0.000 A 
ATOM     24  N   UNL     1       1.418  12.356  21.029  0.00  0.00    +0.000 NA
ATOM     25  C   UNL     1       2.089  13.521  20.974  0.00  0.00    +0.000 A 
ATOM     26  C   UNL     1       2.102  14.337  19.871  0.00  0.00    +0.000 A 
ATOM     27  C   UNL     1       1.371  13.886  18.800  0.00  0.00    +0.000 A 
ATOM     28  N   UNL     1       0.679  12.731  18.802  0.00  0.00    +0.000 NA
ENDBRANCH  20  23
ENDBRANCH  16  17
ENDBRANCH   3  16
TORSDOF 5
ENDMDL
MODEL 8
REMARK VINA RESULT:      -7.4      2.551      4.338
REMARK  Name = 
REMARK  5 active torsions:
REMARK  status: ('A' for Active; 'I' for Inactive)
REMARK    1  A    between atoms: C_2  and  O_3
REMARK    2  A    between atoms: C_2  and  C_4
REMARK    3  A    between atoms: C_6  and  C_7
REMARK    4  A    between atoms: C_7  and  N_8
REMARK    5  A    between atoms: C_11  and  C_12
REMARK                            x       y       z     vdW  Elec       q    Type
REMARK                         _______ _______ _______ _____ _____    ______ ____
ROOT
ATOM      1  C   UNL     1       5.164   6.142  17.790  0.00  0.00    +0.000 A 
ATOM      2  C   UNL     1       4.116   6.984  17.759  0.00  0.00    +0.000 A 
ATOM      3  C   UNL     1       2.882   6.731  18.497  0.00  0.00    +0.000 A 
ATOM      4  C   UNL     1       2.783   5.602  19.239  0.00  0.00    +0.000 A 
ATOM      5  C   UNL     1       1.582   5.275  20.011  0.00  0.00    +0.000 A 
ATOM      6  C   UNL     1       1.497   4.147  20.728  0.00  0.00    +0.000 A 
ATOM      7  C   UNL     1       2.607   3.239  20.739  0.00  0.00    +0.000 A 
ATOM      8  C   UNL     1       3.711   3.539  20.041  0.00  0.00    +0.000 A 
ATOM      9  N   UNL     1       3.864   4.698  19.285  0.00  0.00    +0.000 N 
ATOM     10  C   UNL     1       5.056   4.903  18.597  0.00  0.00    +0.000 A 
ATOM     11  O   UNL     1       6.019   4.129  18.615  0.00  0.00    +0.000 OA
ENDROOT
BRANCH   1  13
ATOM     12  O   UNL     1       6.947   7.556  17.094  0.00  0.00    +0.000 OA
ATOM     13  C   UNL     1       6.382   6.476  17.016  0.00  0.00    +0.000 C 
BRANCH  13  14
ATOM     14  O   UNL     1       6.844   5.491  16.212  0.00  0.00    +0.000 OA
ATOM     15  H   UNL     1       7.668   5.054  16.536  0.00  0.00    +0.000 HD
ENDBRANCH  13  14
ENDBRANCH   1  13
BRANCH   3  16
ATOM     16  C   UNL     1       1.744   7.724  18.255  0.00  0.00    +0.000 C 
BRANCH  16  17
ATOM     17  N   UNL     1       1.869   9.035  18.936  0.00  0.00    +0.000 NA
ATOM     18  C   UNL     1       1.621  10.140  17.991  0.00  0.00    +0.000 C 
ATOM     19  C   UNL     1       1.571  11.518  18.659  0.00  0.00    +0.000 C 
ATOM     20  C   UNL     1       0.584  11.589  19.826  0.00  0.00    +0.000 C 
ATOM     21  C   UNL     1       0.845  10.425  20.782  0.00  0.00    +0.000 C 
ATOM     22  C   UNL     1       0.921   9.071  20.070  0.00  0.00    +0.000 C 
BRANCH  20  23
ATOM     23  C   UNL     1      -0.862  11.685  19.374  0.00  0.00    +0.000 A 
ATOM     24  N   UNL     1      -1.176  11.360  18.106  0.00  0.00    +0.000 NA
ATOM     25  C   UNL     1      -2.469  11.479  17.746  0.00  0.00    +0.000 A 
ATOM     26  C   UNL     1      -3.456  11.903  18.600  0.00  0.00    +0.000 A 
ATOM     27  C   UNL     1      -3.041  12.209  19.872  0.00  0.00    +0.000 A 
ATOM     28  N   UNL     1      -1.762  12.111  20.283  0.00  0.00    +0.000 NA
ENDBRANCH  20  23
ENDBRANCH  16  17
ENDBRANCH   3  16
TORSDOF 5
ENDMDL
MODEL 9
REMARK VINA RESULT:      -7.3      2.612      4.370
REMARK  Name = 
REMARK  5 active torsions:
REMARK  status: ('A' for Active; 'I' for Inactive)
REMARK    1  A    between atoms: C_2  and  O_3
REMARK    2  A    between atoms: C_2  and  C_4
REMARK    3  A    between atoms: C_6  and  C_7
REMARK    4  A    between atoms: C_7  and  N_8
REMARK    5  A    between atoms: C_11  and  C_12
REMARK                            x       y       z     vdW  Elec       q    Type
REMARK                         _______ _______ _______ _____ _____    ______ ____
ROOT
ATOM      1  C   UNL     1       4.827   6.116  17.751  0.00  0.00    +0.000 A 
ATOM      2  C   UNL     1       3.791   6.771  18.305  0.00  0.00    +0.000 A 
ATOM      3  C   UNL     1       2.937   6.171  19.326  0.00  0.00    +0.000 A 
ATOM      4  C   UNL     1       3.193   4.902  19.730  0.00  0.00    +0.000 A 
ATOM      5  C   UNL     1       2.387   4.229  20.751  0.00  0.00    +0.000 A 
ATOM      6  C   UNL     1       2.646   2.970  21.128  0.00  0.00    +0.000 A 
ATOM      7  C   UNL     1       3.736   2.267  20.518  0.00  0.00    +0.000 A 
ATOM      8  C   UNL     1       4.481   2.882  19.590  0.00  0.00    +0.000 A 
ATOM      9  N   UNL     1       4.269   4.190  19.162  0.00  0.00    +0.000 N 
ATOM     10  C   UNL     1       5.105   4.727  18.189  0.00  0.00    +0.000 A 
ATOM     11  O   UNL     1       6.053   4.128  17.670  0.00  0.00    +0.000 OA
ENDROOT
BRANCH   1  13
ATOM     12  O   UNL     1       6.686   7.390  16.985  0.00  0.00    +0.000 OA
ATOM     13  C   UNL     1       5.648   6.800  16.725  0.00  0.00    +0.000 C 
BRANCH  13  14
ATOM     14  O   UNL     1       5.175   6.721  15.460  0.00  0.00    +0.000 OA
ATOM     15  H   UNL     1       5.529   5.962  14.940  0.00  0.00    +0.000 HD
ENDBRANCH  13  14
ENDBRANCH   1  13
BRANCH   3  16
ATOM     16  C   UNL     1       1.730   7.003  19.761  0.00  0.00    +0.000 C 
BRANCH  16  17
ATOM     17  N   UNL     1       1.863   8.472  19.606  0.00  0.00    +0.000 NA
ATOM     18  C   UNL     1       1.642   8.871  18.204  0.00  0.00    +0.000 C 
ATOM     19  C   UNL     1       1.602  10.389  17.999  0.00  0.00    +0.000 C 
ATOM     20  C   UNL     1       0.601  11.097  18.914  0.00  0.00    +0.000 C 
ATOM     21  C   UNL     1       0.834  10.653  20.359  0.00  0.00    +0.000 C 
ATOM     22  C   UNL     1       0.901   9.131  20.514  0.00  0.00    +0.000 C 
BRANCH  20  23
ATOM     23  C   UNL     1      -0.838  10.933  18.458  0.00  0.00    +0.000 A 
ATOM     24  N   UNL     1      -1.127  10.016  17.515  0.00  0.00    +0.000 NA
ATOM     25  C   UNL     1      -2.414   9.920  17.130  0.00  0.00    +0.000 A 
ATOM     26  C   UNL     1      -3.420  10.696  17.649  0.00  0.00    +0.000 A 
ATOM     27  C   UNL     1      -3.030  11.599  18.606  0.00  0.00    +0.000 A 
ATOM     28  N   UNL     1      -1.758  11.739  19.026  0.00  0.00    +0.000 NA
ENDBRANCH  20  23
ENDBRANCH  16  17
ENDBRANCH   3  16
TORSDOF 5
ENDMDL
