MODEL 1
REMARK VINA RESULT:      -8.7      0.000      0.000
REMARK  Name = 
REMARK  8 active torsions:
REMARK  status: ('A' for Active; 'I' for Inactive)
REMARK    1  A    between atoms: C_1  and  C_2
REMARK    2  A    between atoms: C_2  and  C_3
REMARK    3  A    between atoms: C_3  and  C_4
REMARK    4  A    between atoms: C_4  and  N_5
REMARK    5  A    between atoms: C_13  and  C_15
REMARK    6  A    between atoms: C_15  and  O_16
REMARK    7  A    between atoms: O_16  and  C_17
REMARK    8  A    between atoms: C_17  and  C_18
REMARK                            x       y       z     vdW  Elec       q    Type
REMARK                         _______ _______ _______ _____ _____    ______ ____
ROOT
ATOM      1  N   UNL     1       2.826   3.639  18.529  0.00  0.00    +0.000 N 
ATOM      2  C   UNL     1       2.006   4.543  17.866  0.00  0.00    +0.000 C 
ATOM      3  O   UNL     1       1.011   4.219  17.223  0.00  0.00    +0.000 OA
ATOM      4  C   UNL     1       2.297   5.996  18.183  0.00  0.00    +0.000 C 
ATOM      5  C   UNL     1       3.769   6.335  18.308  0.00  0.00    +0.000 C 
ATOM      6  C   UNL     1       4.525   5.297  19.150  0.00  0.00    +0.000 C 
ATOM      7  C   UNL     1       6.025   5.553  19.141  0.00  0.00    +0.000 C 
ATOM      8  N   UNL     1       6.518   5.565  17.773  0.00  0.00    +0.000 N 
ATOM      9  C   UNL     1       7.419   6.505  17.272  0.00  0.00    +0.000 C 
ATOM     10  O   UNL     1       7.838   6.458  16.118  0.00  0.00    +0.000 OA
ATOM     11  C   UNL     1       6.202   4.419  16.923  0.00  0.00    +0.000 C 
ATOM     12  C   UNL     1       4.955   3.605  17.278  0.00  0.00    +0.000 C 
ATOM     13  C   UNL     1       4.270   3.888  18.626  0.00  0.00    +0.000 C 
ENDROOT
BRANCH   1  14
ATOM     14  C   UNL     1       2.303   2.318  18.868  0.00  0.00    +0.000 C 
BRANCH  14  15
ATOM     15  C   UNL     1       1.019   2.422  19.704  0.00  0.00    +0.000 C 
BRANCH  15  17
ATOM     16  C   UNL     1       2.615   2.449  21.662  0.00  0.00    +0.000 C 
ATOM     17  C   UNL     1       1.266   2.914  21.135  0.00  0.00    +0.000 C 
ENDBRANCH  15  17
ENDBRANCH  14  15
ENDBRANCH   1  14
BRANCH   9  18
ATOM     18  C   UNL     1       7.919   7.601  18.221  0.00  0.00    +0.000 C 
BRANCH  18  19
ATOM     19  O   UNL     1       8.426   8.757  17.567  0.00  0.00    +0.000 OA
BRANCH  19  20
ATOM     20  C   UNL     1       8.041   9.960  18.238  0.00  0.00    +0.000 C 
BRANCH  20  21
ATOM     21  C   UNL     1       9.281  10.648  18.741  0.00  0.00    +0.000 A 
ATOM     22  C   UNL     1      10.339  10.947  17.870  0.00  0.00    +0.000 A 
ATOM     23  C   UNL     1      11.483  11.592  18.342  0.00  0.00    +0.000 A 
ATOM     24  C   UNL     1      11.580  11.945  19.686  0.00  0.00    +0.000 A 
ATOM     25  C   UNL     1      10.534  11.655  20.559  0.00  0.00    +0.000 A 
ATOM     26  C   UNL     1       9.390  11.011  20.090  0.00  0.00    +0.000 A 
ENDBRANCH  20  21
ENDBRANCH  19  20
ENDBRANCH  18  19
ENDBRANCH   9  18
TORSDOF 7
ENDMDL
MODEL 2
REMARK VINA RESULT:      -8.7      0.412      1.032
REMARK  Name = 
REMARK  8 active torsions:
REMARK  status: ('A' for Active; 'I' for Inactive)
REMARK    1  A    between atoms: C_1  and  C_2
REMARK    2  A    between atoms: C_2  and  C_3
REMARK    3  A    between atoms: C_3  and  C_4
REMARK    4  A    between atoms: C_4  and  N_5
REMARK    5  A    between atoms: C_13  and  C_15
REMARK    6  A    between atoms: C_15  and  O_16
REMARK    7  A    between atoms: O_16  and  C_17
REMARK    8  A    between atoms: C_17  and  C_18
REMARK                            x       y       z     vdW  Elec       q    Type
REMARK                         _______ _______ _______ _____ _____    ______ ____
ROOT
ATOM      1  N   UNL     1       2.793   3.544  18.298  0.00  0.00    +0.000 N 
ATOM      2  C   UNL     1       1.966   4.510  17.739  0.00  0.00    +0.000 C 
ATOM      3  O   UNL     1       0.961   4.252  17.081  0.00  0.00    +0.000 OA
ATOM      4  C   UNL     1       2.265   5.924  18.192  0.00  0.00    +0.000 C 
ATOM      5  C   UNL     1       3.739   6.248  18.330  0.00  0.00    +0.000 C 
ATOM      6  C   UNL     1       4.504   5.132  19.055  0.00  0.00    +0.000 C 
ATOM      7  C   UNL     1       6.005   5.386  19.050  0.00  0.00    +0.000 C 
ATOM      8  N   UNL     1       6.479   5.531  17.683  0.00  0.00    +0.000 N 
ATOM      9  C   UNL     1       7.375   6.515  17.263  0.00  0.00    +0.000 C 
ATOM     10  O   UNL     1       7.778   6.581  16.105  0.00  0.00    +0.000 OA
ATOM     11  C   UNL     1       6.148   4.475  16.729  0.00  0.00    +0.000 C 
ATOM     12  C   UNL     1       4.904   3.631  17.020  0.00  0.00    +0.000 C 
ATOM     13  C   UNL     1       4.239   3.782  18.399  0.00  0.00    +0.000 C 
ENDROOT
BRANCH   1  14
ATOM     14  C   UNL     1       2.271   2.197  18.514  0.00  0.00    +0.000 C 
BRANCH  14  15
ATOM     15  C   UNL     1       2.088   1.901  20.009  0.00  0.00    +0.000 C 
BRANCH  15  17
ATOM     16  C   UNL     1       2.126   3.732  21.749  0.00  0.00    +0.000 C 
ATOM     17  C   UNL     1       1.274   2.972  20.744  0.00  0.00    +0.000 C 
ENDBRANCH  15  17
ENDBRANCH  14  15
ENDBRANCH   1  14
BRANCH   9  18
ATOM     18  C   UNL     1       7.891   7.512  18.309  0.00  0.00    +0.000 C 
BRANCH  18  19
ATOM     19  O   UNL     1       8.505   8.671  17.761  0.00  0.00    +0.000 OA
BRANCH  19  20
ATOM     20  C   UNL     1       8.119   9.859  18.458  0.00  0.00    +0.000 C 
BRANCH  20  21
ATOM     21  C   UNL     1       9.360  10.633  18.811  0.00  0.00    +0.000 A 
ATOM     22  C   UNL     1       9.575  11.085  20.121  0.00  0.00    +0.000 A 
ATOM     23  C   UNL     1      10.732  11.795  20.443  0.00  0.00    +0.000 A 
ATOM     24  C   UNL     1      11.685  12.059  19.462  0.00  0.00    +0.000 A 
ATOM     25  C   UNL     1      11.482  11.614  18.157  0.00  0.00    +0.000 A 
ATOM     26  C   UNL     1      10.327  10.903  17.833  0.00  0.00    +0.000 A 
ENDBRANCH  20  21
ENDBRANCH  19  20
ENDBRANCH  18  19
ENDBRANCH   9  18
TORSDOF 7
ENDMDL
MODEL 3
REMARK VINA RESULT:      -8.6      0.877      1.266
REMARK  Name = 
REMARK  8 active torsions:
REMARK  status: ('A' for Active; 'I' for Inactive)
REMARK    1  A    between atoms: C_1  and  C_2
REMARK    2  A    between atoms: C_2  and  C_3
REMARK    3  A    between atoms: C_3  and  C_4
REMARK    4  A    between atoms: C_4  and  N_5
REMARK    5  A    between atoms: C_13  and  C_15
REMARK    6  A    between atoms: C_15  and  O_16
REMARK    7  A    between atoms: O_16  and  C_17
REMARK    8  A    between atoms: C_17  and  C_18
REMARK                            x       y       z     vdW  Elec       q    Type
REMARK                         _______ _______ _______ _____ _____    ______ ____
ROOT
ATOM      1  N   UNL     1       2.862   3.575  18.274  0.00  0.00    +0.000 N 
ATOM      2  C   UNL     1       2.035   4.574  17.778  0.00  0.00    +0.000 C 
ATOM      3  O   UNL     1       1.026   4.357  17.112  0.00  0.00    +0.000 OA
ATOM      4  C   UNL     1       2.341   5.959  18.310  0.00  0.00    +0.000 C 
ATOM      5  C   UNL     1       3.818   6.269  18.457  0.00  0.00    +0.000 C 
ATOM      6  C   UNL     1       4.583   5.111  19.112  0.00  0.00    +0.000 C 
ATOM      7  C   UNL     1       6.085   5.360  19.113  0.00  0.00    +0.000 C 
ATOM      8  N   UNL     1       6.552   5.583  17.753  0.00  0.00    +0.000 N 
ATOM      9  C   UNL     1       7.448   6.586  17.385  0.00  0.00    +0.000 C 
ATOM     10  O   UNL     1       7.844   6.718  16.231  0.00  0.00    +0.000 OA
ATOM     11  C   UNL     1       6.211   4.585  16.742  0.00  0.00    +0.000 C 
ATOM     12  C   UNL     1       4.966   3.729  16.991  0.00  0.00    +0.000 C 
ATOM     13  C   UNL     1       4.309   3.802  18.380  0.00  0.00    +0.000 C 
ENDROOT
BRANCH   1  14
ATOM     14  C   UNL     1       2.337   2.219  18.415  0.00  0.00    +0.000 C 
BRANCH  14  15
ATOM     15  C   UNL     1       1.374   2.112  19.606  0.00  0.00    +0.000 C 
BRANCH  15  17
ATOM     16  C   UNL     1       1.984   3.614  21.545  0.00  0.00    +0.000 C 
ATOM     17  C   UNL     1       2.078   2.210  20.965  0.00  0.00    +0.000 C 
ENDBRANCH  15  17
ENDBRANCH  14  15
ENDBRANCH   1  14
BRANCH   9  18
ATOM     18  C   UNL     1       7.974   7.520  18.484  0.00  0.00    +0.000 C 
BRANCH  18  19
ATOM     19  O   UNL     1       8.304   8.827  18.034  0.00  0.00    +0.000 OA
BRANCH  19  20
ATOM     20  C   UNL     1       9.005   9.573  19.032  0.00  0.00    +0.000 C 
BRANCH  20  21
ATOM     21  C   UNL     1       9.488  10.860  18.420  0.00  0.00    +0.000 A 
ATOM     22  C   UNL     1       8.578  11.800  17.916  0.00  0.00    +0.000 A 
ATOM     23  C   UNL     1       9.032  12.995  17.356  0.00  0.00    +0.000 A 
ATOM     24  C   UNL     1      10.398  13.263  17.297  0.00  0.00    +0.000 A 
ATOM     25  C   UNL     1      11.311  12.336  17.796  0.00  0.00    +0.000 A 
ATOM     26  C   UNL     1      10.859  11.142  18.356  0.00  0.00    +0.000 A 
ENDBRANCH  20  21
ENDBRANCH  19  20
ENDBRANCH  18  19
ENDBRANCH   9  18
TORSDOF 7
ENDMDL
MODEL 4
REMARK VINA RESULT:      -8.0      3.853      7.391
REMARK  Name = 
REMARK  8 active torsions:
REMARK  status: ('A' for Active; 'I' for Inactive)
REMARK    1  A    between atoms: C_1  and  C_2
REMARK    2  A    between atoms: C_2  and  C_3
REMARK    3  A    between atoms: C_3  and  C_4
REMARK    4  A    between atoms: C_4  and  N_5
REMARK    5  A    between atoms: C_13  and  C_15
REMARK    6  A    between atoms: C_15  and  O_16
REMARK    7  A    between atoms: O_16  and  C_17
REMARK    8  A    between atoms: C_17  and  C_18
REMARK                            x       y       z     vdW  Elec       q    Type
REMARK                         _______ _______ _______ _____ _____    ______ ____
ROOT
ATOM      1  N   UNL     1       6.008   4.324  16.397  0.00  0.00    +0.000 N 
ATOM      2  C   UNL     1       6.961   4.675  17.345  0.00  0.00    +0.000 C 
ATOM      3  O   UNL     1       8.109   4.238  17.352  0.00  0.00    +0.000 OA
ATOM      4  C   UNL     1       6.551   5.819  18.248  0.00  0.00    +0.000 C 
ATOM      5  C   UNL     1       5.098   5.797  18.680  0.00  0.00    +0.000 C 
ATOM      6  C   UNL     1       4.157   5.495  17.505  0.00  0.00    +0.000 C 
ATOM      7  C   UNL     1       2.718   5.317  17.969  0.00  0.00    +0.000 C 
ATOM      8  N   UNL     1       2.647   4.264  18.970  0.00  0.00    +0.000 N 
ATOM      9  C   UNL     1       1.908   4.351  20.150  0.00  0.00    +0.000 C 
ATOM     10  O   UNL     1       1.847   3.424  20.953  0.00  0.00    +0.000 OA
ATOM     11  C   UNL     1       3.231   2.965  18.639  0.00  0.00    +0.000 C 
ATOM     12  C   UNL     1       4.341   2.943  17.584  0.00  0.00    +0.000 C 
ATOM     13  C   UNL     1       4.592   4.228  16.777  0.00  0.00    +0.000 C 
ENDROOT
BRANCH   1  14
ATOM     14  C   UNL     1       6.444   3.777  15.115  0.00  0.00    +0.000 C 
BRANCH  14  15
ATOM     15  C   UNL     1       5.454   4.122  13.993  0.00  0.00    +0.000 C 
BRANCH  15  17
ATOM     16  C   UNL     1       4.641   3.289  11.751  0.00  0.00    +0.000 C 
ATOM     17  C   UNL     1       5.855   3.542  12.632  0.00  0.00    +0.000 C 
ENDBRANCH  15  17
ENDBRANCH  14  15
ENDBRANCH   1  14
BRANCH   9  18
ATOM     18  C   UNL     1       1.122   5.642  20.413  0.00  0.00    +0.000 C 
BRANCH  18  19
ATOM     19  O   UNL     1       1.905   6.711  20.927  0.00  0.00    +0.000 OA
BRANCH  19  20
ATOM     20  C   UNL     1       1.809   7.882  20.111  0.00  0.00    +0.000 C 
BRANCH  20  21
ATOM     21  C   UNL     1       0.984   8.909  20.840  0.00  0.00    +0.000 A 
ATOM     22  C   UNL     1       0.699   8.762  22.205  0.00  0.00    +0.000 A 
ATOM     23  C   UNL     1      -0.059   9.721  22.877  0.00  0.00    +0.000 A 
ATOM     24  C   UNL     1      -0.538  10.836  22.192  0.00  0.00    +0.000 A 
ATOM     25  C   UNL     1      -0.258  10.993  20.836  0.00  0.00    +0.000 A 
ATOM     26  C   UNL     1       0.500  10.035  20.163  0.00  0.00    +0.000 A 
ENDBRANCH  20  21
ENDBRANCH  19  20
ENDBRANCH  18  19
ENDBRANCH   9  18
TORSDOF 7
ENDMDL
MODEL 5
REMARK VINA RESULT:      -7.9      3.860      7.429
REMARK  Name = 
REMARK  8 active torsions:
REMARK  status: ('A' for Active; 'I' for Inactive)
REMARK    1  A    between atoms: C_1  and  C_2
REMARK    2  A    between atoms: C_2  and  C_3
REMARK    3  A    between atoms: C_3  and  C_4
REMARK    4  A    between atoms: C_4  and  N_5
REMARK    5  A    between atoms: C_13  and  C_15
REMARK    6  A    between atoms: C_15  and  O_16
REMARK    7  A    between atoms: O_16  and  C_17
REMARK    8  A    between atoms: C_17  and  C_18
REMARK                            x       y       z     vdW  Elec       q    Type
REMARK                         _______ _______ _______ _____ _____    ______ ____
ROOT
ATOM      1  N   UNL     1       5.915   4.312  16.264  0.00  0.00    +0.000 N 
ATOM      2  C   UNL     1       6.875   4.739  17.172  0.00  0.00    +0.000 C 
ATOM      3  O   UNL     1       8.043   4.358  17.160  0.00  0.00    +0.000 OA
ATOM      4  C   UNL     1       6.435   5.892  18.049  0.00  0.00    +0.000 C 
ATOM      5  C   UNL     1       4.997   5.815  18.523  0.00  0.00    +0.000 C 
ATOM      6  C   UNL     1       4.040   5.429  17.386  0.00  0.00    +0.000 C 
ATOM      7  C   UNL     1       2.625   5.198  17.898  0.00  0.00    +0.000 C 
ATOM      8  N   UNL     1       2.633   4.177  18.933  0.00  0.00    +0.000 N 
ATOM      9  C   UNL     1       1.923   4.268  20.131  0.00  0.00    +0.000 C 
ATOM     10  O   UNL     1       1.929   3.367  20.965  0.00  0.00    +0.000 OA
ATOM     11  C   UNL     1       3.270   2.898  18.627  0.00  0.00    +0.000 C 
ATOM     12  C   UNL     1       4.350   2.893  17.542  0.00  0.00    +0.000 C 
ATOM     13  C   UNL     1       4.517   4.161  16.687  0.00  0.00    +0.000 C 
ENDROOT
BRANCH   1  14
ATOM     14  C   UNL     1       6.342   3.744  14.988  0.00  0.00    +0.000 C 
BRANCH  14  15
ATOM     15  C   UNL     1       5.333   4.051  13.872  0.00  0.00    +0.000 C 
BRANCH  15  17
ATOM     16  C   UNL     1       7.103   3.998  12.071  0.00  0.00    +0.000 C 
ATOM     17  C   UNL     1       5.743   3.478  12.510  0.00  0.00    +0.000 C 
ENDBRANCH  15  17
ENDBRANCH  14  15
ENDBRANCH   1  14
BRANCH   9  18
ATOM     18  C   UNL     1       1.082   5.528  20.375  0.00  0.00    +0.000 C 
BRANCH  18  19
ATOM     19  O   UNL     1       1.778   6.578  21.033  0.00  0.00    +0.000 OA
BRANCH  19  20
ATOM     20  C   UNL     1       1.800   7.775  20.250  0.00  0.00    +0.000 C 
BRANCH  20  21
ATOM     21  C   UNL     1       0.938   8.807  20.925  0.00  0.00    +0.000 A 
ATOM     22  C   UNL     1       0.227   9.752  20.172  0.00  0.00    +0.000 A 
ATOM     23  C   UNL     1      -0.577  10.701  20.804  0.00  0.00    +0.000 A 
ATOM     24  C   UNL     1      -0.679  10.714  22.194  0.00  0.00    +0.000 A 
ATOM     25  C   UNL     1       0.022   9.778  22.952  0.00  0.00    +0.000 A 
ATOM     26  C   UNL     1       0.825   8.829  22.322  0.00  0.00    +0.000 A 
ENDBRANCH  20  21
ENDBRANCH  19  20
ENDBRANCH  18  19
ENDBRANCH   9  18
TORSDOF 7
ENDMDL
MODEL 6
REMARK VINA RESULT:      -7.8      3.859      7.128
REMARK  Name = 
REMARK  8 active torsions:
REMARK  status: ('A' for Active; 'I' for Inactive)
REMARK    1  A    between atoms: C_1  and  C_2
REMARK    2  A    between atoms: C_2  and  C_3
REMARK    3  A    between atoms: C_3  and  C_4
REMARK    4  A    between atoms: C_4  and  N_5
REMARK    5  A    between atoms: C_13  and  C_15
REMARK    6  A    between atoms: C_15  and  O_16
REMARK    7  A    between atoms: O_16  and  C_17
REMARK    8  A    between atoms: C_17  and  C_18
REMARK                            x       y       z     vdW  Elec       q    Type
REMARK                         _______ _______ _______ _____ _____    ______ ____
ROOT
ATOM      1  N   UNL     1       5.849   4.239  16.184  0.00  0.00    +0.000 N 
ATOM      2  C   UNL     1       6.845   4.806  16.969  0.00  0.00    +0.000 C 
ATOM      3  O   UNL     1       8.030   4.489  16.903  0.00  0.00    +0.000 OA
ATOM      4  C   UNL     1       6.400   6.016  17.764  0.00  0.00    +0.000 C 
ATOM      5  C   UNL     1       5.007   5.910  18.354  0.00  0.00    +0.000 C 
ATOM      6  C   UNL     1       3.996   5.362  17.337  0.00  0.00    +0.000 C 
ATOM      7  C   UNL     1       2.639   5.107  17.978  0.00  0.00    +0.000 C 
ATOM      8  N   UNL     1       2.783   4.197  19.103  0.00  0.00    +0.000 N 
ATOM      9  C   UNL     1       2.158   4.369  20.338  0.00  0.00    +0.000 C 
ATOM     10  O   UNL     1       2.279   3.558  21.251  0.00  0.00    +0.000 OA
ATOM     11  C   UNL     1       3.473   2.929  18.871  0.00  0.00    +0.000 C 
ATOM     12  C   UNL     1       4.470   2.874  17.711  0.00  0.00    +0.000 C 
ATOM     13  C   UNL     1       4.497   4.057  16.728  0.00  0.00    +0.000 C 
ENDROOT
BRANCH   1  14
ATOM     14  C   UNL     1       6.216   3.570  14.939  0.00  0.00    +0.000 C 
BRANCH  14  15
ATOM     15  C   UNL     1       5.394   4.099  13.755  0.00  0.00    +0.000 C 
BRANCH  15  17
ATOM     16  C   UNL     1       4.472   3.230  11.569  0.00  0.00    +0.000 C 
ATOM     17  C   UNL     1       5.715   3.394  12.432  0.00  0.00    +0.000 C 
ENDBRANCH  15  17
ENDBRANCH  14  15
ENDBRANCH   1  14
BRANCH   9  18
ATOM     18  C   UNL     1       1.262   5.601  20.525  0.00  0.00    +0.000 C 
BRANCH  18  19
ATOM     19  O   UNL     1       1.959   6.839  20.523  0.00  0.00    +0.000 OA
BRANCH  19  20
ATOM     20  C   UNL     1       1.264   7.844  21.267  0.00  0.00    +0.000 C 
BRANCH  20  21
ATOM     21  C   UNL     1       0.961   8.997  20.349  0.00  0.00    +0.000 A 
ATOM     22  C   UNL     1       1.488   9.038  19.050  0.00  0.00    +0.000 A 
ATOM     23  C   UNL     1       1.196  10.106  18.202  0.00  0.00    +0.000 A 
ATOM     24  C   UNL     1       0.375  11.142  18.642  0.00  0.00    +0.000 A 
ATOM     25  C   UNL     1      -0.156  11.111  19.930  0.00  0.00    +0.000 A 
ATOM     26  C   UNL     1       0.134  10.043  20.779  0.00  0.00    +0.000 A 
ENDBRANCH  20  21
ENDBRANCH  19  20
ENDBRANCH  18  19
ENDBRANCH   9  18
TORSDOF 7
ENDMDL
MODEL 7
REMARK VINA RESULT:      -7.8      3.890      7.355
REMARK  Name = 
REMARK  8 active torsions:
REMARK  status: ('A' for Active; 'I' for Inactive)
REMARK    1  A    between atoms: C_1  and  C_2
REMARK    2  A    between atoms: C_2  and  C_3
REMARK    3  A    between atoms: C_3  and  C_4
REMARK    4  A    between atoms: C_4  and  N_5
REMARK    5  A    between atoms: C_13  and  C_15
REMARK    6  A    between atoms: C_15  and  O_16
REMARK    7  A    between atoms: O_16  and  C_17
REMARK    8  A    between atoms: C_17  and  C_18
REMARK                            x       y       z     vdW  Elec       q    Type
REMARK                         _______ _______ _______ _____ _____    ______ ____
ROOT
ATOM      1  N   UNL     1       5.629   4.213  16.326  0.00  0.00    +0.000 N 
ATOM      2  C   UNL     1       6.668   4.839  17.001  0.00  0.00    +0.000 C 
ATOM      3  O   UNL     1       7.843   4.488  16.921  0.00  0.00    +0.000 OA
ATOM      4  C   UNL     1       6.282   6.141  17.672  0.00  0.00    +0.000 C 
ATOM      5  C   UNL     1       4.915   6.134  18.327  0.00  0.00    +0.000 C 
ATOM      6  C   UNL     1       3.850   5.501  17.421  0.00  0.00    +0.000 C 
ATOM      7  C   UNL     1       2.517   5.352  18.142  0.00  0.00    +0.000 C 
ATOM      8  N   UNL     1       2.694   4.569  19.355  0.00  0.00    +0.000 N 
ATOM      9  C   UNL     1       2.126   4.893  20.587  0.00  0.00    +0.000 C 
ATOM     10  O   UNL     1       2.272   4.186  21.580  0.00  0.00    +0.000 OA
ATOM     11  C   UNL     1       3.348   3.268  19.239  0.00  0.00    +0.000 C 
ATOM     12  C   UNL     1       4.292   3.059  18.052  0.00  0.00    +0.000 C 
ATOM     13  C   UNL     1       4.299   4.125  16.942  0.00  0.00    +0.000 C 
ENDROOT
BRANCH   1  14
ATOM     14  C   UNL     1       5.928   3.400  15.150  0.00  0.00    +0.000 C 
BRANCH  14  15
ATOM     15  C   UNL     1       6.060   4.267  13.889  0.00  0.00    +0.000 C 
BRANCH  15  17
ATOM     16  C   UNL     1       4.810   3.377  11.882  0.00  0.00    +0.000 C 
ATOM     17  C   UNL     1       6.151   3.446  12.597  0.00  0.00    +0.000 C 
ENDBRANCH  15  17
ENDBRANCH  14  15
ENDBRANCH   1  14
BRANCH   9  18
ATOM     18  C   UNL     1       1.263   6.159  20.672  0.00  0.00    +0.000 C 
BRANCH  18  19
ATOM     19  O   UNL     1       1.999   7.374  20.630  0.00  0.00    +0.000 OA
BRANCH  19  20
ATOM     20  C   UNL     1       1.380   8.399  21.413  0.00  0.00    +0.000 C 
BRANCH  20  21
ATOM     21  C   UNL     1       0.680   9.356  20.486  0.00  0.00    +0.000 A 
ATOM     22  C   UNL     1      -0.330  10.205  20.960  0.00  0.00    +0.000 A 
ATOM     23  C   UNL     1      -0.969  11.095  20.096  0.00  0.00    +0.000 A 
ATOM     24  C   UNL     1      -0.604  11.147  18.753  0.00  0.00    +0.000 A 
ATOM     25  C   UNL     1       0.400  10.309  18.272  0.00  0.00    +0.000 A 
ATOM     26  C   UNL     1       1.040   9.419  19.133  0.00  0.00    +0.000 A 
ENDBRANCH  20  21
ENDBRANCH  19  20
ENDBRANCH  18  19
ENDBRANCH   9  18
TORSDOF 7
ENDMDL
MODEL 8
REMARK VINA RESULT:      -7.8      4.163      7.708
REMARK  Name = 
REMARK  8 active torsions:
REMARK  status: ('A' for Active; 'I' for Inactive)
REMARK    1  A    between atoms: C_1  and  C_2
REMARK    2  A    between atoms: C_2  and  C_3
REMARK    3  A    between atoms: C_3  and  C_4
REMARK    4  A    between atoms: C_4  and  N_5
REMARK    5  A    between atoms: C_13  and  C_15
REMARK    6  A    between atoms: C_15  and  O_16
REMARK    7  A    between atoms: O_16  and  C_17
REMARK    8  A    between atoms: C_17  and  C_18
REMARK                            x       y       z     vdW  Elec       q    Type
REMARK                         _______ _______ _______ _____ _____    ______ ____
ROOT
ATOM      1  N   UNL     1       6.452   5.158  15.921  0.00  0.00    +0.000 N 
ATOM      2  C   UNL     1       7.369   4.960  16.946  0.00  0.00    +0.000 C 
ATOM      3  O   UNL     1       8.260   4.115  16.911  0.00  0.00    +0.000 OA
ATOM      4  C   UNL     1       7.337   6.022  18.025  0.00  0.00    +0.000 C 
ATOM      5  C   UNL     1       5.949   6.503  18.401  0.00  0.00    +0.000 C 
ATOM      6  C   UNL     1       5.083   6.774  17.162  0.00  0.00    +0.000 C 
ATOM      7  C   UNL     1       3.647   7.102  17.542  0.00  0.00    +0.000 C 
ATOM      8  N   UNL     1       3.085   6.021  18.336  0.00  0.00    +0.000 N 
ATOM      9  C   UNL     1       2.322   6.208  19.489  0.00  0.00    +0.000 C 
ATOM     10  O   UNL     1       1.836   5.268  20.112  0.00  0.00    +0.000 OA
ATOM     11  C   UNL     1       3.162   4.665  17.797  0.00  0.00    +0.000 C 
ATOM     12  C   UNL     1       4.279   4.373  16.791  0.00  0.00    +0.000 C 
ATOM     13  C   UNL     1       5.076   5.565  16.234  0.00  0.00    +0.000 C 
ENDROOT
BRANCH   1  14
ATOM     14  C   UNL     1       6.772   4.687  14.577  0.00  0.00    +0.000 C 
BRANCH  14  15
ATOM     15  C   UNL     1       5.608   3.888  13.972  0.00  0.00    +0.000 C 
BRANCH  15  17
ATOM     16  C   UNL     1       4.620   3.221  11.745  0.00  0.00    +0.000 C 
ATOM     17  C   UNL     1       5.897   3.373  12.557  0.00  0.00    +0.000 C 
ENDBRANCH  15  17
ENDBRANCH  14  15
ENDBRANCH   1  14
BRANCH   9  18
ATOM     18  C   UNL     1       2.061   7.647  19.954  0.00  0.00    +0.000 C 
BRANCH  18  19
ATOM     19  O   UNL     1       0.946   7.789  20.824  0.00  0.00    +0.000 OA
BRANCH  19  20
ATOM     20  C   UNL     1       1.224   8.684  21.905  0.00  0.00    +0.000 C 
BRANCH  20  21
ATOM     21  C   UNL     1       0.202   9.789  21.888  0.00  0.00    +0.000 A 
ATOM     22  C   UNL     1      -0.113  10.456  20.695  0.00  0.00    +0.000 A 
ATOM     23  C   UNL     1      -1.067  11.475  20.685  0.00  0.00    +0.000 A 
ATOM     24  C   UNL     1      -1.716  11.834  21.864  0.00  0.00    +0.000 A 
ATOM     25  C   UNL     1      -1.411  11.176  23.055  0.00  0.00    +0.000 A 
ATOM     26  C   UNL     1      -0.459  10.158  23.067  0.00  0.00    +0.000 A 
ENDBRANCH  20  21
ENDBRANCH  19  20
ENDBRANCH  18  19
ENDBRANCH   9  18
TORSDOF 7
ENDMDL
MODEL 9
REMARK VINA RESULT:      -7.8      3.886      7.323
REMARK  Name = 
REMARK  8 active torsions:
REMARK  status: ('A' for Active; 'I' for Inactive)
REMARK    1  A    between atoms: C_1  and  C_2
REMARK    2  A    between atoms: C_2  and  C_3
REMARK    3  A    between atoms: C_3  and  C_4
REMARK    4  A    between atoms: C_4  and  N_5
REMARK    5  A    between atoms: C_13  and  C_15
REMARK    6  A    between atoms: C_15  and  O_16
REMARK    7  A    between atoms: O_16  and  C_17
REMARK    8  A    between atoms: C_17  and  C_18
REMARK                            x       y       z     vdW  Elec       q    Type
REMARK                         _______ _______ _______ _____ _____    ______ ____
ROOT
ATOM      1  N   UNL     1       6.185   4.643  16.179  0.00  0.00    +0.000 N 
ATOM      2  C   UNL     1       7.222   4.875  17.072  0.00  0.00    +0.000 C 
ATOM      3  O   UNL     1       8.221   4.164  17.158  0.00  0.00    +0.000 OA
ATOM      4  C   UNL     1       7.145   6.209  17.785  0.00  0.00    +0.000 C 
ATOM      5  C   UNL     1       5.748   6.626  18.201  0.00  0.00    +0.000 C 
ATOM      6  C   UNL     1       4.727   6.403  17.076  0.00  0.00    +0.000 C 
ATOM      7  C   UNL     1       3.305   6.672  17.548  0.00  0.00    +0.000 C 
ATOM      8  N   UNL     1       2.997   5.836  18.697  0.00  0.00    +0.000 N 
ATOM      9  C   UNL     1       2.340   6.286  19.842  0.00  0.00    +0.000 C 
ATOM     10  O   UNL     1       2.068   5.537  20.776  0.00  0.00    +0.000 OA
ATOM     11  C   UNL     1       3.219   4.396  18.573  0.00  0.00    +0.000 C 
ATOM     12  C   UNL     1       4.255   3.931  17.546  0.00  0.00    +0.000 C 
ATOM     13  C   UNL     1       4.803   4.972  16.555  0.00  0.00    +0.000 C 
ENDROOT
BRANCH   1  14
ATOM     14  C   UNL     1       6.428   3.816  15.001  0.00  0.00    +0.000 C 
BRANCH  14  15
ATOM     15  C   UNL     1       5.466   4.173  13.858  0.00  0.00    +0.000 C 
BRANCH  15  17
ATOM     16  C   UNL     1       4.546   3.314  11.667  0.00  0.00    +0.000 C 
ATOM     17  C   UNL     1       5.778   3.434  12.551  0.00  0.00    +0.000 C 
ENDBRANCH  15  17
ENDBRANCH  14  15
ENDBRANCH   1  14
BRANCH   9  18
ATOM     18  C   UNL     1       1.918   7.760  19.897  0.00  0.00    +0.000 C 
BRANCH  18  19
ATOM     19  O   UNL     1       1.550   8.217  21.192  0.00  0.00    +0.000 OA
BRANCH  19  20
ATOM     20  C   UNL     1       0.194   8.670  21.232  0.00  0.00    +0.000 C 
BRANCH  20  21
ATOM     21  C   UNL     1       0.105   9.984  20.504  0.00  0.00    +0.000 A 
ATOM     22  C   UNL     1      -0.741  10.133  19.395  0.00  0.00    +0.000 A 
ATOM     23  C   UNL     1      -0.825  11.357  18.729  0.00  0.00    +0.000 A 
ATOM     24  C   UNL     1      -0.067  12.441  19.165  0.00  0.00    +0.000 A 
ATOM     25  C   UNL     1       0.775  12.304  20.267  0.00  0.00    +0.000 A 
ATOM     26  C   UNL     1       0.860  11.083  20.934  0.00  0.00    +0.000 A 
ENDBRANCH  20  21
ENDBRANCH  19  20
ENDBRANCH  18  19
ENDBRANCH   9  18
TORSDOF 7
ENDMDL
