MODEL 1
REMARK VINA RESULT:      -7.4      0.000      0.000
REMARK  Name = 
REMARK  5 active torsions:
REMARK  status: ('A' for Active; 'I' for Inactive)
REMARK    1  A    between atoms: N_3  and  C_4
REMARK    2  A    between atoms: C_4  and  C_5
REMARK    3  A    between atoms: C_5  and  C_6
REMARK    4  A    between atoms: C_6  and  N_7
REMARK    5  A    between atoms: N_13  and  C_14
REMARK                            x       y       z     vdW  Elec       q    Type
REMARK                         _______ _______ _______ _____ _____    ______ ____
ROOT
ATOM      1  O   UNL     1       4.277   5.438  17.611  0.00  0.00    +0.000 OA
ATOM      2  C   UNL     1       4.595   4.370  18.111  0.00  0.00    +0.000 C 
ATOM      3  N   UNL     1       5.884   3.986  18.390  0.00  0.00    +0.000 N 
ATOM      4  N   UNL     1       3.722   3.361  18.416  0.00  0.00    +0.000 N 
ATOM      5  H   UNL     1       5.986   3.332  19.150  0.00  0.00    +0.000 HD
ATOM      6  H   UNL     1       4.118   2.507  18.773  0.00  0.00    +0.000 HD
ENDROOT
BRANCH   4   7
ATOM      7  C   UNL     1       2.282   3.420  18.195  0.00  0.00    +0.000 C 
ATOM      8  C   UNL     1       1.595   2.237  18.891  0.00  0.00    +0.000 C 
ATOM      9  C   UNL     1       1.654   2.336  20.418  0.00  0.00    +0.000 C 
ATOM     10  C   UNL     1       1.140   3.678  20.931  0.00  0.00    +0.000 C 
ATOM     11  C   UNL     1       1.786   4.866  20.222  0.00  0.00    +0.000 C 
ATOM     12  C   UNL     1       1.690   4.742  18.702  0.00  0.00    +0.000 C 
ENDBRANCH   4   7
BRANCH   3  13
ATOM     13  C   UNL     1       7.026   4.838  18.111  0.00  0.00    +0.000 C 
BRANCH  13  14
ATOM     14  C   UNL     1       7.607   4.492  16.744  0.00  0.00    +0.000 C 
BRANCH  14  15
ATOM     15  C   UNL     1       7.045   5.383  15.642  0.00  0.00    +0.000 C 
BRANCH  15  16
ATOM     16  N   UNL     1       6.987   4.710  14.349  0.00  0.00    +0.000 N 
ATOM     17  C   UNL     1       5.815   3.994  13.903  0.00  0.00    +0.000 C 
ATOM     18  C   UNL     1       6.250   3.418  12.570  0.00  0.00    +0.000 C 
ATOM     19  C   UNL     1       7.200   4.473  12.019  0.00  0.00    +0.000 C 
ATOM     20  C   UNL     1       7.763   5.116  13.263  0.00  0.00    +0.000 C 
ATOM     21  O   UNL     1       8.696   5.902  13.288  0.00  0.00    +0.000 OA
ENDBRANCH  15  16
ENDBRANCH  14  15
ENDBRANCH  13  14
ENDBRANCH   3  13
TORSDOF 5
ENDMDL
MODEL 2
REMARK VINA RESULT:      -7.2      2.745      6.269
REMARK  Name = 
REMARK  5 active torsions:
REMARK  status: ('A' for Active; 'I' for Inactive)
REMARK    1  A    between atoms: N_3  and  C_4
REMARK    2  A    between atoms: C_4  and  C_5
REMARK    3  A    between atoms: C_5  and  C_6
REMARK    4  A    between atoms: C_6  and  N_7
REMARK    5  A    between atoms: N_13  and  C_14
REMARK                            x       y       z     vdW  Elec       q    Type
REMARK                         _______ _______ _______ _____ _____    ______ ____
ROOT
ATOM      1  O   UNL     1       3.017   7.125  17.791  0.00  0.00    +0.000 OA
ATOM      2  C   UNL     1       3.753   6.464  18.508  0.00  0.00    +0.000 C 
ATOM      3  N   UNL     1       3.405   5.956  19.736  0.00  0.00    +0.000 N 
ATOM      4  N   UNL     1       5.062   6.180  18.229  0.00  0.00    +0.000 N 
ATOM      5  H   UNL     1       3.896   5.120  20.012  0.00  0.00    +0.000 HD
ATOM      6  H   UNL     1       5.579   5.674  18.930  0.00  0.00    +0.000 HD
ENDROOT
BRANCH   4   7
ATOM      7  C   UNL     1       5.765   6.617  17.028  0.00  0.00    +0.000 C 
ATOM      8  C   UNL     1       7.246   6.221  17.113  0.00  0.00    +0.000 C 
ATOM      9  C   UNL     1       7.455   4.706  17.031  0.00  0.00    +0.000 C 
ATOM     10  C   UNL     1       6.767   4.091  15.816  0.00  0.00    +0.000 C 
ATOM     11  C   UNL     1       5.302   4.506  15.696  0.00  0.00    +0.000 C 
ATOM     12  C   UNL     1       5.134   6.024  15.762  0.00  0.00    +0.000 C 
ENDBRANCH   4   7
BRANCH   3  13
ATOM     13  C   UNL     1       2.090   6.158  20.316  0.00  0.00    +0.000 C 
BRANCH  13  14
ATOM     14  C   UNL     1       1.657   4.900  21.063  0.00  0.00    +0.000 C 
BRANCH  14  15
ATOM     15  C   UNL     1       0.959   3.902  20.146  0.00  0.00    +0.000 C 
BRANCH  15  16
ATOM     16  N   UNL     1       1.886   3.213  19.255  0.00  0.00    +0.000 N 
ATOM     17  C   UNL     1       2.510   1.960  19.608  0.00  0.00    +0.000 C 
ATOM     18  C   UNL     1       3.421   1.684  18.429  0.00  0.00    +0.000 C 
ATOM     19  C   UNL     1       2.658   2.265  17.246  0.00  0.00    +0.000 C 
ATOM     20  C   UNL     1       1.842   3.372  17.870  0.00  0.00    +0.000 C 
ATOM     21  O   UNL     1       1.210   4.213  17.252  0.00  0.00    +0.000 OA
ENDBRANCH  15  16
ENDBRANCH  14  15
ENDBRANCH  13  14
ENDBRANCH   3  13
TORSDOF 5
ENDMDL
MODEL 3
REMARK VINA RESULT:      -7.2      0.898      1.301
REMARK  Name = 
REMARK  5 active torsions:
REMARK  status: ('A' for Active; 'I' for Inactive)
REMARK    1  A    between atoms: N_3  and  C_4
REMARK    2  A    between atoms: C_4  and  C_5
REMARK    3  A    between atoms: C_5  and  C_6
REMARK    4  A    between atoms: C_6  and  N_7
REMARK    5  A    between atoms: N_13  and  C_14
REMARK                            x       y       z     vdW  Elec       q    Type
REMARK                         _______ _______ _______ _____ _____    ______ ____
ROOT
ATOM      1  O   UNL     1       4.050   6.379  17.485  0.00  0.00    +0.000 OA
ATOM      2  C   UNL     1       4.434   5.679  18.410  0.00  0.00    +0.000 C 
ATOM      3  N   UNL     1       5.741   5.315  18.628  0.00  0.00    +0.000 N 
ATOM      4  N   UNL     1       3.617   5.094  19.337  0.00  0.00    +0.000 N 
ATOM      5  H   UNL     1       5.983   5.128  19.589  0.00  0.00    +0.000 HD
ATOM      6  H   UNL     1       4.053   4.491  20.016  0.00  0.00    +0.000 HD
ENDROOT
BRANCH   4   7
ATOM      7  C   UNL     1       2.165   5.230  19.362  0.00  0.00    +0.000 C 
ATOM      8  C   UNL     1       1.525   4.213  18.407  0.00  0.00    +0.000 C 
ATOM      9  C   UNL     1       1.684   2.769  18.892  0.00  0.00    +0.000 C 
ATOM     10  C   UNL     1       1.205   2.585  20.329  0.00  0.00    +0.000 C 
ATOM     11  C   UNL     1       1.804   3.614  21.285  0.00  0.00    +0.000 C 
ATOM     12  C   UNL     1       1.608   5.042  20.779  0.00  0.00    +0.000 C 
ENDBRANCH   4   7
BRANCH   3  13
ATOM     13  C   UNL     1       6.823   5.742  17.760  0.00  0.00    +0.000 C 
BRANCH  13  14
ATOM     14  C   UNL     1       6.920   4.807  16.558  0.00  0.00    +0.000 C 
BRANCH  14  15
ATOM     15  C   UNL     1       6.135   5.330  15.361  0.00  0.00    +0.000 C 
BRANCH  15  16
ATOM     16  N   UNL     1       6.441   4.611  14.130  0.00  0.00    +0.000 N 
ATOM     17  C   UNL     1       5.446   3.850  13.412  0.00  0.00    +0.000 C 
ATOM     18  C   UNL     1       6.235   3.239  12.272  0.00  0.00    +0.000 C 
ATOM     19  C   UNL     1       7.284   4.296  11.957  0.00  0.00    +0.000 C 
ATOM     20  C   UNL     1       7.477   4.997  13.280  0.00  0.00    +0.000 C 
ATOM     21  O   UNL     1       8.357   5.807  13.525  0.00  0.00    +0.000 OA
ENDBRANCH  15  16
ENDBRANCH  14  15
ENDBRANCH  13  14
ENDBRANCH   3  13
TORSDOF 5
ENDMDL
MODEL 4
REMARK VINA RESULT:      -7.1      1.372      1.557
REMARK  Name = 
REMARK  5 active torsions:
REMARK  status: ('A' for Active; 'I' for Inactive)
REMARK    1  A    between atoms: N_3  and  C_4
REMARK    2  A    between atoms: C_4  and  C_5
REMARK    3  A    between atoms: C_5  and  C_6
REMARK    4  A    between atoms: C_6  and  N_7
REMARK    5  A    between atoms: N_13  and  C_14
REMARK                            x       y       z     vdW  Elec       q    Type
REMARK                         _______ _______ _______ _____ _____    ______ ____
ROOT
ATOM      1  O   UNL     1       4.752   3.573  17.371  0.00  0.00    +0.000 OA
ATOM      2  C   UNL     1       3.853   4.371  17.586  0.00  0.00    +0.000 C 
ATOM      3  N   UNL     1       3.965   5.735  17.459  0.00  0.00    +0.000 N 
ATOM      4  N   UNL     1       2.609   4.037  18.049  0.00  0.00    +0.000 N 
ATOM      5  H   UNL     1       3.108   6.220  17.243  0.00  0.00    +0.000 HD
ATOM      6  H   UNL     1       1.975   4.796  18.242  0.00  0.00    +0.000 HD
ENDROOT
BRANCH   4   7
ATOM      7  C   UNL     1       2.175   2.677  18.344  0.00  0.00    +0.000 C 
ATOM      8  C   UNL     1       3.184   1.994  19.278  0.00  0.00    +0.000 C 
ATOM      9  C   UNL     1       3.191   2.603  20.684  0.00  0.00    +0.000 C 
ATOM     10  C   UNL     1       1.794   2.662  21.296  0.00  0.00    +0.000 C 
ATOM     11  C   UNL     1       0.770   3.305  20.363  0.00  0.00    +0.000 C 
ATOM     12  C   UNL     1       0.778   2.659  18.978  0.00  0.00    +0.000 C 
ENDBRANCH   4   7
BRANCH   3  13
ATOM     13  C   UNL     1       5.197   6.377  17.040  0.00  0.00    +0.000 C 
BRANCH  13  14
ATOM     14  C   UNL     1       5.467   6.067  15.571  0.00  0.00    +0.000 C 
BRANCH  14  15
ATOM     15  C   UNL     1       6.798   5.352  15.373  0.00  0.00    +0.000 C 
BRANCH  15  16
ATOM     16  N   UNL     1       6.876   4.654  14.095  0.00  0.00    +0.000 N 
ATOM     17  C   UNL     1       5.783   3.865  13.577  0.00  0.00    +0.000 C 
ATOM     18  C   UNL     1       6.349   3.291  12.294  0.00  0.00    +0.000 C 
ATOM     19  C   UNL     1       7.278   4.388  11.793  0.00  0.00    +0.000 C 
ATOM     20  C   UNL     1       7.709   5.084  13.061  0.00  0.00    +0.000 C 
ATOM     21  O   UNL     1       8.593   5.922  13.139  0.00  0.00    +0.000 OA
ENDBRANCH  15  16
ENDBRANCH  14  15
ENDBRANCH  13  14
ENDBRANCH   3  13
TORSDOF 5
ENDMDL
MODEL 5
REMARK VINA RESULT:      -7.1      1.305      1.810
REMARK  Name = 
REMARK  5 active torsions:
REMARK  status: ('A' for Active; 'I' for Inactive)
REMARK    1  A    between atoms: N_3  and  C_4
REMARK    2  A    between atoms: C_4  and  C_5
REMARK    3  A    between atoms: C_5  and  C_6
REMARK    4  A    between atoms: C_6  and  N_7
REMARK    5  A    between atoms: N_13  and  C_14
REMARK                            x       y       z     vdW  Elec       q    Type
REMARK                         _______ _______ _______ _____ _____    ______ ____
ROOT
ATOM      1  O   UNL     1       5.947   3.874  19.196  0.00  0.00    +0.000 OA
ATOM      2  C   UNL     1       5.043   4.655  18.942  0.00  0.00    +0.000 C 
ATOM      3  N   UNL     1       5.168   5.769  18.147  0.00  0.00    +0.000 N 
ATOM      4  N   UNL     1       3.779   4.580  19.459  0.00  0.00    +0.000 N 
ATOM      5  H   UNL     1       4.325   6.064  17.680  0.00  0.00    +0.000 HD
ATOM      6  H   UNL     1       3.140   5.320  19.215  0.00  0.00    +0.000 HD
ENDROOT
BRANCH   4   7
ATOM      7  C   UNL     1       3.324   3.548  20.383  0.00  0.00    +0.000 C 
ATOM      8  C   UNL     1       2.049   4.010  21.101  0.00  0.00    +0.000 C 
ATOM      9  C   UNL     1       0.844   4.102  20.161  0.00  0.00    +0.000 C 
ATOM     10  C   UNL     1       0.622   2.813  19.376  0.00  0.00    +0.000 C 
ATOM     11  C   UNL     1       1.891   2.318  18.685  0.00  0.00    +0.000 C 
ATOM     12  C   UNL     1       3.066   2.220  19.658  0.00  0.00    +0.000 C 
ENDBRANCH   4   7
BRANCH   3  13
ATOM     13  C   UNL     1       6.421   6.133  17.512  0.00  0.00    +0.000 C 
BRANCH  13  14
ATOM     14  C   UNL     1       6.732   5.154  16.384  0.00  0.00    +0.000 C 
BRANCH  14  15
ATOM     15  C   UNL     1       5.815   5.355  15.183  0.00  0.00    +0.000 C 
BRANCH  15  16
ATOM     16  N   UNL     1       6.230   4.575  14.023  0.00  0.00    +0.000 N 
ATOM     17  C   UNL     1       5.304   3.771  13.261  0.00  0.00    +0.000 C 
ATOM     18  C   UNL     1       6.192   3.108  12.227  0.00  0.00    +0.000 C 
ATOM     19  C   UNL     1       7.261   4.157  11.951  0.00  0.00    +0.000 C 
ATOM     20  C   UNL     1       7.335   4.926  13.247  0.00  0.00    +0.000 C 
ATOM     21  O   UNL     1       8.188   5.754  13.526  0.00  0.00    +0.000 OA
ENDBRANCH  15  16
ENDBRANCH  14  15
ENDBRANCH  13  14
ENDBRANCH   3  13
TORSDOF 5
ENDMDL
MODEL 6
REMARK VINA RESULT:      -7.1      1.506      2.131
REMARK  Name = 
REMARK  5 active torsions:
REMARK  status: ('A' for Active; 'I' for Inactive)
REMARK    1  A    between atoms: N_3  and  C_4
REMARK    2  A    between atoms: C_4  and  C_5
REMARK    3  A    between atoms: C_5  and  C_6
REMARK    4  A    between atoms: C_6  and  N_7
REMARK    5  A    between atoms: N_13  and  C_14
REMARK                            x       y       z     vdW  Elec       q    Type
REMARK                         _______ _______ _______ _____ _____    ______ ____
ROOT
ATOM      1  O   UNL     1       4.500   6.344  18.329  0.00  0.00    +0.000 OA
ATOM      2  C   UNL     1       4.637   5.380  19.067  0.00  0.00    +0.000 C 
ATOM      3  N   UNL     1       5.841   4.795  19.379  0.00  0.00    +0.000 N 
ATOM      4  N   UNL     1       3.609   4.691  19.649  0.00  0.00    +0.000 N 
ATOM      5  H   UNL     1       5.877   4.332  20.273  0.00  0.00    +0.000 HD
ATOM      6  H   UNL     1       3.852   3.878  20.191  0.00  0.00    +0.000 HD
ENDROOT
BRANCH   4   7
ATOM      7  C   UNL     1       2.197   5.016  19.480  0.00  0.00    +0.000 C 
ATOM      8  C   UNL     1       1.709   4.537  18.105  0.00  0.00    +0.000 C 
ATOM      9  C   UNL     1       1.667   3.011  17.994  0.00  0.00    +0.000 C 
ATOM     10  C   UNL     1       0.882   2.368  19.135  0.00  0.00    +0.000 C 
ATOM     11  C   UNL     1       1.331   2.862  20.509  0.00  0.00    +0.000 C 
ATOM     12  C   UNL     1       1.341   4.389  20.588  0.00  0.00    +0.000 C 
ENDBRANCH   4   7
BRANCH   3  13
ATOM     13  C   UNL     1       7.102   5.282  18.850  0.00  0.00    +0.000 C 
BRANCH  13  14
ATOM     14  C   UNL     1       7.329   4.712  17.453  0.00  0.00    +0.000 C 
BRANCH  14  15
ATOM     15  C   UNL     1       7.085   5.752  16.365  0.00  0.00    +0.000 C 
BRANCH  15  16
ATOM     16  N   UNL     1       6.663   5.155  15.103  0.00  0.00    +0.000 N 
ATOM     17  C   UNL     1       7.592   4.874  14.033  0.00  0.00    +0.000 C 
ATOM     18  C   UNL     1       6.698   4.343  12.931  0.00  0.00    +0.000 C 
ATOM     19  C   UNL     1       5.599   3.608  13.687  0.00  0.00    +0.000 C 
ATOM     20  C   UNL     1       5.534   4.342  15.004  0.00  0.00    +0.000 C 
ATOM     21  O   UNL     1       4.668   4.191  15.852  0.00  0.00    +0.000 OA
ENDBRANCH  15  16
ENDBRANCH  14  15
ENDBRANCH  13  14
ENDBRANCH   3  13
TORSDOF 5
ENDMDL
MODEL 7
REMARK VINA RESULT:      -7.1      2.944      6.361
REMARK  Name = 
REMARK  5 active torsions:
REMARK  status: ('A' for Active; 'I' for Inactive)
REMARK    1  A    between atoms: N_3  and  C_4
REMARK    2  A    between atoms: C_4  and  C_5
REMARK    3  A    between atoms: C_5  and  C_6
REMARK    4  A    between atoms: C_6  and  N_7
REMARK    5  A    between atoms: N_13  and  C_14
REMARK                            x       y       z     vdW  Elec       q    Type
REMARK                         _______ _______ _______ _____ _____    ______ ____
ROOT
ATOM      1  O   UNL     1       2.787   6.985  18.582  0.00  0.00    +0.000 OA
ATOM      2  C   UNL     1       3.495   6.132  19.095  0.00  0.00    +0.000 C 
ATOM      3  N   UNL     1       3.150   5.383  20.195  0.00  0.00    +0.000 N 
ATOM      4  N   UNL     1       4.767   5.831  18.694  0.00  0.00    +0.000 N 
ATOM      5  H   UNL     1       3.584   4.475  20.252  0.00  0.00    +0.000 HD
ATOM      6  H   UNL     1       5.268   5.146  19.238  0.00  0.00    +0.000 HD
ENDROOT
BRANCH   4   7
ATOM      7  C   UNL     1       5.461   6.480  17.588  0.00  0.00    +0.000 C 
ATOM      8  C   UNL     1       6.971   6.222  17.690  0.00  0.00    +0.000 C 
ATOM      9  C   UNL     1       7.335   4.756  17.434  0.00  0.00    +0.000 C 
ATOM     10  C   UNL     1       6.752   4.234  16.124  0.00  0.00    +0.000 C 
ATOM     11  C   UNL     1       5.258   4.518  15.991  0.00  0.00    +0.000 C 
ATOM     12  C   UNL     1       4.935   5.992  16.232  0.00  0.00    +0.000 C 
ENDBRANCH   4   7
BRANCH   3  13
ATOM     13  C   UNL     1       1.875   5.535  20.870  0.00  0.00    +0.000 C 
BRANCH  13  14
ATOM     14  C   UNL     1       0.869   4.537  20.304  0.00  0.00    +0.000 C 
BRANCH  14  15
ATOM     15  C   UNL     1       1.218   3.100  20.678  0.00  0.00    +0.000 C 
BRANCH  15  16
ATOM     16  N   UNL     1       2.167   2.494  19.752  0.00  0.00    +0.000 N 
ATOM     17  C   UNL     1       2.016   2.586  18.319  0.00  0.00    +0.000 C 
ATOM     18  C   UNL     1       3.174   1.760  17.796  0.00  0.00    +0.000 C 
ATOM     19  C   UNL     1       4.270   1.990  18.828  0.00  0.00    +0.000 C 
ATOM     20  C   UNL     1       3.500   2.268  20.096  0.00  0.00    +0.000 C 
ATOM     21  O   UNL     1       3.987   2.340  21.213  0.00  0.00    +0.000 OA
ENDBRANCH  15  16
ENDBRANCH  14  15
ENDBRANCH  13  14
ENDBRANCH   3  13
TORSDOF 5
ENDMDL
MODEL 8
REMARK VINA RESULT:      -7.0      1.785      7.483
REMARK  Name = 
REMARK  5 active torsions:
REMARK  status: ('A' for Active; 'I' for Inactive)
REMARK    1  A    between atoms: N_3  and  C_4
REMARK    2  A    between atoms: C_4  and  C_5
REMARK    3  A    between atoms: C_5  and  C_6
REMARK    4  A    between atoms: C_6  and  N_7
REMARK    5  A    between atoms: N_13  and  C_14
REMARK                            x       y       z     vdW  Elec       q    Type
REMARK                         _______ _______ _______ _____ _____    ______ ____
ROOT
ATOM      1  O   UNL     1       5.934   5.545  14.784  0.00  0.00    +0.000 OA
ATOM      2  C   UNL     1       5.913   4.326  14.852  0.00  0.00    +0.000 C 
ATOM      3  N   UNL     1       6.007   3.602  16.016  0.00  0.00    +0.000 N 
ATOM      4  N   UNL     1       5.857   3.486  13.774  0.00  0.00    +0.000 N 
ATOM      5  H   UNL     1       5.563   2.697  16.000  0.00  0.00    +0.000 HD
ATOM      6  H   UNL     1       5.905   2.497  13.961  0.00  0.00    +0.000 HD
ENDROOT
BRANCH   4   7
ATOM      7  C   UNL     1       5.804   3.927  12.385  0.00  0.00    +0.000 C 
ATOM      8  C   UNL     1       7.210   3.897  11.770  0.00  0.00    +0.000 C 
ATOM      9  C   UNL     1       7.747   2.473  11.597  0.00  0.00    +0.000 C 
ATOM     10  C   UNL     1       6.773   1.575  10.841  0.00  0.00    +0.000 C 
ATOM     11  C   UNL     1       5.360   1.622  11.417  0.00  0.00    +0.000 C 
ATOM     12  C   UNL     1       4.850   3.057  11.556  0.00  0.00    +0.000 C 
ENDBRANCH   4   7
BRANCH   3  13
ATOM     13  C   UNL     1       6.140   4.235  17.316  0.00  0.00    +0.000 C 
BRANCH  13  14
ATOM     14  C   UNL     1       4.767   4.364  17.969  0.00  0.00    +0.000 C 
BRANCH  14  15
ATOM     15  C   UNL     1       3.968   3.069  17.882  0.00  0.00    +0.000 C 
BRANCH  15  16
ATOM     16  N   UNL     1       2.892   3.005  18.864  0.00  0.00    +0.000 N 
ATOM     17  C   UNL     1       3.144   2.909  20.282  0.00  0.00    +0.000 C 
ATOM     18  C   UNL     1       1.754   2.798  20.874  0.00  0.00    +0.000 C 
ATOM     19  C   UNL     1       0.901   3.646  19.939  0.00  0.00    +0.000 C 
ATOM     20  C   UNL     1       1.631   3.550  18.622  0.00  0.00    +0.000 C 
ATOM     21  O   UNL     1       1.201   3.944  17.549  0.00  0.00    +0.000 OA
ENDBRANCH  15  16
ENDBRANCH  14  15
ENDBRANCH  13  14
ENDBRANCH   3  13
TORSDOF 5
ENDMDL
MODEL 9
REMARK VINA RESULT:      -7.0      4.743      8.249
REMARK  Name = 
REMARK  5 active torsions:
REMARK  status: ('A' for Active; 'I' for Inactive)
REMARK    1  A    between atoms: N_3  and  C_4
REMARK    2  A    between atoms: C_4  and  C_5
REMARK    3  A    between atoms: C_5  and  C_6
REMARK    4  A    between atoms: C_6  and  N_7
REMARK    5  A    between atoms: N_13  and  C_14
REMARK                            x       y       z     vdW  Elec       q    Type
REMARK                         _______ _______ _______ _____ _____    ______ ____
ROOT
ATOM      1  O   UNL     1       3.682   7.360  17.807  0.00  0.00    +0.000 OA
ATOM      2  C   UNL     1       2.679   7.353  18.504  0.00  0.00    +0.000 C 
ATOM      3  N   UNL     1       1.806   8.406  18.634  0.00  0.00    +0.000 N 
ATOM      4  N   UNL     1       2.300   6.318  19.314  0.00  0.00    +0.000 N 
ATOM      5  H   UNL     1       0.856   8.154  18.859  0.00  0.00    +0.000 HD
ATOM      6  H   UNL     1       1.481   6.459  19.883  0.00  0.00    +0.000 HD
ENDROOT
BRANCH   4   7
ATOM      7  C   UNL     1       3.036   5.067  19.456  0.00  0.00    +0.000 C 
ATOM      8  C   UNL     1       2.536   4.299  20.687  0.00  0.00    +0.000 C 
ATOM      9  C   UNL     1       1.109   3.772  20.512  0.00  0.00    +0.000 C 
ATOM     10  C   UNL     1       0.942   2.965  19.228  0.00  0.00    +0.000 C 
ATOM     11  C   UNL     1       1.470   3.700  17.998  0.00  0.00    +0.000 C 
ATOM     12  C   UNL     1       2.903   4.193  18.202  0.00  0.00    +0.000 C 
ENDBRANCH   4   7
BRANCH   3  13
ATOM     13  C   UNL     1       1.994   9.663  17.933  0.00  0.00    +0.000 C 
BRANCH  13  14
ATOM     14  C   UNL     1       1.270  10.782  18.676  0.00  0.00    +0.000 C 
BRANCH  14  15
ATOM     15  C   UNL     1      -0.089  10.333  19.201  0.00  0.00    +0.000 C 
BRANCH  15  16
ATOM     16  N   UNL     1      -0.200  10.456  20.650  0.00  0.00    +0.000 N 
ATOM     17  C   UNL     1      -1.070  11.422  21.279  0.00  0.00    +0.000 C 
ATOM     18  C   UNL     1      -0.793  11.226  22.755  0.00  0.00    +0.000 C 
ATOM     19  C   UNL     1      -0.501   9.736  22.869  0.00  0.00    +0.000 C 
ATOM     20  C   UNL     1       0.057   9.388  21.510  0.00  0.00    +0.000 C 
ATOM     21  O   UNL     1       0.583   8.327  21.217  0.00  0.00    +0.000 OA
ENDBRANCH  15  16
ENDBRANCH  14  15
ENDBRANCH  13  14
ENDBRANCH   3  13
TORSDOF 5
ENDMDL
