MODEL 1
REMARK VINA RESULT:      -7.8      0.000      0.000
REMARK  Name = 
REMARK  6 active torsions:
REMARK  status: ('A' for Active; 'I' for Inactive)
REMARK    1  A    between atoms: C_2  and  C_4
REMARK    2  A    between atoms: N_6  and  C1*_7
REMARK    3  A    between atoms: C4*_9  and  C5*_10
REMARK    4  A    between atoms: C5*_10  and  O5*_11
REMARK    5  A    between atoms: C3*_12  and  O3*_13
REMARK    6  A    between atoms: C2*_14  and  O2*_15
REMARK                            x       y       z     vdW  Elec       q    Type
REMARK                         _______ _______ _______ _____ _____    ______ ____
ROOT
ATOM      1  C   UNL     1       6.804   5.092  18.433  0.00  0.00    +0.000 A 
ATOM      2  C   UNL     1       5.617   4.709  18.935  0.00  0.00    +0.000 A 
ATOM      3  N   UNL     1       4.931   3.882  18.080  0.00  0.00    +0.000 N 
ATOM      4  N   UNL     1       5.631   3.862  16.877  0.00  0.00    +0.000 N 
ATOM      5  C   UNL     1       6.864   4.452  17.100  0.00  0.00    +0.000 A 
ATOM      6  O   UNL     1       7.833   4.437  16.354  0.00  0.00    +0.000 OA
ATOM      7  H   UNL     1       5.481   3.140  16.174  0.00  0.00    +0.000 HD
ENDROOT
BRANCH   1   9
ATOM      8  N   UNL     1       8.395   5.447  20.189  0.00  0.00    +0.000 N 
ATOM      9  C   UNL     1       7.815   5.942  19.062  0.00  0.00    +0.000 C 
ATOM     10  O   UNL     1       8.150   7.031  18.598  0.00  0.00    +0.000 OA
ATOM     11  H   UNL     1       9.148   5.970  20.613  0.00  0.00    +0.000 HD
ATOM     12  H   UNL     1       8.195   4.510  20.532  0.00  0.00    +0.000 HD
ENDBRANCH   1   9
BRANCH   3  13
ATOM     13  C1* UNL     1       3.580   3.358  18.134  0.00  0.00    +0.000 C 
ATOM     14  O4* UNL     1       2.659   4.321  18.676  0.00  0.00    +0.000 OA
ATOM     15  C4* UNL     1       1.747   3.643  19.575  0.00  0.00    +0.000 C 
ATOM     16  C3* UNL     1       2.059   2.149  19.484  0.00  0.00    +0.000 C 
ATOM     17  C2* UNL     1       3.513   2.128  19.055  0.00  0.00    +0.000 C 
BRANCH  16  18
ATOM     18  O3* UNL     1       1.290   1.496  18.457  0.00  0.00    +0.000 OA
ATOM     19  H3* UNL     1       1.570   0.564  18.386  0.00  0.00    +0.000 HD
ENDBRANCH  16  18
BRANCH  17  20
ATOM     20  O2* UNL     1       3.862   0.911  18.390  0.00  0.00    +0.000 OA
ATOM     21  H2* UNL     1       4.564   0.498  18.938  0.00  0.00    +0.000 HD
ENDBRANCH  17  20
BRANCH  15  22
ATOM     22  C5* UNL     1       1.942   4.214  20.983  0.00  0.00    +0.000 C 
BRANCH  22  23
ATOM     23  O5* UNL     1       2.611   5.471  20.926  0.00  0.00    +0.000 OA
ATOM     24  H5* UNL     1       2.118   6.081  21.506  0.00  0.00    +0.000 HD
ENDBRANCH  22  23
ENDBRANCH  15  22
ENDBRANCH   3  13
TORSDOF 6
ENDMDL
MODEL 2
REMARK VINA RESULT:      -7.6      1.060      1.060
REMARK  Name = 
REMARK  6 active torsions:
REMARK  status: ('A' for Active; 'I' for Inactive)
REMARK    1  A    between atoms: C_2  and  C_4
REMARK    2  A    between atoms: N_6  and  C1*_7
REMARK    3  A    between atoms: C4*_9  and  C5*_10
REMARK    4  A    between atoms: C5*_10  and  O5*_11
REMARK    5  A    between atoms: C3*_12  and  O3*_13
REMARK    6  A    between atoms: C2*_14  and  O2*_15
REMARK                            x       y       z     vdW  Elec       q    Type
REMARK                         _______ _______ _______ _____ _____    ______ ____
ROOT
ATOM      1  C   UNL     1       6.654   5.788  17.765  0.00  0.00    +0.000 A 
ATOM      2  C   UNL     1       5.404   5.584  18.216  0.00  0.00    +0.000 A 
ATOM      3  N   UNL     1       4.947   4.320  17.934  0.00  0.00    +0.000 N 
ATOM      4  N   UNL     1       5.885   3.721  17.097  0.00  0.00    +0.000 N 
ATOM      5  C   UNL     1       7.019   4.516  17.102  0.00  0.00    +0.000 A 
ATOM      6  O   UNL     1       8.123   4.227  16.663  0.00  0.00    +0.000 OA
ATOM      7  H   UNL     1       5.915   2.713  16.951  0.00  0.00    +0.000 HD
ENDROOT
BRANCH   1   9
ATOM      8  N   UNL     1       8.335   7.010  18.956  0.00  0.00    +0.000 N 
ATOM      9  C   UNL     1       7.475   6.991  17.903  0.00  0.00    +0.000 C 
ATOM     10  O   UNL     1       7.420   7.928  17.108  0.00  0.00    +0.000 OA
ATOM     11  H   UNL     1       8.971   7.790  19.046  0.00  0.00    +0.000 HD
ATOM     12  H   UNL     1       8.458   6.205  19.568  0.00  0.00    +0.000 HD
ENDBRANCH   1   9
BRANCH   3  13
ATOM     13  C1* UNL     1       3.636   3.719  18.091  0.00  0.00    +0.000 C 
ATOM     14  O4* UNL     1       2.725   4.603  18.764  0.00  0.00    +0.000 OA
ATOM     15  C4* UNL     1       1.942   3.837  19.713  0.00  0.00    +0.000 C 
ATOM     16  C3* UNL     1       2.321   2.368  19.520  0.00  0.00    +0.000 C 
ATOM     17  C2* UNL     1       3.725   2.448  18.953  0.00  0.00    +0.000 C 
BRANCH  16  18
ATOM     18  O3* UNL     1       1.490   1.718  18.540  0.00  0.00    +0.000 OA
ATOM     19  H3* UNL     1       0.597   1.585  18.910  0.00  0.00    +0.000 HD
ENDBRANCH  16  18
BRANCH  17  20
ATOM     20  O2* UNL     1       4.070   1.283  18.199  0.00  0.00    +0.000 OA
ATOM     21  H2* UNL     1       3.244   1.000  17.751  0.00  0.00    +0.000 HD
ENDBRANCH  17  20
BRANCH  15  22
ATOM     22  C5* UNL     1       2.244   4.356  21.121  0.00  0.00    +0.000 C 
BRANCH  22  23
ATOM     23  O5* UNL     1       2.178   3.296  22.071  0.00  0.00    +0.000 OA
ATOM     24  H5* UNL     1       3.084   2.947  22.171  0.00  0.00    +0.000 HD
ENDBRANCH  22  23
ENDBRANCH  15  22
ENDBRANCH   3  13
TORSDOF 6
ENDMDL
MODEL 3
REMARK VINA RESULT:      -7.5      2.139      5.647
REMARK  Name = 
REMARK  6 active torsions:
REMARK  status: ('A' for Active; 'I' for Inactive)
REMARK    1  A    between atoms: C_2  and  C_4
REMARK    2  A    between atoms: N_6  and  C1*_7
REMARK    3  A    between atoms: C4*_9  and  C5*_10
REMARK    4  A    between atoms: C5*_10  and  O5*_11
REMARK    5  A    between atoms: C3*_12  and  O3*_13
REMARK    6  A    between atoms: C2*_14  and  O2*_15
REMARK                            x       y       z     vdW  Elec       q    Type
REMARK                         _______ _______ _______ _____ _____    ______ ____
ROOT
ATOM      1  C   UNL     1       2.800   3.415  19.646  0.00  0.00    +0.000 A 
ATOM      2  C   UNL     1       4.091   3.736  19.452  0.00  0.00    +0.000 A 
ATOM      3  N   UNL     1       4.349   4.097  18.152  0.00  0.00    +0.000 N 
ATOM      4  N   UNL     1       3.200   3.829  17.415  0.00  0.00    +0.000 N 
ATOM      5  C   UNL     1       2.177   3.568  18.312  0.00  0.00    +0.000 A 
ATOM      6  O   UNL     1       0.981   3.496  18.065  0.00  0.00    +0.000 OA
ATOM      7  H   UNL     1       3.039   4.236  16.494  0.00  0.00    +0.000 HD
ENDROOT
BRANCH   1   9
ATOM      8  N   UNL     1       0.791   3.000  20.883  0.00  0.00    +0.000 N 
ATOM      9  C   UNL     1       2.151   3.013  20.893  0.00  0.00    +0.000 C 
ATOM     10  O   UNL     1       2.784   2.679  21.894  0.00  0.00    +0.000 OA
ATOM     11  H   UNL     1       0.305   2.659  21.701  0.00  0.00    +0.000 HD
ATOM     12  H   UNL     1       0.255   3.183  20.036  0.00  0.00    +0.000 HD
ENDBRANCH   1   9
BRANCH   3  13
ATOM     13  C1* UNL     1       5.597   4.370  17.465  0.00  0.00    +0.000 C 
ATOM     14  O4* UNL     1       6.728   4.219  18.340  0.00  0.00    +0.000 OA
ATOM     15  C4* UNL     1       7.664   5.296  18.086  0.00  0.00    +0.000 C 
ATOM     16  C3* UNL     1       7.121   6.088  16.896  0.00  0.00    +0.000 C 
ATOM     17  C2* UNL     1       5.629   5.822  16.960  0.00  0.00    +0.000 C 
BRANCH  16  18
ATOM     18  O3* UNL     1       7.603   5.577  15.639  0.00  0.00    +0.000 OA
ATOM     19  H3* UNL     1       7.389   6.211  14.929  0.00  0.00    +0.000 HD
ENDBRANCH  16  18
BRANCH  17  20
ATOM     20  O2* UNL     1       4.997   5.987  15.688  0.00  0.00    +0.000 OA
ATOM     21  H2* UNL     1       4.074   6.260  15.881  0.00  0.00    +0.000 HD
ENDBRANCH  17  20
BRANCH  15  22
ATOM     22  C5* UNL     1       7.792   6.136  19.360  0.00  0.00    +0.000 C 
BRANCH  22  23
ATOM     23  O5* UNL     1       8.040   5.301  20.488  0.00  0.00    +0.000 OA
ATOM     24  H5* UNL     1       8.817   4.752  20.269  0.00  0.00    +0.000 HD
ENDBRANCH  22  23
ENDBRANCH  15  22
ENDBRANCH   3  13
TORSDOF 6
ENDMDL
MODEL 4
REMARK VINA RESULT:      -7.4      1.501      1.946
REMARK  Name = 
REMARK  6 active torsions:
REMARK  status: ('A' for Active; 'I' for Inactive)
REMARK    1  A    between atoms: C_2  and  C_4
REMARK    2  A    between atoms: N_6  and  C1*_7
REMARK    3  A    between atoms: C4*_9  and  C5*_10
REMARK    4  A    between atoms: C5*_10  and  O5*_11
REMARK    5  A    between atoms: C3*_12  and  O3*_13
REMARK    6  A    between atoms: C2*_14  and  O2*_15
REMARK                            x       y       z     vdW  Elec       q    Type
REMARK                         _______ _______ _______ _____ _____    ______ ____
ROOT
ATOM      1  C   UNL     1       6.254   5.157  17.079  0.00  0.00    +0.000 A 
ATOM      2  C   UNL     1       4.960   4.840  16.900  0.00  0.00    +0.000 A 
ATOM      3  N   UNL     1       4.437   4.155  17.969  0.00  0.00    +0.000 N 
ATOM      4  N   UNL     1       5.495   3.854  18.822  0.00  0.00    +0.000 N 
ATOM      5  C   UNL     1       6.593   4.587  18.402  0.00  0.00    +0.000 A 
ATOM      6  O   UNL     1       7.641   4.757  19.009  0.00  0.00    +0.000 OA
ATOM      7  H   UNL     1       5.348   3.582  19.793  0.00  0.00    +0.000 HD
ENDROOT
BRANCH   1   9
ATOM      8  N   UNL     1       7.635   7.069  16.662  0.00  0.00    +0.000 N 
ATOM      9  C   UNL     1       7.130   5.903  16.177  0.00  0.00    +0.000 C 
ATOM     10  O   UNL     1       7.424   5.502  15.052  0.00  0.00    +0.000 OA
ATOM     11  H   UNL     1       8.301   7.579  16.099  0.00  0.00    +0.000 HD
ATOM     12  H   UNL     1       7.476   7.368  17.623  0.00  0.00    +0.000 HD
ENDBRANCH   1   9
BRANCH   3  13
ATOM     13  C1* UNL     1       3.158   3.495  18.150  0.00  0.00    +0.000 C 
ATOM     14  O4* UNL     1       2.215   4.344  18.827  0.00  0.00    +0.000 OA
ATOM     15  C4* UNL     1       1.482   3.552  19.794  0.00  0.00    +0.000 C 
ATOM     16  C3* UNL     1       1.926   2.101  19.612  0.00  0.00    +0.000 C 
ATOM     17  C2* UNL     1       3.317   2.240  19.025  0.00  0.00    +0.000 C 
BRANCH  16  18
ATOM     18  O3* UNL     1       1.113   1.402  18.651  0.00  0.00    +0.000 OA
ATOM     19  H3* UNL     1       1.689   0.963  17.997  0.00  0.00    +0.000 HD
ENDBRANCH  16  18
BRANCH  17  20
ATOM     20  O2* UNL     1       3.705   1.083  18.278  0.00  0.00    +0.000 OA
ATOM     21  H2* UNL     1       2.933   0.855  17.718  0.00  0.00    +0.000 HD
ENDBRANCH  17  20
BRANCH  15  22
ATOM     22  C5* UNL     1       1.778   4.101  21.193  0.00  0.00    +0.000 C 
BRANCH  22  23
ATOM     23  O5* UNL     1       2.085   3.039  22.093  0.00  0.00    +0.000 OA
ATOM     24  H5* UNL     1       2.403   2.291  21.552  0.00  0.00    +0.000 HD
ENDBRANCH  22  23
ENDBRANCH  15  22
ENDBRANCH   3  13
TORSDOF 6
ENDMDL
MODEL 5
REMARK VINA RESULT:      -7.4      1.571      1.826
REMARK  Name = 
REMARK  6 active torsions:
REMARK  status: ('A' for Active; 'I' for Inactive)
REMARK    1  A    between atoms: C_2  and  C_4
REMARK    2  A    between atoms: N_6  and  C1*_7
REMARK    3  A    between atoms: C4*_9  and  C5*_10
REMARK    4  A    between atoms: C5*_10  and  O5*_11
REMARK    5  A    between atoms: C3*_12  and  O3*_13
REMARK    6  A    between atoms: C2*_14  and  O2*_15
REMARK                            x       y       z     vdW  Elec       q    Type
REMARK                         _______ _______ _______ _____ _____    ______ ____
ROOT
ATOM      1  C   UNL     1       6.659   6.035  18.232  0.00  0.00    +0.000 A 
ATOM      2  C   UNL     1       5.503   5.705  17.631  0.00  0.00    +0.000 A 
ATOM      3  N   UNL     1       4.815   4.737  18.320  0.00  0.00    +0.000 N 
ATOM      4  N   UNL     1       5.650   4.283  19.337  0.00  0.00    +0.000 N 
ATOM      5  C   UNL     1       6.719   5.160  19.424  0.00  0.00    +0.000 A 
ATOM      6  O   UNL     1       7.549   5.223  20.320  0.00  0.00    +0.000 OA
ATOM      7  H   UNL     1       5.296   3.759  20.136  0.00  0.00    +0.000 HD
ENDROOT
BRANCH   1   9
ATOM      8  N   UNL     1       8.412   7.568  18.795  0.00  0.00    +0.000 N 
ATOM      9  C   UNL     1       7.636   7.039  17.811  0.00  0.00    +0.000 C 
ATOM     10  O   UNL     1       7.778   7.377  16.637  0.00  0.00    +0.000 OA
ATOM     11  H   UNL     1       9.148   8.210  18.537  0.00  0.00    +0.000 HD
ATOM     12  H   UNL     1       8.371   7.231  19.755  0.00  0.00    +0.000 HD
ENDBRANCH   1   9
BRANCH   3  13
ATOM     13  C1* UNL     1       3.624   3.982  17.979  0.00  0.00    +0.000 C 
ATOM     14  O4* UNL     1       2.426   4.711  18.297  0.00  0.00    +0.000 OA
ATOM     15  C4* UNL     1       1.463   3.798  18.881  0.00  0.00    +0.000 C 
ATOM     16  C3* UNL     1       2.072   2.398  18.803  0.00  0.00    +0.000 C 
ATOM     17  C2* UNL     1       3.563   2.674  18.785  0.00  0.00    +0.000 C 
BRANCH  16  18
ATOM     18  O3* UNL     1       1.736   1.727  17.575  0.00  0.00    +0.000 OA
ATOM     19  H3* UNL     1       2.372   1.983  16.881  0.00  0.00    +0.000 HD
ENDBRANCH  16  18
BRANCH  17  20
ATOM     20  O2* UNL     1       4.301   1.609  18.179  0.00  0.00    +0.000 OA
ATOM     21  H2* UNL     1       5.226   1.929  18.112  0.00  0.00    +0.000 HD
ENDBRANCH  17  20
BRANCH  15  22
ATOM     22  C5* UNL     1       1.174   4.251  20.315  0.00  0.00    +0.000 C 
BRANCH  22  23
ATOM     23  O5* UNL     1       0.855   3.132  21.139  0.00  0.00    +0.000 OA
ATOM     24  H5* UNL     1       1.246   3.305  22.016  0.00  0.00    +0.000 HD
ENDBRANCH  22  23
ENDBRANCH  15  22
ENDBRANCH   3  13
TORSDOF 6
ENDMDL
MODEL 6
REMARK VINA RESULT:      -7.4      1.656      2.657
REMARK  Name = 
REMARK  6 active torsions:
REMARK  status: ('A' for Active; 'I' for Inactive)
REMARK    1  A    between atoms: C_2  and  C_4
REMARK    2  A    between atoms: N_6  and  C1*_7
REMARK    3  A    between atoms: C4*_9  and  C5*_10
REMARK    4  A    between atoms: C5*_10  and  O5*_11
REMARK    5  A    between atoms: C3*_12  and  O3*_13
REMARK    6  A    between atoms: C2*_14  and  O2*_15
REMARK                            x       y       z     vdW  Elec       q    Type
REMARK                         _______ _______ _______ _____ _____    ______ ____
ROOT
ATOM      1  C   UNL     1       6.182   4.296  15.529  0.00  0.00    +0.000 A 
ATOM      2  C   UNL     1       4.888   3.963  15.676  0.00  0.00    +0.000 A 
ATOM      3  N   UNL     1       4.550   3.748  16.989  0.00  0.00    +0.000 N 
ATOM      4  N   UNL     1       5.730   3.771  17.727  0.00  0.00    +0.000 N 
ATOM      5  C   UNL     1       6.729   4.265  16.904  0.00  0.00    +0.000 A 
ATOM      6  O   UNL     1       7.847   4.630  17.241  0.00  0.00    +0.000 OA
ATOM      7  H   UNL     1       5.734   3.891  18.739  0.00  0.00    +0.000 HD
ENDROOT
BRANCH   1   9
ATOM      8  N   UNL     1       7.900   5.530  14.405  0.00  0.00    +0.000 N 
ATOM      9  C   UNL     1       6.892   4.624  14.293  0.00  0.00    +0.000 C 
ATOM     10  O   UNL     1       6.622   4.101  13.213  0.00  0.00    +0.000 OA
ATOM     11  H   UNL     1       8.462   5.730  13.589  0.00  0.00    +0.000 HD
ATOM     12  H   UNL     1       8.196   5.901  15.306  0.00  0.00    +0.000 HD
ENDBRANCH   1   9
BRANCH   3  13
ATOM     13  C1* UNL     1       3.335   3.235  17.593  0.00  0.00    +0.000 C 
ATOM     14  O4* UNL     1       2.548   4.287  18.176  0.00  0.00    +0.000 OA
ATOM     15  C4* UNL     1       2.026   3.833  19.449  0.00  0.00    +0.000 C 
ATOM     16  C3* UNL     1       2.425   2.365  19.596  0.00  0.00    +0.000 C 
ATOM     17  C2* UNL     1       3.669   2.260  18.735  0.00  0.00    +0.000 C 
BRANCH  16  18
ATOM     18  O3* UNL     1       1.435   1.475  19.046  0.00  0.00    +0.000 OA
ATOM     19  H3* UNL     1       1.135   0.857  19.739  0.00  0.00    +0.000 HD
ENDBRANCH  16  18
BRANCH  17  20
ATOM     20  O2* UNL     1       3.899   0.923  18.280  0.00  0.00    +0.000 OA
ATOM     21  H2* UNL     1       3.646   0.339  19.027  0.00  0.00    +0.000 HD
ENDBRANCH  17  20
BRANCH  15  22
ATOM     22  C5* UNL     1       2.599   4.726  20.554  0.00  0.00    +0.000 C 
BRANCH  22  23
ATOM     23  O5* UNL     1       3.454   5.722  19.999  0.00  0.00    +0.000 OA
ATOM     24  H5* UNL     1       3.331   5.695  19.031  0.00  0.00    +0.000 HD
ENDBRANCH  22  23
ENDBRANCH  15  22
ENDBRANCH   3  13
TORSDOF 6
ENDMDL
MODEL 7
REMARK VINA RESULT:      -7.3      2.281      5.732
REMARK  Name = 
REMARK  6 active torsions:
REMARK  status: ('A' for Active; 'I' for Inactive)
REMARK    1  A    between atoms: C_2  and  C_4
REMARK    2  A    between atoms: N_6  and  C1*_7
REMARK    3  A    between atoms: C4*_9  and  C5*_10
REMARK    4  A    between atoms: C5*_10  and  O5*_11
REMARK    5  A    between atoms: C3*_12  and  O3*_13
REMARK    6  A    between atoms: C2*_14  and  O2*_15
REMARK                            x       y       z     vdW  Elec       q    Type
REMARK                         _______ _______ _______ _____ _____    ______ ____
ROOT
ATOM      1  C   UNL     1       3.238   3.437  20.002  0.00  0.00    +0.000 A 
ATOM      2  C   UNL     1       3.477   4.391  19.085  0.00  0.00    +0.000 A 
ATOM      3  N   UNL     1       4.739   4.299  18.552  0.00  0.00    +0.000 N 
ATOM      4  N   UNL     1       5.427   3.337  19.287  0.00  0.00    +0.000 N 
ATOM      5  C   UNL     1       4.501   2.669  20.072  0.00  0.00    +0.000 A 
ATOM      6  O   UNL     1       4.676   1.630  20.694  0.00  0.00    +0.000 OA
ATOM      7  H   UNL     1       6.281   2.900  18.944  0.00  0.00    +0.000 HD
ENDROOT
BRANCH   1   9
ATOM      8  N   UNL     1       2.159   2.700  22.010  0.00  0.00    +0.000 N 
ATOM      9  C   UNL     1       2.007   3.202  20.755  0.00  0.00    +0.000 C 
ATOM     10  O   UNL     1       0.892   3.461  20.304  0.00  0.00    +0.000 OA
ATOM     11  H   UNL     1       1.339   2.592  22.589  0.00  0.00    +0.000 HD
ATOM     12  H   UNL     1       3.077   2.569  22.431  0.00  0.00    +0.000 HD
ENDBRANCH   1   9
BRANCH   3  13
ATOM     13  C1* UNL     1       5.470   5.181  17.663  0.00  0.00    +0.000 C 
ATOM     14  O4* UNL     1       4.752   5.415  16.440  0.00  0.00    +0.000 OA
ATOM     15  C4* UNL     1       5.686   5.380  15.333  0.00  0.00    +0.000 C 
ATOM     16  C3* UNL     1       7.084   5.232  15.934  0.00  0.00    +0.000 C 
ATOM     17  C2* UNL     1       6.815   4.552  17.263  0.00  0.00    +0.000 C 
BRANCH  16  18
ATOM     18  O3* UNL     1       7.694   6.507  16.210  0.00  0.00    +0.000 OA
ATOM     19  H3* UNL     1       7.142   7.218  15.834  0.00  0.00    +0.000 HD
ENDBRANCH  16  18
BRANCH  17  20
ATOM     20  O2* UNL     1       7.854   4.798  18.215  0.00  0.00    +0.000 OA
ATOM     21  H2* UNL     1       7.561   5.576  18.735  0.00  0.00    +0.000 HD
ENDBRANCH  17  20
BRANCH  15  22
ATOM     22  C5* UNL     1       5.301   4.220  14.411  0.00  0.00    +0.000 C 
BRANCH  22  23
ATOM     23  O5* UNL     1       6.466   3.558  13.925  0.00  0.00    +0.000 OA
ATOM     24  H5* UNL     1       6.751   2.936  14.622  0.00  0.00    +0.000 HD
ENDBRANCH  22  23
ENDBRANCH  15  22
ENDBRANCH   3  13
TORSDOF 6
ENDMDL
MODEL 8
REMARK VINA RESULT:      -7.3      1.954      3.119
REMARK  Name = 
REMARK  6 active torsions:
REMARK  status: ('A' for Active; 'I' for Inactive)
REMARK    1  A    between atoms: C_2  and  C_4
REMARK    2  A    between atoms: N_6  and  C1*_7
REMARK    3  A    between atoms: C4*_9  and  C5*_10
REMARK    4  A    between atoms: C5*_10  and  O5*_11
REMARK    5  A    between atoms: C3*_12  and  O3*_13
REMARK    6  A    between atoms: C2*_14  and  O2*_15
REMARK                            x       y       z     vdW  Elec       q    Type
REMARK                         _______ _______ _______ _____ _____    ______ ____
ROOT
ATOM      1  C   UNL     1       6.171   4.500  15.733  0.00  0.00    +0.000 A 
ATOM      2  C   UNL     1       4.886   4.549  16.126  0.00  0.00    +0.000 A 
ATOM      3  N   UNL     1       4.754   4.472  17.490  0.00  0.00    +0.000 N 
ATOM      4  N   UNL     1       6.012   4.181  18.009  0.00  0.00    +0.000 N 
ATOM      5  C   UNL     1       6.936   4.353  16.991  0.00  0.00    +0.000 A 
ATOM      6  O   UNL     1       8.153   4.396  17.100  0.00  0.00    +0.000 OA
ATOM      7  H   UNL     1       6.239   4.322  18.993  0.00  0.00    +0.000 HD
ENDROOT
BRANCH   1   9
ATOM      8  N   UNL     1       7.724   5.455  14.179  0.00  0.00    +0.000 N 
ATOM      9  C   UNL     1       6.698   4.583  14.371  0.00  0.00    +0.000 C 
ATOM     10  O   UNL     1       6.267   3.893  13.448  0.00  0.00    +0.000 OA
ATOM     11  H   UNL     1       8.164   5.490  13.270  0.00  0.00    +0.000 HD
ATOM     12  H   UNL     1       8.152   5.964  14.950  0.00  0.00    +0.000 HD
ENDBRANCH   1   9
BRANCH   3  13
ATOM     13  C1* UNL     1       3.581   4.338  18.333  0.00  0.00    +0.000 C 
ATOM     14  O4* UNL     1       3.936   4.221  19.721  0.00  0.00    +0.000 OA
ATOM     15  C4* UNL     1       3.098   3.211  20.336  0.00  0.00    +0.000 C 
ATOM     16  C3* UNL     1       2.086   2.768  19.279  0.00  0.00    +0.000 C 
ATOM     17  C2* UNL     1       2.801   3.062  17.975  0.00  0.00    +0.000 C 
BRANCH  16  18
ATOM     18  O3* UNL     1       0.886   3.564  19.309  0.00  0.00    +0.000 OA
ATOM     19  H3* UNL     1       0.189   3.118  18.793  0.00  0.00    +0.000 HD
ENDBRANCH  16  18
BRANCH  17  20
ATOM     20  O2* UNL     1       1.889   3.248  16.889  0.00  0.00    +0.000 OA
ATOM     21  H2* UNL     1       1.238   2.517  16.958  0.00  0.00    +0.000 HD
ENDBRANCH  17  20
BRANCH  15  22
ATOM     22  C5* UNL     1       3.995   2.071  20.826  0.00  0.00    +0.000 C 
BRANCH  22  23
ATOM     23  O5* UNL     1       5.223   2.052  20.102  0.00  0.00    +0.000 OA
ATOM     24  H5* UNL     1       5.908   2.415  20.694  0.00  0.00    +0.000 HD
ENDBRANCH  22  23
ENDBRANCH  15  22
ENDBRANCH   3  13
TORSDOF 6
ENDMDL
MODEL 9
REMARK VINA RESULT:      -7.2      1.784      3.493
REMARK  Name = 
REMARK  6 active torsions:
REMARK  status: ('A' for Active; 'I' for Inactive)
REMARK    1  A    between atoms: C_2  and  C_4
REMARK    2  A    between atoms: N_6  and  C1*_7
REMARK    3  A    between atoms: C4*_9  and  C5*_10
REMARK    4  A    between atoms: C5*_10  and  O5*_11
REMARK    5  A    between atoms: C3*_12  and  O3*_13
REMARK    6  A    between atoms: C2*_14  and  O2*_15
REMARK                            x       y       z     vdW  Elec       q    Type
REMARK                         _______ _______ _______ _____ _____    ______ ____
ROOT
ATOM      1  C   UNL     1       6.044   4.565  16.220  0.00  0.00    +0.000 A 
ATOM      2  C   UNL     1       4.862   4.702  16.844  0.00  0.00    +0.000 A 
ATOM      3  N   UNL     1       4.974   4.586  18.208  0.00  0.00    +0.000 N 
ATOM      4  N   UNL     1       6.277   4.177  18.479  0.00  0.00    +0.000 N 
ATOM      5  C   UNL     1       7.011   4.311  17.312  0.00  0.00    +0.000 A 
ATOM      6  O   UNL     1       8.227   4.254  17.196  0.00  0.00    +0.000 OA
ATOM      7  H   UNL     1       6.690   4.264  19.407  0.00  0.00    +0.000 HD
ENDROOT
BRANCH   1   9
ATOM      8  N   UNL     1       7.452   5.323  14.436  0.00  0.00    +0.000 N 
ATOM      9  C   UNL     1       6.321   4.654  14.786  0.00  0.00    +0.000 C 
ATOM     10  O   UNL     1       5.595   4.139  13.937  0.00  0.00    +0.000 OA
ATOM     11  H   UNL     1       7.717   5.345  13.461  0.00  0.00    +0.000 HD
ATOM     12  H   UNL     1       8.109   5.673  15.130  0.00  0.00    +0.000 HD
ENDBRANCH   1   9
BRANCH   3  13
ATOM     13  C1* UNL     1       3.967   4.516  19.249  0.00  0.00    +0.000 C 
ATOM     14  O4* UNL     1       3.566   3.160  19.508  0.00  0.00    +0.000 OA
ATOM     15  C4* UNL     1       2.129   3.121  19.686  0.00  0.00    +0.000 C 
ATOM     16  C3* UNL     1       1.636   4.568  19.649  0.00  0.00    +0.000 C 
ATOM     17  C2* UNL     1       2.696   5.270  18.823  0.00  0.00    +0.000 C 
BRANCH  16  18
ATOM     18  O3* UNL     1       1.629   5.172  20.957  0.00  0.00    +0.000 OA
ATOM     19  H3* UNL     1       2.468   4.971  21.411  0.00  0.00    +0.000 HD
ENDBRANCH  16  18
BRANCH  17  20
ATOM     20  O2* UNL     1       2.757   6.672  19.102  0.00  0.00    +0.000 OA
ATOM     21  H2* UNL     1       2.451   7.120  18.284  0.00  0.00    +0.000 HD
ENDBRANCH  17  20
BRANCH  15  22
ATOM     22  C5* UNL     1       1.527   2.252  18.578  0.00  0.00    +0.000 C 
BRANCH  22  23
ATOM     23  O5* UNL     1       2.556   1.687  17.770  0.00  0.00    +0.000 OA
ATOM     24  H5* UNL     1       2.877   2.396  17.182  0.00  0.00    +0.000 HD
ENDBRANCH  22  23
ENDBRANCH  15  22
ENDBRANCH   3  13
TORSDOF 6
ENDMDL
