MODEL 1
REMARK VINA RESULT:      -6.8      0.000      0.000
REMARK  Name = 
REMARK  9 active torsions:
REMARK  status: ('A' for Active; 'I' for Inactive)
REMARK    1  A    between atoms: C_2  and  C_3
REMARK    2  A    between atoms: C_3  and  C_4
REMARK    3  A    between atoms: C_4  and  C_5
REMARK    4  A    between atoms: C_5  and  C_6
REMARK    5  A    between atoms: C_6  and  C_7
REMARK    6  A    between atoms: C_6  and  N_8
REMARK    7  A    between atoms: C_13  and  C_14
REMARK    8  A    between atoms: C_16  and  C_17
REMARK    9  A    between atoms: C_17  and  O_18
REMARK                            x       y       z     vdW  Elec       q    Type
REMARK                         _______ _______ _______ _____ _____    ______ ____
ROOT
ATOM      1  N   UNL     1       4.857   4.414  16.927  0.00  0.00    +0.000 N 
ATOM      2  C   UNL     1       3.982   3.532  17.528  0.00  0.00    +0.000 C 
ATOM      3  O   UNL     1       3.957   2.340  17.252  0.00  0.00    +0.000 OA
ATOM      4  N   UNL     1       3.164   4.097  18.491  0.00  0.00    +0.000 N 
ATOM      5  C   UNL     1       2.311   3.219  19.299  0.00  0.00    +0.000 C 
ATOM      6  C   UNL     1       2.220   3.768  20.736  0.00  0.00    +0.000 C 
ATOM      7  C   UNL     1       1.312   2.912  21.608  0.00  0.00    +0.000 C 
ATOM      8  O   UNL     1       1.701   5.116  20.726  0.00  0.00    +0.000 OA
ATOM      9  C   UNL     1       2.571   5.995  19.968  0.00  0.00    +0.000 C 
ATOM     10  C   UNL     1       2.730   5.497  18.519  0.00  0.00    +0.000 C 
ATOM     11  H   UNL     1       5.113   5.207  17.492  0.00  0.00    +0.000 HD
ENDROOT
BRANCH   1  12
ATOM     12  C   UNL     1       5.872   3.950  15.973  0.00  0.00    +0.000 C 
ATOM     13  C   UNL     1       7.243   4.560  16.289  0.00  0.00    +0.000 C 
BRANCH  12  14
ATOM     14  C   UNL     1       5.431   4.275  14.531  0.00  0.00    +0.000 C 
BRANCH  14  15
ATOM     15  C   UNL     1       6.594   4.201  13.527  0.00  0.00    +0.000 C 
BRANCH  15  16
ATOM     16  C   UNL     1       6.221   3.448  12.247  0.00  0.00    +0.000 C 
BRANCH  16  18
ATOM     17  C   UNL     1       4.017   3.282  11.051  0.00  0.00    +0.000 C 
ATOM     18  C   UNL     1       4.737   3.205  12.179  0.00  0.00    +0.000 C 
ENDBRANCH  16  18
ENDBRANCH  15  16
ENDBRANCH  14  15
ENDBRANCH  12  14
ENDBRANCH   1  12
BRANCH   9  19
ATOM     19  C   UNL     1       1.966   7.403  19.982  0.00  0.00    +0.000 C 
BRANCH  19  20
ATOM     20  O   UNL     1       1.721   7.840  21.317  0.00  0.00    +0.000 OA
ATOM     21  H   UNL     1       2.438   7.458  21.858  0.00  0.00    +0.000 HD
ENDBRANCH  19  20
ENDBRANCH   9  19
TORSDOF 7
ENDMDL
MODEL 2
REMARK VINA RESULT:      -6.7      2.460      6.424
REMARK  Name = 
REMARK  9 active torsions:
REMARK  status: ('A' for Active; 'I' for Inactive)
REMARK    1  A    between atoms: C_2  and  C_3
REMARK    2  A    between atoms: C_3  and  C_4
REMARK    3  A    between atoms: C_4  and  C_5
REMARK    4  A    between atoms: C_5  and  C_6
REMARK    5  A    between atoms: C_6  and  C_7
REMARK    6  A    between atoms: C_6  and  N_8
REMARK    7  A    between atoms: C_13  and  C_14
REMARK    8  A    between atoms: C_16  and  C_17
REMARK    9  A    between atoms: C_17  and  O_18
REMARK                            x       y       z     vdW  Elec       q    Type
REMARK                         _______ _______ _______ _____ _____    ______ ____
ROOT
ATOM      1  N   UNL     1       3.327   5.873  19.406  0.00  0.00    +0.000 N 
ATOM      2  C   UNL     1       3.582   5.251  18.201  0.00  0.00    +0.000 C 
ATOM      3  O   UNL     1       2.689   4.870  17.456  0.00  0.00    +0.000 OA
ATOM      4  N   UNL     1       4.924   5.129  17.888  0.00  0.00    +0.000 N 
ATOM      5  C   UNL     1       5.299   4.627  16.561  0.00  0.00    +0.000 C 
ATOM      6  C   UNL     1       6.569   5.352  16.075  0.00  0.00    +0.000 C 
ATOM      7  C   UNL     1       7.024   4.839  14.716  0.00  0.00    +0.000 C 
ATOM      8  O   UNL     1       7.647   5.160  17.017  0.00  0.00    +0.000 OA
ATOM      9  C   UNL     1       7.296   5.700  18.316  0.00  0.00    +0.000 C 
ATOM     10  C   UNL     1       6.017   5.037  18.861  0.00  0.00    +0.000 C 
ATOM     11  H   UNL     1       4.039   6.516  19.710  0.00  0.00    +0.000 HD
ENDROOT
BRANCH   1  12
ATOM     12  C   UNL     1       1.956   6.186  19.826  0.00  0.00    +0.000 C 
ATOM     13  C   UNL     1       1.858   7.622  20.356  0.00  0.00    +0.000 C 
BRANCH  12  14
ATOM     14  C   UNL     1       1.478   5.166  20.880  0.00  0.00    +0.000 C 
BRANCH  14  15
ATOM     15  C   UNL     1       0.833   3.921  20.248  0.00  0.00    +0.000 C 
BRANCH  15  16
ATOM     16  C   UNL     1       1.661   2.653  20.465  0.00  0.00    +0.000 C 
BRANCH  16  18
ATOM     17  C   UNL     1       3.143   1.675  18.686  0.00  0.00    +0.000 C 
ATOM     18  C   UNL     1       1.919   1.948  19.160  0.00  0.00    +0.000 C 
ENDBRANCH  16  18
ENDBRANCH  15  16
ENDBRANCH  14  15
ENDBRANCH  12  14
ENDBRANCH   1  12
BRANCH   9  19
ATOM     19  C   UNL     1       8.468   5.458  19.273  0.00  0.00    +0.000 C 
BRANCH  19  20
ATOM     20  O   UNL     1       8.025   5.441  20.628  0.00  0.00    +0.000 OA
ATOM     21  H   UNL     1       7.200   5.961  20.646  0.00  0.00    +0.000 HD
ENDBRANCH  19  20
ENDBRANCH   9  19
TORSDOF 7
ENDMDL
MODEL 3
REMARK VINA RESULT:      -6.6      2.568      6.540
REMARK  Name = 
REMARK  9 active torsions:
REMARK  status: ('A' for Active; 'I' for Inactive)
REMARK    1  A    between atoms: C_2  and  C_3
REMARK    2  A    between atoms: C_3  and  C_4
REMARK    3  A    between atoms: C_4  and  C_5
REMARK    4  A    between atoms: C_5  and  C_6
REMARK    5  A    between atoms: C_6  and  C_7
REMARK    6  A    between atoms: C_6  and  N_8
REMARK    7  A    between atoms: C_13  and  C_14
REMARK    8  A    between atoms: C_16  and  C_17
REMARK    9  A    between atoms: C_17  and  O_18
REMARK                            x       y       z     vdW  Elec       q    Type
REMARK                         _______ _______ _______ _____ _____    ______ ____
ROOT
ATOM      1  N   UNL     1       4.829   3.143  18.985  0.00  0.00    +0.000 N 
ATOM      2  C   UNL     1       4.979   4.511  19.087  0.00  0.00    +0.000 C 
ATOM      3  O   UNL     1       4.562   5.148  20.044  0.00  0.00    +0.000 OA
ATOM      4  N   UNL     1       5.671   5.094  18.040  0.00  0.00    +0.000 N 
ATOM      5  C   UNL     1       6.022   6.516  18.128  0.00  0.00    +0.000 C 
ATOM      6  C   UNL     1       7.400   6.749  17.480  0.00  0.00    +0.000 C 
ATOM      7  C   UNL     1       7.795   8.218  17.510  0.00  0.00    +0.000 C 
ATOM      8  O   UNL     1       7.387   6.310  16.103  0.00  0.00    +0.000 OA
ATOM      9  C   UNL     1       7.088   4.894  16.018  0.00  0.00    +0.000 C 
ATOM     10  C   UNL     1       5.728   4.577  16.669  0.00  0.00    +0.000 C 
ATOM     11  H   UNL     1       5.543   2.677  18.450  0.00  0.00    +0.000 HD
ENDROOT
BRANCH   1  12
ATOM     12  C   UNL     1       4.225   2.360  20.070  0.00  0.00    +0.000 C 
ATOM     13  C   UNL     1       5.063   1.113  20.380  0.00  0.00    +0.000 C 
BRANCH  12  14
ATOM     14  C   UNL     1       2.774   1.985  19.709  0.00  0.00    +0.000 C 
BRANCH  14  15
ATOM     15  C   UNL     1       1.741   2.673  20.618  0.00  0.00    +0.000 C 
BRANCH  15  16
ATOM     16  C   UNL     1       0.994   3.806  19.911  0.00  0.00    +0.000 C 
BRANCH  16  18
ATOM     17  C   UNL     1       1.739   4.749  17.704  0.00  0.00    +0.000 C 
ATOM     18  C   UNL     1       1.211   3.748  18.423  0.00  0.00    +0.000 C 
ENDBRANCH  16  18
ENDBRANCH  15  16
ENDBRANCH  14  15
ENDBRANCH  12  14
ENDBRANCH   1  12
BRANCH   9  19
ATOM     19  C   UNL     1       7.075   4.491  14.540  0.00  0.00    +0.000 C 
BRANCH  19  20
ATOM     20  O   UNL     1       6.251   3.346  14.330  0.00  0.00    +0.000 OA
ATOM     21  H   UNL     1       6.863   2.609  14.141  0.00  0.00    +0.000 HD
ENDBRANCH  19  20
ENDBRANCH   9  19
TORSDOF 7
ENDMDL
MODEL 4
REMARK VINA RESULT:      -6.6      2.810      6.627
REMARK  Name = 
REMARK  9 active torsions:
REMARK  status: ('A' for Active; 'I' for Inactive)
REMARK    1  A    between atoms: C_2  and  C_3
REMARK    2  A    between atoms: C_3  and  C_4
REMARK    3  A    between atoms: C_4  and  C_5
REMARK    4  A    between atoms: C_5  and  C_6
REMARK    5  A    between atoms: C_6  and  C_7
REMARK    6  A    between atoms: C_6  and  N_8
REMARK    7  A    between atoms: C_13  and  C_14
REMARK    8  A    between atoms: C_16  and  C_17
REMARK    9  A    between atoms: C_17  and  O_18
REMARK                            x       y       z     vdW  Elec       q    Type
REMARK                         _______ _______ _______ _____ _____    ______ ____
ROOT
ATOM      1  N   UNL     1       4.753   3.227  18.810  0.00  0.00    +0.000 N 
ATOM      2  C   UNL     1       4.950   4.582  18.982  0.00  0.00    +0.000 C 
ATOM      3  O   UNL     1       4.542   5.185  19.965  0.00  0.00    +0.000 OA
ATOM      4  N   UNL     1       5.675   5.192  17.974  0.00  0.00    +0.000 N 
ATOM      5  C   UNL     1       6.074   6.594  18.138  0.00  0.00    +0.000 C 
ATOM      6  C   UNL     1       7.468   6.810  17.517  0.00  0.00    +0.000 C 
ATOM      7  C   UNL     1       7.913   8.262  17.626  0.00  0.00    +0.000 C 
ATOM      8  O   UNL     1       7.457   6.442  16.120  0.00  0.00    +0.000 OA
ATOM      9  C   UNL     1       7.110   5.043  15.961  0.00  0.00    +0.000 C 
ATOM     10  C   UNL     1       5.732   4.743  16.579  0.00  0.00    +0.000 C 
ATOM     11  H   UNL     1       5.458   2.763  18.260  0.00  0.00    +0.000 HD
ENDROOT
BRANCH   1  12
ATOM     12  C   UNL     1       4.108   2.413  19.847  0.00  0.00    +0.000 C 
ATOM     13  C   UNL     1       5.076   1.357  20.398  0.00  0.00    +0.000 C 
BRANCH  12  14
ATOM     14  C   UNL     1       2.826   1.762  19.289  0.00  0.00    +0.000 C 
BRANCH  14  15
ATOM     15  C   UNL     1       2.304   2.470  18.028  0.00  0.00    +0.000 C 
BRANCH  15  16
ATOM     16  C   UNL     1       1.160   3.441  18.327  0.00  0.00    +0.000 C 
BRANCH  16  18
ATOM     17  C   UNL     1       1.068   4.598  20.556  0.00  0.00    +0.000 C 
ATOM     18  C   UNL     1       0.879   3.504  19.804  0.00  0.00    +0.000 C 
ENDBRANCH  16  18
ENDBRANCH  15  16
ENDBRANCH  14  15
ENDBRANCH  12  14
ENDBRANCH   1  12
BRANCH   9  19
ATOM     19  C   UNL     1       7.103   4.715  14.464  0.00  0.00    +0.000 C 
BRANCH  19  20
ATOM     20  O   UNL     1       8.036   5.530  13.758  0.00  0.00    +0.000 OA
ATOM     21  H   UNL     1       8.738   5.748  14.400  0.00  0.00    +0.000 HD
ENDBRANCH  19  20
ENDBRANCH   9  19
TORSDOF 7
ENDMDL
MODEL 5
REMARK VINA RESULT:      -6.4      1.928      3.594
REMARK  Name = 
REMARK  9 active torsions:
REMARK  status: ('A' for Active; 'I' for Inactive)
REMARK    1  A    between atoms: C_2  and  C_3
REMARK    2  A    between atoms: C_3  and  C_4
REMARK    3  A    between atoms: C_4  and  C_5
REMARK    4  A    between atoms: C_5  and  C_6
REMARK    5  A    between atoms: C_6  and  C_7
REMARK    6  A    between atoms: C_6  and  N_8
REMARK    7  A    between atoms: C_13  and  C_14
REMARK    8  A    between atoms: C_16  and  C_17
REMARK    9  A    between atoms: C_17  and  O_18
REMARK                            x       y       z     vdW  Elec       q    Type
REMARK                         _______ _______ _______ _____ _____    ______ ____
ROOT
ATOM      1  N   UNL     1       5.629   3.920  14.886  0.00  0.00    +0.000 N 
ATOM      2  C   UNL     1       5.369   5.131  15.495  0.00  0.00    +0.000 C 
ATOM      3  O   UNL     1       5.623   6.203  14.963  0.00  0.00    +0.000 OA
ATOM      4  N   UNL     1       4.765   5.034  16.737  0.00  0.00    +0.000 N 
ATOM      5  C   UNL     1       4.303   6.259  17.397  0.00  0.00    +0.000 C 
ATOM      6  C   UNL     1       2.997   5.972  18.164  0.00  0.00    +0.000 C 
ATOM      7  C   UNL     1       2.495   7.206  18.902  0.00  0.00    +0.000 C 
ATOM      8  O   UNL     1       3.204   4.918  19.130  0.00  0.00    +0.000 OA
ATOM      9  C   UNL     1       3.613   3.692  18.472  0.00  0.00    +0.000 C 
ATOM     10  C   UNL     1       4.907   3.906  17.662  0.00  0.00    +0.000 C 
ATOM     11  H   UNL     1       5.018   3.169  15.160  0.00  0.00    +0.000 HD
ENDROOT
BRANCH   1  12
ATOM     12  C   UNL     1       6.157   3.854  13.518  0.00  0.00    +0.000 C 
ATOM     13  C   UNL     1       7.357   4.794  13.346  0.00  0.00    +0.000 C 
BRANCH  12  14
ATOM     14  C   UNL     1       5.041   4.179  12.503  0.00  0.00    +0.000 C 
BRANCH  14  15
ATOM     15  C   UNL     1       4.756   3.010  11.544  0.00  0.00    +0.000 C 
BRANCH  15  16
ATOM     16  C   UNL     1       3.355   3.078  10.932  0.00  0.00    +0.000 C 
BRANCH  16  18
ATOM     17  C   UNL     1       2.433   4.712   9.260  0.00  0.00    +0.000 C 
ATOM     18  C   UNL     1       3.372   3.829   9.628  0.00  0.00    +0.000 C 
ENDBRANCH  16  18
ENDBRANCH  15  16
ENDBRANCH  14  15
ENDBRANCH  12  14
ENDBRANCH   1  12
BRANCH   9  19
ATOM     19  C   UNL     1       3.830   2.618  19.543  0.00  0.00    +0.000 C 
BRANCH  19  20
ATOM     20  O   UNL     1       5.218   2.431  19.805  0.00  0.00    +0.000 OA
ATOM     21  H   UNL     1       5.465   3.124  20.446  0.00  0.00    +0.000 HD
ENDBRANCH  19  20
ENDBRANCH   9  19
TORSDOF 7
ENDMDL
MODEL 6
REMARK VINA RESULT:      -6.2      2.441      6.447
REMARK  Name = 
REMARK  9 active torsions:
REMARK  status: ('A' for Active; 'I' for Inactive)
REMARK    1  A    between atoms: C_2  and  C_3
REMARK    2  A    between atoms: C_3  and  C_4
REMARK    3  A    between atoms: C_4  and  C_5
REMARK    4  A    between atoms: C_5  and  C_6
REMARK    5  A    between atoms: C_6  and  C_7
REMARK    6  A    between atoms: C_6  and  N_8
REMARK    7  A    between atoms: C_13  and  C_14
REMARK    8  A    between atoms: C_16  and  C_17
REMARK    9  A    between atoms: C_17  and  O_18
REMARK                            x       y       z     vdW  Elec       q    Type
REMARK                         _______ _______ _______ _____ _____    ______ ____
ROOT
ATOM      1  N   UNL     1       3.121   3.674  18.833  0.00  0.00    +0.000 N 
ATOM      2  C   UNL     1       3.831   3.062  17.820  0.00  0.00    +0.000 C 
ATOM      3  O   UNL     1       3.653   1.893  17.505  0.00  0.00    +0.000 OA
ATOM      4  N   UNL     1       4.732   3.886  17.167  0.00  0.00    +0.000 N 
ATOM      5  C   UNL     1       5.420   3.380  15.976  0.00  0.00    +0.000 C 
ATOM      6  C   UNL     1       5.600   4.523  14.958  0.00  0.00    +0.000 C 
ATOM      7  C   UNL     1       6.347   4.057  13.716  0.00  0.00    +0.000 C 
ATOM      8  O   UNL     1       6.341   5.611  15.553  0.00  0.00    +0.000 OA
ATOM      9  C   UNL     1       5.636   6.145  16.702  0.00  0.00    +0.000 C 
ATOM     10  C   UNL     1       5.398   5.050  17.759  0.00  0.00    +0.000 C 
ATOM     11  H   UNL     1       3.003   4.668  18.726  0.00  0.00    +0.000 HD
ENDROOT
BRANCH   1  12
ATOM     12  C   UNL     1       2.045   2.970  19.541  0.00  0.00    +0.000 C 
ATOM     13  C   UNL     1       0.866   2.684  18.603  0.00  0.00    +0.000 C 
BRANCH  12  14
ATOM     14  C   UNL     1       1.598   3.786  20.771  0.00  0.00    +0.000 C 
BRANCH  14  15
ATOM     15  C   UNL     1       2.357   5.117  20.906  0.00  0.00    +0.000 C 
BRANCH  15  16
ATOM     16  C   UNL     1       1.474   6.331  20.609  0.00  0.00    +0.000 C 
BRANCH  16  18
ATOM     17  C   UNL     1       2.480   7.218  18.483  0.00  0.00    +0.000 C 
ATOM     18  C   UNL     1       2.220   7.352  19.792  0.00  0.00    +0.000 C 
ENDBRANCH  16  18
ENDBRANCH  15  16
ENDBRANCH  14  15
ENDBRANCH  12  14
ENDBRANCH   1  12
BRANCH   9  19
ATOM     19  C   UNL     1       6.473   7.283  17.296  0.00  0.00    +0.000 C 
BRANCH  19  20
ATOM     20  O   UNL     1       7.785   7.296  16.738  0.00  0.00    +0.000 OA
ATOM     21  H   UNL     1       8.219   6.483  17.058  0.00  0.00    +0.000 HD
ENDBRANCH  19  20
ENDBRANCH   9  19
TORSDOF 7
ENDMDL
MODEL 7
REMARK VINA RESULT:      -6.2      3.270      5.027
REMARK  Name = 
REMARK  9 active torsions:
REMARK  status: ('A' for Active; 'I' for Inactive)
REMARK    1  A    between atoms: C_2  and  C_3
REMARK    2  A    between atoms: C_3  and  C_4
REMARK    3  A    between atoms: C_4  and  C_5
REMARK    4  A    between atoms: C_5  and  C_6
REMARK    5  A    between atoms: C_6  and  C_7
REMARK    6  A    between atoms: C_6  and  N_8
REMARK    7  A    between atoms: C_13  and  C_14
REMARK    8  A    between atoms: C_16  and  C_17
REMARK    9  A    between atoms: C_17  and  O_18
REMARK                            x       y       z     vdW  Elec       q    Type
REMARK                         _______ _______ _______ _____ _____    ______ ____
ROOT
ATOM      1  N   UNL     1       5.747   5.901  18.414  0.00  0.00    +0.000 N 
ATOM      2  C   UNL     1       4.893   4.982  17.840  0.00  0.00    +0.000 C 
ATOM      3  O   UNL     1       5.232   4.256  16.915  0.00  0.00    +0.000 OA
ATOM      4  N   UNL     1       3.637   4.922  18.419  0.00  0.00    +0.000 N 
ATOM      5  C   UNL     1       2.708   3.872  17.989  0.00  0.00    +0.000 C 
ATOM      6  C   UNL     1       1.879   3.390  19.195  0.00  0.00    +0.000 C 
ATOM      7  C   UNL     1       0.869   2.324  18.793  0.00  0.00    +0.000 C 
ATOM      8  O   UNL     1       1.161   4.497  19.784  0.00  0.00    +0.000 OA
ATOM      9  C   UNL     1       2.082   5.514  20.254  0.00  0.00    +0.000 C 
ATOM     10  C   UNL     1       2.966   6.031  19.103  0.00  0.00    +0.000 C 
ATOM     11  H   UNL     1       5.561   6.106  19.381  0.00  0.00    +0.000 HD
ENDROOT
BRANCH   1  12
ATOM     12  C   UNL     1       7.150   6.002  17.994  0.00  0.00    +0.000 C 
ATOM     13  C   UNL     1       8.096   5.652  19.149  0.00  0.00    +0.000 C 
BRANCH  12  14
ATOM     14  C   UNL     1       7.438   7.413  17.441  0.00  0.00    +0.000 C 
BRANCH  14  15
ATOM     15  C   UNL     1       8.356   8.233  18.363  0.00  0.00    +0.000 C 
BRANCH  15  16
ATOM     16  C   UNL     1       8.302   9.733  18.067  0.00  0.00    +0.000 C 
BRANCH  16  18
ATOM     17  C   UNL     1       9.416  10.847  20.025  0.00  0.00    +0.000 C 
ATOM     18  C   UNL     1       9.435  10.457  18.743  0.00  0.00    +0.000 C 
ENDBRANCH  16  18
ENDBRANCH  15  16
ENDBRANCH  14  15
ENDBRANCH  12  14
ENDBRANCH   1  12
BRANCH   9  19
ATOM     19  C   UNL     1       1.266   6.663  20.854  0.00  0.00    +0.000 C 
BRANCH  19  20
ATOM     20  O   UNL     1       2.090   7.800  21.100  0.00  0.00    +0.000 OA
ATOM     21  H   UNL     1       1.880   8.091  22.008  0.00  0.00    +0.000 HD
ENDBRANCH  19  20
ENDBRANCH   9  19
TORSDOF 7
ENDMDL
MODEL 8
REMARK VINA RESULT:      -6.1      2.694      6.659
REMARK  Name = 
REMARK  9 active torsions:
REMARK  status: ('A' for Active; 'I' for Inactive)
REMARK    1  A    between atoms: C_2  and  C_3
REMARK    2  A    between atoms: C_3  and  C_4
REMARK    3  A    between atoms: C_4  and  C_5
REMARK    4  A    between atoms: C_5  and  C_6
REMARK    5  A    between atoms: C_6  and  C_7
REMARK    6  A    between atoms: C_6  and  N_8
REMARK    7  A    between atoms: C_13  and  C_14
REMARK    8  A    between atoms: C_16  and  C_17
REMARK    9  A    between atoms: C_17  and  O_18
REMARK                            x       y       z     vdW  Elec       q    Type
REMARK                         _______ _______ _______ _____ _____    ______ ____
ROOT
ATOM      1  N   UNL     1       3.285   6.142  19.236  0.00  0.00    +0.000 N 
ATOM      2  C   UNL     1       3.620   5.275  18.216  0.00  0.00    +0.000 C 
ATOM      3  O   UNL     1       2.847   4.424  17.795  0.00  0.00    +0.000 OA
ATOM      4  N   UNL     1       4.883   5.470  17.685  0.00  0.00    +0.000 N 
ATOM      5  C   UNL     1       5.276   4.709  16.494  0.00  0.00    +0.000 C 
ATOM      6  C   UNL     1       6.158   5.587  15.587  0.00  0.00    +0.000 C 
ATOM      7  C   UNL     1       6.627   4.829  14.353  0.00  0.00    +0.000 C 
ATOM      8  O   UNL     1       7.324   6.043  16.310  0.00  0.00    +0.000 OA
ATOM      9  C   UNL     1       6.936   6.837  17.459  0.00  0.00    +0.000 C 
ATOM     10  C   UNL     1       6.029   6.030  18.407  0.00  0.00    +0.000 C 
ATOM     11  H   UNL     1       3.754   7.032  19.206  0.00  0.00    +0.000 HD
ENDROOT
BRANCH   1  12
ATOM     12  C   UNL     1       1.939   6.143  19.823  0.00  0.00    +0.000 C 
ATOM     13  C   UNL     1       1.594   7.521  20.401  0.00  0.00    +0.000 C 
BRANCH  12  14
ATOM     14  C   UNL     1       1.828   5.041  20.896  0.00  0.00    +0.000 C 
BRANCH  14  15
ATOM     15  C   UNL     1       0.954   3.859  20.442  0.00  0.00    +0.000 C 
BRANCH  15  16
ATOM     16  C   UNL     1       1.667   2.512  20.575  0.00  0.00    +0.000 C 
BRANCH  16  18
ATOM     17  C   UNL     1       4.139   2.240  20.212  0.00  0.00    +0.000 C 
ATOM     18  C   UNL     1       3.115   2.703  20.942  0.00  0.00    +0.000 C 
ENDBRANCH  16  18
ENDBRANCH  15  16
ENDBRANCH  14  15
ENDBRANCH  12  14
ENDBRANCH   1  12
BRANCH   9  19
ATOM     19  C   UNL     1       8.208   7.280  18.191  0.00  0.00    +0.000 C 
BRANCH  19  20
ATOM     20  O   UNL     1       8.334   8.700  18.182  0.00  0.00    +0.000 OA
ATOM     21  H   UNL     1       7.452   9.045  17.946  0.00  0.00    +0.000 HD
ENDBRANCH  19  20
ENDBRANCH   9  19
TORSDOF 7
ENDMDL
MODEL 9
REMARK VINA RESULT:      -6.1      2.366      7.041
REMARK  Name = 
REMARK  9 active torsions:
REMARK  status: ('A' for Active; 'I' for Inactive)
REMARK    1  A    between atoms: C_2  and  C_3
REMARK    2  A    between atoms: C_3  and  C_4
REMARK    3  A    between atoms: C_4  and  C_5
REMARK    4  A    between atoms: C_5  and  C_6
REMARK    5  A    between atoms: C_6  and  C_7
REMARK    6  A    between atoms: C_6  and  N_8
REMARK    7  A    between atoms: C_13  and  C_14
REMARK    8  A    between atoms: C_16  and  C_17
REMARK    9  A    between atoms: C_17  and  O_18
REMARK                            x       y       z     vdW  Elec       q    Type
REMARK                         _______ _______ _______ _____ _____    ______ ____
ROOT
ATOM      1  N   UNL     1       3.456   3.580  17.113  0.00  0.00    +0.000 N 
ATOM      2  C   UNL     1       3.858   4.849  17.477  0.00  0.00    +0.000 C 
ATOM      3  O   UNL     1       3.273   5.505  18.329  0.00  0.00    +0.000 OA
ATOM      4  N   UNL     1       4.994   5.303  16.830  0.00  0.00    +0.000 N 
ATOM      5  C   UNL     1       5.594   6.570  17.257  0.00  0.00    +0.000 C 
ATOM      6  C   UNL     1       7.129   6.477  17.153  0.00  0.00    +0.000 C 
ATOM      7  C   UNL     1       7.800   7.784  17.550  0.00  0.00    +0.000 C 
ATOM      8  O   UNL     1       7.520   6.157  15.800  0.00  0.00    +0.000 OA
ATOM      9  C   UNL     1       6.967   4.879  15.394  0.00  0.00    +0.000 C 
ATOM     10  C   UNL     1       5.430   4.888  15.493  0.00  0.00    +0.000 C 
ATOM     11  H   UNL     1       4.194   2.982  16.780  0.00  0.00    +0.000 HD
ENDROOT
BRANCH   1  12
ATOM     12  C   UNL     1       2.342   2.909  17.793  0.00  0.00    +0.000 C 
ATOM     13  C   UNL     1       1.077   3.776  17.760  0.00  0.00    +0.000 C 
BRANCH  12  14
ATOM     14  C   UNL     1       2.740   2.555  19.240  0.00  0.00    +0.000 C 
BRANCH  14  15
ATOM     15  C   UNL     1       1.526   2.222  20.124  0.00  0.00    +0.000 C 
BRANCH  15  16
ATOM     16  C   UNL     1       1.498   3.036  21.419  0.00  0.00    +0.000 C 
BRANCH  16  18
ATOM     17  C   UNL     1       1.573   5.509  20.979  0.00  0.00    +0.000 C 
ATOM     18  C   UNL     1       2.202   4.354  21.243  0.00  0.00    +0.000 C 
ENDBRANCH  16  18
ENDBRANCH  15  16
ENDBRANCH  14  15
ENDBRANCH  12  14
ENDBRANCH   1  12
BRANCH   9  19
ATOM     19  C   UNL     1       7.404   4.601  13.952  0.00  0.00    +0.000 C 
BRANCH  19  20
ATOM     20  O   UNL     1       6.589   3.594  13.357  0.00  0.00    +0.000 OA
ATOM     21  H   UNL     1       6.537   2.872  14.011  0.00  0.00    +0.000 HD
ENDBRANCH  19  20
ENDBRANCH   9  19
TORSDOF 7
ENDMDL
