MODEL 1
REMARK VINA RESULT:      -6.9      0.000      0.000
REMARK  Name = 
REMARK  6 active torsions:
REMARK  status: ('A' for Active; 'I' for Inactive)
REMARK    1  A    between atoms: C_1  and  C_2
REMARK    2  A    between atoms: C_2  and  O_3
REMARK    3  A    between atoms: O_3  and  C_4
REMARK    4  A    between atoms: C_4  and  C_6
REMARK    5  A    between atoms: C_7  and  C_8
REMARK    6  A    between atoms: N_17  and  C_18
REMARK                            x       y       z     vdW  Elec       q    Type
REMARK                         _______ _______ _______ _____ _____    ______ ____
ROOT
ATOM      1  C   UNL     1       2.859   4.241  18.465  0.00  0.00    +0.000 A 
ATOM      2  C   UNL     1       3.388   5.472  18.873  0.00  0.00    +0.000 A 
ATOM      3  C   UNL     1       4.739   5.243  19.269  0.00  0.00    +0.000 A 
ATOM      4  C   UNL     1       5.027   3.920  19.050  0.00  0.00    +0.000 A 
ATOM      5  N   UNL     1       3.911   3.331  18.517  0.00  0.00    +0.000 N 
ATOM      6  C   UNL     1       3.867   1.929  18.155  0.00  0.00    +0.000 C 
ENDROOT
BRANCH   2   7
ATOM      7  C   UNL     1       2.685   6.758  18.896  0.00  0.00    +0.000 A 
ATOM      8  C   UNL     1       2.075   7.198  20.083  0.00  0.00    +0.000 A 
ATOM      9  C   UNL     1       1.454   8.452  20.150  0.00  0.00    +0.000 A 
ATOM     10  C   UNL     1       1.427   9.272  19.027  0.00  0.00    +0.000 A 
ATOM     11 BR   UNL     1       0.591  10.964  19.112  0.00  0.00    +0.000 Br
ATOM     12  C   UNL     1       2.023   8.853  17.839  0.00  0.00    +0.000 A 
ATOM     13  C   UNL     1       2.663   7.610  17.784  0.00  0.00    +0.000 A 
ENDBRANCH   2   7
BRANCH   1  14
ATOM     14  C   UNL     1       1.484   3.907  18.135  0.00  0.00    +0.000 C 
ATOM     15  O   UNL     1       0.865   4.300  17.158  0.00  0.00    +0.000 OA
BRANCH  14  16
ATOM     16  O   UNL     1       0.944   3.122  19.112  0.00  0.00    +0.000 OA
BRANCH  16  18
ATOM     17  C   UNL     1       1.455   2.761  21.427  0.00  0.00    +0.000 C 
ATOM     18  C   UNL     1       0.860   3.722  20.411  0.00  0.00    +0.000 C 
ENDBRANCH  16  18
ENDBRANCH  14  16
ENDBRANCH   1  14
TORSDOF 4
ENDMDL
MODEL 2
REMARK VINA RESULT:      -6.8      0.432      1.216
REMARK  Name = 
REMARK  6 active torsions:
REMARK  status: ('A' for Active; 'I' for Inactive)
REMARK    1  A    between atoms: C_1  and  C_2
REMARK    2  A    between atoms: C_2  and  O_3
REMARK    3  A    between atoms: O_3  and  C_4
REMARK    4  A    between atoms: C_4  and  C_6
REMARK    5  A    between atoms: C_7  and  C_8
REMARK    6  A    between atoms: N_17  and  C_18
REMARK                            x       y       z     vdW  Elec       q    Type
REMARK                         _______ _______ _______ _____ _____    ______ ____
ROOT
ATOM      1  C   UNL     1       2.946   4.459  18.531  0.00  0.00    +0.000 A 
ATOM      2  C   UNL     1       3.500   5.707  18.844  0.00  0.00    +0.000 A 
ATOM      3  C   UNL     1       4.895   5.508  19.065  0.00  0.00    +0.000 A 
ATOM      4  C   UNL     1       5.177   4.186  18.834  0.00  0.00    +0.000 A 
ATOM      5  N   UNL     1       4.013   3.568  18.462  0.00  0.00    +0.000 N 
ATOM      6  C   UNL     1       3.949   2.158  18.135  0.00  0.00    +0.000 C 
ENDROOT
BRANCH   2   7
ATOM      7  C   UNL     1       2.782   6.981  18.935  0.00  0.00    +0.000 A 
ATOM      8  C   UNL     1       2.720   7.830  17.817  0.00  0.00    +0.000 A 
ATOM      9  C   UNL     1       1.985   9.022  17.858  0.00  0.00    +0.000 A 
ATOM     10  C   UNL     1       1.315   9.381  19.023  0.00  0.00    +0.000 A 
ATOM     11 BR   UNL     1       0.322  10.987  19.083  0.00  0.00    +0.000 Br
ATOM     12  C   UNL     1       1.366   8.556  20.144  0.00  0.00    +0.000 A 
ATOM     13  C   UNL     1       2.082   7.355  20.090  0.00  0.00    +0.000 A 
ENDBRANCH   2   7
BRANCH   1  14
ATOM     14  C   UNL     1       1.546   4.096  18.389  0.00  0.00    +0.000 C 
ATOM     15  O   UNL     1       0.955   3.916  17.335  0.00  0.00    +0.000 OA
BRANCH  14  16
ATOM     16  O   UNL     1       0.950   4.035  19.615  0.00  0.00    +0.000 OA
BRANCH  16  18
ATOM     17  C   UNL     1       1.822   2.993  21.591  0.00  0.00    +0.000 C 
ATOM     18  C   UNL     1       1.062   2.777  20.293  0.00  0.00    +0.000 C 
ENDBRANCH  16  18
ENDBRANCH  14  16
ENDBRANCH   1  14
TORSDOF 4
ENDMDL
MODEL 3
REMARK VINA RESULT:      -6.6      2.647      3.932
REMARK  Name = 
REMARK  6 active torsions:
REMARK  status: ('A' for Active; 'I' for Inactive)
REMARK    1  A    between atoms: C_1  and  C_2
REMARK    2  A    between atoms: C_2  and  O_3
REMARK    3  A    between atoms: O_3  and  C_4
REMARK    4  A    between atoms: C_4  and  C_6
REMARK    5  A    between atoms: C_7  and  C_8
REMARK    6  A    between atoms: N_17  and  C_18
REMARK                            x       y       z     vdW  Elec       q    Type
REMARK                         _______ _______ _______ _____ _____    ______ ____
ROOT
ATOM      1  C   UNL     1       4.456   5.555  16.972  0.00  0.00    +0.000 A 
ATOM      2  C   UNL     1       3.321   5.574  17.794  0.00  0.00    +0.000 A 
ATOM      3  C   UNL     1       2.861   4.229  17.912  0.00  0.00    +0.000 A 
ATOM      4  C   UNL     1       3.731   3.421  17.228  0.00  0.00    +0.000 A 
ATOM      5  N   UNL     1       4.719   4.214  16.708  0.00  0.00    +0.000 N 
ATOM      6  C   UNL     1       5.815   3.681  15.925  0.00  0.00    +0.000 C 
ENDROOT
BRANCH   2   7
ATOM      7  C   UNL     1       2.712   6.756  18.411  0.00  0.00    +0.000 A 
ATOM      8  C   UNL     1       2.406   7.877  17.620  0.00  0.00    +0.000 A 
ATOM      9  C   UNL     1       1.765   8.993  18.173  0.00  0.00    +0.000 A 
ATOM     10  C   UNL     1       1.433   9.002  19.524  0.00  0.00    +0.000 A 
ATOM     11 BR   UNL     1       0.567  10.504  20.273  0.00  0.00    +0.000 Br
ATOM     12  C   UNL     1       1.730   7.902  20.326  0.00  0.00    +0.000 A 
ATOM     13  C   UNL     1       2.350   6.780  19.764  0.00  0.00    +0.000 A 
ENDBRANCH   2   7
BRANCH   1  14
ATOM     14  C   UNL     1       5.189   6.675  16.409  0.00  0.00    +0.000 C 
ATOM     15  O   UNL     1       5.139   7.055  15.248  0.00  0.00    +0.000 OA
BRANCH  14  16
ATOM     16  O   UNL     1       6.001   7.229  17.355  0.00  0.00    +0.000 OA
BRANCH  16  18
ATOM     17  C   UNL     1       7.656   6.108  18.681  0.00  0.00    +0.000 C 
ATOM     18  C   UNL     1       7.359   6.772  17.346  0.00  0.00    +0.000 C 
ENDBRANCH  16  18
ENDBRANCH  14  16
ENDBRANCH   1  14
TORSDOF 4
ENDMDL
MODEL 4
REMARK VINA RESULT:      -6.5      1.392      1.507
REMARK  Name = 
REMARK  6 active torsions:
REMARK  status: ('A' for Active; 'I' for Inactive)
REMARK    1  A    between atoms: C_1  and  C_2
REMARK    2  A    between atoms: C_2  and  O_3
REMARK    3  A    between atoms: O_3  and  C_4
REMARK    4  A    between atoms: C_4  and  C_6
REMARK    5  A    between atoms: C_7  and  C_8
REMARK    6  A    between atoms: N_17  and  C_18
REMARK                            x       y       z     vdW  Elec       q    Type
REMARK                         _______ _______ _______ _____ _____    ______ ____
ROOT
ATOM      1  C   UNL     1       3.287   5.268  17.619  0.00  0.00    +0.000 A 
ATOM      2  C   UNL     1       3.511   6.619  17.917  0.00  0.00    +0.000 A 
ATOM      3  C   UNL     1       4.854   6.919  17.542  0.00  0.00    +0.000 A 
ATOM      4  C   UNL     1       5.399   5.793  16.980  0.00  0.00    +0.000 A 
ATOM      5  N   UNL     1       4.439   4.817  16.979  0.00  0.00    +0.000 N 
ATOM      6  C   UNL     1       4.675   3.490  16.449  0.00  0.00    +0.000 C 
ENDROOT
BRANCH   2   7
ATOM      7  C   UNL     1       2.549   7.551  18.512  0.00  0.00    +0.000 A 
ATOM      8  C   UNL     1       2.204   7.426  19.869  0.00  0.00    +0.000 A 
ATOM      9  C   UNL     1       1.338   8.343  20.478  0.00  0.00    +0.000 A 
ATOM     10  C   UNL     1       0.801   9.388  19.732  0.00  0.00    +0.000 A 
ATOM     11 BR   UNL     1      -0.367  10.628  20.549  0.00  0.00    +0.000 Br
ATOM     12  C   UNL     1       1.127   9.528  18.385  0.00  0.00    +0.000 A 
ATOM     13  C   UNL     1       2.012   8.623  17.787  0.00  0.00    +0.000 A 
ENDBRANCH   2   7
BRANCH   1  14
ATOM     14  C   UNL     1       2.146   4.439  17.965  0.00  0.00    +0.000 C 
ATOM     15  O   UNL     1       1.117   4.326  17.314  0.00  0.00    +0.000 OA
BRANCH  14  16
ATOM     16  O   UNL     1       2.356   3.829  19.167  0.00  0.00    +0.000 OA
BRANCH  16  18
ATOM     17  C   UNL     1       1.712   3.349  21.427  0.00  0.00    +0.000 C 
ATOM     18  C   UNL     1       1.241   3.840  20.068  0.00  0.00    +0.000 C 
ENDBRANCH  16  18
ENDBRANCH  14  16
ENDBRANCH   1  14
TORSDOF 4
ENDMDL
MODEL 5
REMARK VINA RESULT:      -6.5      2.631      3.769
REMARK  Name = 
REMARK  6 active torsions:
REMARK  status: ('A' for Active; 'I' for Inactive)
REMARK    1  A    between atoms: C_1  and  C_2
REMARK    2  A    between atoms: C_2  and  O_3
REMARK    3  A    between atoms: O_3  and  C_4
REMARK    4  A    between atoms: C_4  and  C_6
REMARK    5  A    between atoms: C_7  and  C_8
REMARK    6  A    between atoms: N_17  and  C_18
REMARK                            x       y       z     vdW  Elec       q    Type
REMARK                         _______ _______ _______ _____ _____    ______ ____
ROOT
ATOM      1  C   UNL     1       4.420   5.526  16.994  0.00  0.00    +0.000 A 
ATOM      2  C   UNL     1       3.259   5.528  17.779  0.00  0.00    +0.000 A 
ATOM      3  C   UNL     1       2.827   4.174  17.900  0.00  0.00    +0.000 A 
ATOM      4  C   UNL     1       3.737   3.378  17.254  0.00  0.00    +0.000 A 
ATOM      5  N   UNL     1       4.722   4.188  16.755  0.00  0.00    +0.000 N 
ATOM      6  C   UNL     1       5.855   3.672  16.014  0.00  0.00    +0.000 C 
ENDROOT
BRANCH   2   7
ATOM      7  C   UNL     1       2.604   6.702  18.361  0.00  0.00    +0.000 A 
ATOM      8  C   UNL     1       2.320   6.733  19.737  0.00  0.00    +0.000 A 
ATOM      9  C   UNL     1       1.754   7.868  20.330  0.00  0.00    +0.000 A 
ATOM     10  C   UNL     1       1.456   8.981  19.549  0.00  0.00    +0.000 A 
ATOM     11 BR   UNL     1       0.694  10.515  20.344  0.00  0.00    +0.000 Br
ATOM     12  C   UNL     1       1.726   8.971  18.182  0.00  0.00    +0.000 A 
ATOM     13  C   UNL     1       2.314   7.842  17.599  0.00  0.00    +0.000 A 
ENDBRANCH   2   7
BRANCH   1  14
ATOM     14  C   UNL     1       5.144   6.656  16.440  0.00  0.00    +0.000 C 
ATOM     15  O   UNL     1       5.108   7.032  15.277  0.00  0.00    +0.000 OA
BRANCH  14  16
ATOM     16  O   UNL     1       5.932   7.225  17.399  0.00  0.00    +0.000 OA
BRANCH  16  18
ATOM     17  C   UNL     1       7.684   6.172  18.652  0.00  0.00    +0.000 C 
ATOM     18  C   UNL     1       7.318   6.867  17.351  0.00  0.00    +0.000 C 
ENDBRANCH  16  18
ENDBRANCH  14  16
ENDBRANCH   1  14
TORSDOF 4
ENDMDL
MODEL 6
REMARK VINA RESULT:      -6.5      1.320      1.814
REMARK  Name = 
REMARK  6 active torsions:
REMARK  status: ('A' for Active; 'I' for Inactive)
REMARK    1  A    between atoms: C_1  and  C_2
REMARK    2  A    between atoms: C_2  and  O_3
REMARK    3  A    between atoms: O_3  and  C_4
REMARK    4  A    between atoms: C_4  and  C_6
REMARK    5  A    between atoms: C_7  and  C_8
REMARK    6  A    between atoms: N_17  and  C_18
REMARK                            x       y       z     vdW  Elec       q    Type
REMARK                         _______ _______ _______ _____ _____    ______ ____
ROOT
ATOM      1  C   UNL     1       3.165   5.301  17.778  0.00  0.00    +0.000 A 
ATOM      2  C   UNL     1       3.435   6.664  17.961  0.00  0.00    +0.000 A 
ATOM      3  C   UNL     1       4.769   6.895  17.512  0.00  0.00    +0.000 A 
ATOM      4  C   UNL     1       5.262   5.715  17.018  0.00  0.00    +0.000 A 
ATOM      5  N   UNL     1       4.278   4.770  17.131  0.00  0.00    +0.000 N 
ATOM      6  C   UNL     1       4.459   3.400  16.696  0.00  0.00    +0.000 C 
ENDROOT
BRANCH   2   7
ATOM      7  C   UNL     1       2.523   7.665  18.519  0.00  0.00    +0.000 A 
ATOM      8  C   UNL     1       1.984   8.660  17.686  0.00  0.00    +0.000 A 
ATOM      9  C   UNL     1       1.059   9.589  18.180  0.00  0.00    +0.000 A 
ATOM     10  C   UNL     1       0.673   9.538  19.516  0.00  0.00    +0.000 A 
ATOM     11 BR   UNL     1      -0.574  10.787  20.186  0.00  0.00    +0.000 Br
ATOM     12  C   UNL     1       1.198   8.562  20.360  0.00  0.00    +0.000 A 
ATOM     13  C   UNL     1       2.103   7.622  19.856  0.00  0.00    +0.000 A 
ENDBRANCH   2   7
BRANCH   1  14
ATOM     14  C   UNL     1       2.019   4.533  18.231  0.00  0.00    +0.000 C 
ATOM     15  O   UNL     1       1.066   4.193  17.545  0.00  0.00    +0.000 OA
BRANCH  14  16
ATOM     16  O   UNL     1       2.121   4.280  19.568  0.00  0.00    +0.000 OA
BRANCH  16  18
ATOM     17  C   UNL     1       1.421   2.713  21.243  0.00  0.00    +0.000 C 
ATOM     18  C   UNL     1       0.963   3.694  20.176  0.00  0.00    +0.000 C 
ENDBRANCH  16  18
ENDBRANCH  14  16
ENDBRANCH   1  14
TORSDOF 4
ENDMDL
MODEL 7
REMARK VINA RESULT:      -6.2      2.131      3.529
REMARK  Name = 
REMARK  6 active torsions:
REMARK  status: ('A' for Active; 'I' for Inactive)
REMARK    1  A    between atoms: C_1  and  C_2
REMARK    2  A    between atoms: C_2  and  O_3
REMARK    3  A    between atoms: O_3  and  C_4
REMARK    4  A    between atoms: C_4  and  C_6
REMARK    5  A    between atoms: C_7  and  C_8
REMARK    6  A    between atoms: N_17  and  C_18
REMARK                            x       y       z     vdW  Elec       q    Type
REMARK                         _______ _______ _______ _____ _____    ______ ____
ROOT
ATOM      1  C   UNL     1       3.747   4.395  19.577  0.00  0.00    +0.000 A 
ATOM      2  C   UNL     1       2.508   5.037  19.708  0.00  0.00    +0.000 A 
ATOM      3  C   UNL     1       1.553   4.043  20.075  0.00  0.00    +0.000 A 
ATOM      4  C   UNL     1       2.214   2.850  20.215  0.00  0.00    +0.000 A 
ATOM      5  N   UNL     1       3.542   3.075  19.967  0.00  0.00    +0.000 N 
ATOM      6  C   UNL     1       4.536   2.024  20.034  0.00  0.00    +0.000 C 
ENDROOT
BRANCH   2   7
ATOM      7  C   UNL     1       2.239   6.463  19.501  0.00  0.00    +0.000 A 
ATOM      8  C   UNL     1       2.452   7.036  18.236  0.00  0.00    +0.000 A 
ATOM      9  C   UNL     1       2.141   8.380  17.994  0.00  0.00    +0.000 A 
ATOM     10  C   UNL     1       1.624   9.166  19.019  0.00  0.00    +0.000 A 
ATOM     11 BR   UNL     1       1.201  10.979  18.698  0.00  0.00    +0.000 Br
ATOM     12  C   UNL     1       1.407   8.618  20.281  0.00  0.00    +0.000 A 
ATOM     13  C   UNL     1       1.698   7.269  20.511  0.00  0.00    +0.000 A 
ENDBRANCH   2   7
BRANCH   1  14
ATOM     14  C   UNL     1       4.995   4.927  19.058  0.00  0.00    +0.000 C 
ATOM     15  O   UNL     1       5.861   5.492  19.711  0.00  0.00    +0.000 OA
BRANCH  14  16
ATOM     16  O   UNL     1       5.052   4.758  17.705  0.00  0.00    +0.000 OA
BRANCH  16  18
ATOM     17  C   UNL     1       5.144   6.274  15.850  0.00  0.00    +0.000 C 
ATOM     18  C   UNL     1       5.917   5.661  17.006  0.00  0.00    +0.000 C 
ENDBRANCH  16  18
ENDBRANCH  14  16
ENDBRANCH   1  14
TORSDOF 4
ENDMDL
MODEL 8
REMARK VINA RESULT:      -6.2      2.672      4.365
REMARK  Name = 
REMARK  6 active torsions:
REMARK  status: ('A' for Active; 'I' for Inactive)
REMARK    1  A    between atoms: C_1  and  C_2
REMARK    2  A    between atoms: C_2  and  O_3
REMARK    3  A    between atoms: O_3  and  C_4
REMARK    4  A    between atoms: C_4  and  C_6
REMARK    5  A    between atoms: C_7  and  C_8
REMARK    6  A    between atoms: N_17  and  C_18
REMARK                            x       y       z     vdW  Elec       q    Type
REMARK                         _______ _______ _______ _____ _____    ______ ____
ROOT
ATOM      1  C   UNL     1       2.695   3.948  18.856  0.00  0.00    +0.000 A 
ATOM      2  C   UNL     1       3.906   3.835  18.159  0.00  0.00    +0.000 A 
ATOM      3  C   UNL     1       3.954   2.522  17.604  0.00  0.00    +0.000 A 
ATOM      4  C   UNL     1       2.778   1.888  17.911  0.00  0.00    +0.000 A 
ATOM      5  N   UNL     1       2.000   2.765  18.618  0.00  0.00    +0.000 N 
ATOM      6  C   UNL     1       0.678   2.422  19.101  0.00  0.00    +0.000 C 
ENDROOT
BRANCH   2   7
ATOM      7  C   UNL     1       4.937   4.868  18.031  0.00  0.00    +0.000 A 
ATOM      8  C   UNL     1       4.822   5.849  17.031  0.00  0.00    +0.000 A 
ATOM      9  C   UNL     1       5.759   6.885  16.928  0.00  0.00    +0.000 A 
ATOM     10  C   UNL     1       6.826   6.943  17.820  0.00  0.00    +0.000 A 
ATOM     11 BR   UNL     1       8.092   8.339  17.686  0.00  0.00    +0.000 Br
ATOM     12  C   UNL     1       6.961   5.980  18.817  0.00  0.00    +0.000 A 
ATOM     13  C   UNL     1       6.009   4.960  18.929  0.00  0.00    +0.000 A 
ENDBRANCH   2   7
BRANCH   1  14
ATOM     14  C   UNL     1       2.248   5.016  19.732  0.00  0.00    +0.000 C 
ATOM     15  O   UNL     1       2.203   4.971  20.953  0.00  0.00    +0.000 OA
BRANCH  14  16
ATOM     16  O   UNL     1       1.824   6.083  18.995  0.00  0.00    +0.000 OA
BRANCH  16  18
ATOM     17  C   UNL     1       2.283   8.296  18.192  0.00  0.00    +0.000 C 
ATOM     18  C   UNL     1       2.362   7.354  19.382  0.00  0.00    +0.000 C 
ENDBRANCH  16  18
ENDBRANCH  14  16
ENDBRANCH   1  14
TORSDOF 4
ENDMDL
MODEL 9
REMARK VINA RESULT:      -6.1      2.137      3.333
REMARK  Name = 
REMARK  6 active torsions:
REMARK  status: ('A' for Active; 'I' for Inactive)
REMARK    1  A    between atoms: C_1  and  C_2
REMARK    2  A    between atoms: C_2  and  O_3
REMARK    3  A    between atoms: O_3  and  C_4
REMARK    4  A    between atoms: C_4  and  C_6
REMARK    5  A    between atoms: C_7  and  C_8
REMARK    6  A    between atoms: N_17  and  C_18
REMARK                            x       y       z     vdW  Elec       q    Type
REMARK                         _______ _______ _______ _____ _____    ______ ____
ROOT
ATOM      1  C   UNL     1       3.697   4.296  19.729  0.00  0.00    +0.000 A 
ATOM      2  C   UNL     1       2.457   4.930  19.883  0.00  0.00    +0.000 A 
ATOM      3  C   UNL     1       1.547   3.962  20.400  0.00  0.00    +0.000 A 
ATOM      4  C   UNL     1       2.239   2.796  20.606  0.00  0.00    +0.000 A 
ATOM      5  N   UNL     1       3.544   3.015  20.251  0.00  0.00    +0.000 N 
ATOM      6  C   UNL     1       4.561   1.988  20.348  0.00  0.00    +0.000 C 
ENDROOT
BRANCH   2   7
ATOM      7  C   UNL     1       2.147   6.327  19.563  0.00  0.00    +0.000 A 
ATOM      8  C   UNL     1       1.682   7.187  20.572  0.00  0.00    +0.000 A 
ATOM      9  C   UNL     1       1.441   8.541  20.308  0.00  0.00    +0.000 A 
ATOM     10  C   UNL     1       1.653   9.045  19.029  0.00  0.00    +0.000 A 
ATOM     11 BR   UNL     1       1.331  10.871  18.668  0.00  0.00    +0.000 Br
ATOM     12  C   UNL     1       2.112   8.209  18.013  0.00  0.00    +0.000 A 
ATOM     13  C   UNL     1       2.373   6.862  18.288  0.00  0.00    +0.000 A 
ENDBRANCH   2   7
BRANCH   1  14
ATOM     14  C   UNL     1       4.899   4.794  19.083  0.00  0.00    +0.000 C 
ATOM     15  O   UNL     1       5.796   5.424  19.624  0.00  0.00    +0.000 OA
BRANCH  14  16
ATOM     16  O   UNL     1       4.869   4.508  17.749  0.00  0.00    +0.000 OA
BRANCH  16  18
ATOM     17  C   UNL     1       5.278   6.027  15.940  0.00  0.00    +0.000 C 
ATOM     18  C   UNL     1       5.911   5.103  16.966  0.00  0.00    +0.000 C 
ENDBRANCH  16  18
ENDBRANCH  14  16
ENDBRANCH   1  14
TORSDOF 4
ENDMDL
