MODEL 1
REMARK VINA RESULT:      -7.6      0.000      0.000
REMARK  Name = 
REMARK  6 active torsions:
REMARK  status: ('A' for Active; 'I' for Inactive)
REMARK    1  A    between atoms: C_1  and  C_2
REMARK    2  A    between atoms: C_2  and  C_3
REMARK    3  A    between atoms: C_3  and  C_4
REMARK    4  A    between atoms: C_4  and  C_5
REMARK    5  A    between atoms: C_5  and  C_6
REMARK    6  A    between atoms: C_6  and  C_7
REMARK                            x       y       z     vdW  Elec       q    Type
REMARK                         _______ _______ _______ _____ _____    ______ ____
ROOT
ATOM      1  C   UNL     1       3.210   5.777  19.386  0.00  0.00    +0.000 A 
ATOM      2  C   UNL     1       2.549   6.865  18.949  0.00  0.00    +0.000 A 
ATOM      3  C   UNL     1       3.027   7.672  17.816  0.00  0.00    +0.000 A 
ATOM      4  O   UNL     1       2.402   8.662  17.454  0.00  0.00    +0.000 OA
ATOM      5  O   UNL     1       4.179   7.270  17.206  0.00  0.00    +0.000 OA
ATOM      6  C   UNL     1       4.857   6.132  17.667  0.00  0.00    +0.000 A 
ATOM      7  N   UNL     1       5.990   5.843  16.969  0.00  0.00    +0.000 N 
ATOM      8  C   UNL     1       6.803   4.789  17.248  0.00  0.00    +0.000 A 
ATOM      9  O   UNL     1       7.814   4.551  16.599  0.00  0.00    +0.000 OA
ATOM     10  N   UNL     1       6.414   4.015  18.300  0.00  0.00    +0.000 N 
ATOM     11  C   UNL     1       5.291   4.209  19.062  0.00  0.00    +0.000 A 
ATOM     12  O   UNL     1       5.031   3.437  19.978  0.00  0.00    +0.000 OA
ATOM     13  C   UNL     1       4.437   5.388  18.705  0.00  0.00    +0.000 A 
ATOM     14  H   UNL     1       6.258   6.436  16.193  0.00  0.00    +0.000 HD
ATOM     15  H   UNL     1       6.996   3.225  18.530  0.00  0.00    +0.000 HD
ENDROOT
BRANCH   1  16
ATOM     16  C   UNL     1       2.657   5.004  20.560  0.00  0.00    +0.000 C 
BRANCH  16  17
ATOM     17  C   UNL     1       1.212   4.566  20.308  0.00  0.00    +0.000 C 
BRANCH  17  18
ATOM     18  C   UNL     1       1.090   3.043  20.277  0.00  0.00    +0.000 C 
BRANCH  18  19
ATOM     19  C   UNL     1       0.885   2.541  18.848  0.00  0.00    +0.000 C 
BRANCH  19  21
ATOM     20  C   UNL     1       2.538   3.027  17.016  0.00  0.00    +0.000 C 
ATOM     21  C   UNL     1       2.210   2.139  18.204  0.00  0.00    +0.000 C 
ENDBRANCH  19  21
ENDBRANCH  18  19
ENDBRANCH  17  18
ENDBRANCH  16  17
ENDBRANCH   1  16
TORSDOF 5
ENDMDL
MODEL 2
REMARK VINA RESULT:      -7.0      3.368      5.437
REMARK  Name = 
REMARK  6 active torsions:
REMARK  status: ('A' for Active; 'I' for Inactive)
REMARK    1  A    between atoms: C_1  and  C_2
REMARK    2  A    between atoms: C_2  and  C_3
REMARK    3  A    between atoms: C_3  and  C_4
REMARK    4  A    between atoms: C_4  and  C_5
REMARK    5  A    between atoms: C_5  and  C_6
REMARK    6  A    between atoms: C_6  and  C_7
REMARK                            x       y       z     vdW  Elec       q    Type
REMARK                         _______ _______ _______ _____ _____    ______ ____
ROOT
ATOM      1  C   UNL     1       5.108   4.340  15.942  0.00  0.00    +0.000 A 
ATOM      2  C   UNL     1       4.044   3.537  16.129  0.00  0.00    +0.000 A 
ATOM      3  C   UNL     1       3.656   3.043  17.459  0.00  0.00    +0.000 A 
ATOM      4  O   UNL     1       2.688   2.305  17.586  0.00  0.00    +0.000 OA
ATOM      5  O   UNL     1       4.419   3.440  18.518  0.00  0.00    +0.000 OA
ATOM      6  C   UNL     1       5.522   4.281  18.312  0.00  0.00    +0.000 A 
ATOM      7  N   UNL     1       6.195   4.600  19.453  0.00  0.00    +0.000 N 
ATOM      8  C   UNL     1       7.296   5.397  19.485  0.00  0.00    +0.000 A 
ATOM      9  O   UNL     1       7.877   5.670  20.528  0.00  0.00    +0.000 OA
ATOM     10  N   UNL     1       7.708   5.871  18.275  0.00  0.00    +0.000 N 
ATOM     11  C   UNL     1       7.102   5.622  17.071  0.00  0.00    +0.000 A 
ATOM     12  O   UNL     1       7.553   6.116  16.044  0.00  0.00    +0.000 OA
ATOM     13  C   UNL     1       5.894   4.735  17.103  0.00  0.00    +0.000 A 
ATOM     14  H   UNL     1       5.868   4.232  20.339  0.00  0.00    +0.000 HD
ATOM     15  H   UNL     1       8.521   6.466  18.268  0.00  0.00    +0.000 HD
ENDROOT
BRANCH   1  16
ATOM     16  C   UNL     1       5.444   4.801  14.543  0.00  0.00    +0.000 C 
BRANCH  16  17
ATOM     17  C   UNL     1       6.521   3.916  13.909  0.00  0.00    +0.000 C 
BRANCH  17  18
ATOM     18  C   UNL     1       6.017   3.262  12.624  0.00  0.00    +0.000 C 
BRANCH  18  19
ATOM     19  C   UNL     1       4.725   3.923  12.144  0.00  0.00    +0.000 C 
BRANCH  19  21
ATOM     20  C   UNL     1       3.231   3.901  10.122  0.00  0.00    +0.000 C 
ATOM     21  C   UNL     1       4.002   3.053  11.119  0.00  0.00    +0.000 C 
ENDBRANCH  19  21
ENDBRANCH  18  19
ENDBRANCH  17  18
ENDBRANCH  16  17
ENDBRANCH   1  16
TORSDOF 5
ENDMDL
MODEL 3
REMARK VINA RESULT:      -6.9      2.559      4.917
REMARK  Name = 
REMARK  6 active torsions:
REMARK  status: ('A' for Active; 'I' for Inactive)
REMARK    1  A    between atoms: C_1  and  C_2
REMARK    2  A    between atoms: C_2  and  C_3
REMARK    3  A    between atoms: C_3  and  C_4
REMARK    4  A    between atoms: C_4  and  C_5
REMARK    5  A    between atoms: C_5  and  C_6
REMARK    6  A    between atoms: C_6  and  C_7
REMARK                            x       y       z     vdW  Elec       q    Type
REMARK                         _______ _______ _______ _____ _____    ______ ____
ROOT
ATOM      1  C   UNL     1       3.624   4.964  17.804  0.00  0.00    +0.000 A 
ATOM      2  C   UNL     1       3.411   6.288  17.693  0.00  0.00    +0.000 A 
ATOM      3  C   UNL     1       2.662   7.051  18.703  0.00  0.00    +0.000 A 
ATOM      4  O   UNL     1       2.480   8.254  18.562  0.00  0.00    +0.000 OA
ATOM      5  O   UNL     1       2.189   6.361  19.780  0.00  0.00    +0.000 OA
ATOM      6  C   UNL     1       2.421   4.982  19.888  0.00  0.00    +0.000 A 
ATOM      7  N   UNL     1       1.895   4.418  21.011  0.00  0.00    +0.000 N 
ATOM      8  C   UNL     1       1.996   3.097  21.314  0.00  0.00    +0.000 A 
ATOM      9  O   UNL     1       1.517   2.619  22.335  0.00  0.00    +0.000 OA
ATOM     10  N   UNL     1       2.670   2.340  20.401  0.00  0.00    +0.000 N 
ATOM     11  C   UNL     1       3.245   2.805  19.248  0.00  0.00    +0.000 A 
ATOM     12  O   UNL     1       3.842   2.031  18.506  0.00  0.00    +0.000 OA
ATOM     13  C   UNL     1       3.097   4.270  18.970  0.00  0.00    +0.000 A 
ATOM     14  H   UNL     1       1.397   5.004  21.671  0.00  0.00    +0.000 HD
ATOM     15  H   UNL     1       2.763   1.356  20.600  0.00  0.00    +0.000 HD
ENDROOT
BRANCH   1  16
ATOM     16  C   UNL     1       4.399   4.251  16.720  0.00  0.00    +0.000 C 
BRANCH  16  17
ATOM     17  C   UNL     1       5.321   5.215  15.968  0.00  0.00    +0.000 C 
BRANCH  17  18
ATOM     18  C   UNL     1       6.720   4.626  15.797  0.00  0.00    +0.000 C 
BRANCH  18  19
ATOM     19  C   UNL     1       7.452   4.558  17.138  0.00  0.00    +0.000 C 
BRANCH  19  21
ATOM     20  C   UNL     1       7.420   5.731  19.362  0.00  0.00    +0.000 C 
ATOM     21  C   UNL     1       7.430   5.907  17.852  0.00  0.00    +0.000 C 
ENDBRANCH  19  21
ENDBRANCH  18  19
ENDBRANCH  17  18
ENDBRANCH  16  17
ENDBRANCH   1  16
TORSDOF 5
ENDMDL
MODEL 4
REMARK VINA RESULT:      -6.8      3.443      5.518
REMARK  Name = 
REMARK  6 active torsions:
REMARK  status: ('A' for Active; 'I' for Inactive)
REMARK    1  A    between atoms: C_1  and  C_2
REMARK    2  A    between atoms: C_2  and  C_3
REMARK    3  A    between atoms: C_3  and  C_4
REMARK    4  A    between atoms: C_4  and  C_5
REMARK    5  A    between atoms: C_5  and  C_6
REMARK    6  A    between atoms: C_6  and  C_7
REMARK                            x       y       z     vdW  Elec       q    Type
REMARK                         _______ _______ _______ _____ _____    ______ ____
ROOT
ATOM      1  C   UNL     1       5.033   4.332  16.089  0.00  0.00    +0.000 A 
ATOM      2  C   UNL     1       3.930   3.596  16.316  0.00  0.00    +0.000 A 
ATOM      3  C   UNL     1       3.540   3.157  17.665  0.00  0.00    +0.000 A 
ATOM      4  O   UNL     1       2.534   2.479  17.829  0.00  0.00    +0.000 OA
ATOM      5  O   UNL     1       4.344   3.538  18.699  0.00  0.00    +0.000 OA
ATOM      6  C   UNL     1       5.488   4.310  18.452  0.00  0.00    +0.000 A 
ATOM      7  N   UNL     1       6.199   4.620  19.573  0.00  0.00    +0.000 N 
ATOM      8  C   UNL     1       7.343   5.353  19.564  0.00  0.00    +0.000 A 
ATOM      9  O   UNL     1       7.959   5.620  20.589  0.00  0.00    +0.000 OA
ATOM     10  N   UNL     1       7.758   5.772  18.335  0.00  0.00    +0.000 N 
ATOM     11  C   UNL     1       7.116   5.527  17.149  0.00  0.00    +0.000 A 
ATOM     12  O   UNL     1       7.575   5.969  16.101  0.00  0.00    +0.000 OA
ATOM     13  C   UNL     1       5.861   4.712  17.225  0.00  0.00    +0.000 A 
ATOM     14  H   UNL     1       5.869   4.293  20.473  0.00  0.00    +0.000 HD
ATOM     15  H   UNL     1       8.603   6.321  18.298  0.00  0.00    +0.000 HD
ENDROOT
BRANCH   1  16
ATOM     16  C   UNL     1       5.368   4.737  14.673  0.00  0.00    +0.000 C 
BRANCH  16  17
ATOM     17  C   UNL     1       6.271   3.703  13.996  0.00  0.00    +0.000 C 
BRANCH  17  18
ATOM     18  C   UNL     1       6.321   3.913  12.484  0.00  0.00    +0.000 C 
BRANCH  18  19
ATOM     19  C   UNL     1       5.268   3.058  11.778  0.00  0.00    +0.000 C 
BRANCH  19  21
ATOM     20  C   UNL     1       7.240   1.724  10.969  0.00  0.00    +0.000 C 
ATOM     21  C   UNL     1       5.805   1.663  11.463  0.00  0.00    +0.000 C 
ENDBRANCH  19  21
ENDBRANCH  18  19
ENDBRANCH  17  18
ENDBRANCH  16  17
ENDBRANCH   1  16
TORSDOF 5
ENDMDL
MODEL 5
REMARK VINA RESULT:      -6.8      2.955      4.863
REMARK  Name = 
REMARK  6 active torsions:
REMARK  status: ('A' for Active; 'I' for Inactive)
REMARK    1  A    between atoms: C_1  and  C_2
REMARK    2  A    between atoms: C_2  and  C_3
REMARK    3  A    between atoms: C_3  and  C_4
REMARK    4  A    between atoms: C_4  and  C_5
REMARK    5  A    between atoms: C_5  and  C_6
REMARK    6  A    between atoms: C_6  and  C_7
REMARK                            x       y       z     vdW  Elec       q    Type
REMARK                         _______ _______ _______ _____ _____    ______ ____
ROOT
ATOM      1  C   UNL     1       4.005   4.851  17.677  0.00  0.00    +0.000 A 
ATOM      2  C   UNL     1       3.811   6.158  17.427  0.00  0.00    +0.000 A 
ATOM      3  C   UNL     1       3.026   7.022  18.322  0.00  0.00    +0.000 A 
ATOM      4  O   UNL     1       2.864   8.206  18.055  0.00  0.00    +0.000 OA
ATOM      5  O   UNL     1       2.500   6.445  19.441  0.00  0.00    +0.000 OA
ATOM      6  C   UNL     1       2.712   5.082  19.694  0.00  0.00    +0.000 A 
ATOM      7  N   UNL     1       2.132   4.636  20.843  0.00  0.00    +0.000 N 
ATOM      8  C   UNL     1       2.205   3.350  21.278  0.00  0.00    +0.000 A 
ATOM      9  O   UNL     1       1.677   2.979  22.319  0.00  0.00    +0.000 OA
ATOM     10  N   UNL     1       2.910   2.503  20.476  0.00  0.00    +0.000 N 
ATOM     11  C   UNL     1       3.541   2.847  19.309  0.00  0.00    +0.000 A 
ATOM     12  O   UNL     1       4.161   2.000  18.675  0.00  0.00    +0.000 OA
ATOM     13  C   UNL     1       3.421   4.279  18.882  0.00  0.00    +0.000 A 
ATOM     14  H   UNL     1       1.611   5.287  21.419  0.00  0.00    +0.000 HD
ATOM     15  H   UNL     1       2.984   1.543  20.775  0.00  0.00    +0.000 HD
ENDROOT
BRANCH   1  16
ATOM     16  C   UNL     1       4.819   4.029  16.705  0.00  0.00    +0.000 C 
BRANCH  16  17
ATOM     17  C   UNL     1       6.169   4.690  16.411  0.00  0.00    +0.000 C 
BRANCH  17  18
ATOM     18  C   UNL     1       6.677   4.319  15.019  0.00  0.00    +0.000 C 
BRANCH  18  19
ATOM     19  C   UNL     1       5.517   4.178  14.033  0.00  0.00    +0.000 C 
BRANCH  19  21
ATOM     20  C   UNL     1       4.789   3.264  11.806  0.00  0.00    +0.000 C 
ATOM     21  C   UNL     1       5.963   3.491  12.745  0.00  0.00    +0.000 C 
ENDBRANCH  19  21
ENDBRANCH  18  19
ENDBRANCH  17  18
ENDBRANCH  16  17
ENDBRANCH   1  16
TORSDOF 5
ENDMDL
MODEL 6
REMARK VINA RESULT:      -6.7      3.287      5.503
REMARK  Name = 
REMARK  6 active torsions:
REMARK  status: ('A' for Active; 'I' for Inactive)
REMARK    1  A    between atoms: C_1  and  C_2
REMARK    2  A    between atoms: C_2  and  C_3
REMARK    3  A    between atoms: C_3  and  C_4
REMARK    4  A    between atoms: C_4  and  C_5
REMARK    5  A    between atoms: C_5  and  C_6
REMARK    6  A    between atoms: C_6  and  C_7
REMARK                            x       y       z     vdW  Elec       q    Type
REMARK                         _______ _______ _______ _____ _____    ______ ____
ROOT
ATOM      1  C   UNL     1       5.455   4.287  17.138  0.00  0.00    +0.000 A 
ATOM      2  C   UNL     1       6.660   4.745  17.523  0.00  0.00    +0.000 A 
ATOM      3  C   UNL     1       6.862   5.454  18.796  0.00  0.00    +0.000 A 
ATOM      4  O   UNL     1       7.973   5.865  19.107  0.00  0.00    +0.000 OA
ATOM      5  O   UNL     1       5.768   5.627  19.593  0.00  0.00    +0.000 OA
ATOM      6  C   UNL     1       4.518   5.140  19.184  0.00  0.00    +0.000 A 
ATOM      7  N   UNL     1       3.514   5.379  20.073  0.00  0.00    +0.000 N 
ATOM      8  C   UNL     1       2.223   5.001  19.877  0.00  0.00    +0.000 A 
ATOM      9  O   UNL     1       1.342   5.226  20.697  0.00  0.00    +0.000 OA
ATOM     10  N   UNL     1       1.978   4.352  18.703  0.00  0.00    +0.000 N 
ATOM     11  C   UNL     1       2.912   4.052  17.747  0.00  0.00    +0.000 A 
ATOM     12  O   UNL     1       2.578   3.448  16.733  0.00  0.00    +0.000 OA
ATOM     13  C   UNL     1       4.316   4.497  18.021  0.00  0.00    +0.000 A 
ATOM     14  H   UNL     1       3.724   5.866  20.937  0.00  0.00    +0.000 HD
ATOM     15  H   UNL     1       1.029   4.057  18.531  0.00  0.00    +0.000 HD
ENDROOT
BRANCH   1  16
ATOM     16  C   UNL     1       5.329   3.573  15.813  0.00  0.00    +0.000 C 
BRANCH  16  17
ATOM     17  C   UNL     1       5.477   4.547  14.640  0.00  0.00    +0.000 C 
BRANCH  17  18
ATOM     18  C   UNL     1       6.782   4.310  13.882  0.00  0.00    +0.000 C 
BRANCH  18  19
ATOM     19  C   UNL     1       6.513   4.043  12.401  0.00  0.00    +0.000 C 
BRANCH  19  21
ATOM     20  C   UNL     1       4.332   3.307  11.390  0.00  0.00    +0.000 C 
ATOM     21  C   UNL     1       5.537   2.885  12.213  0.00  0.00    +0.000 C 
ENDBRANCH  19  21
ENDBRANCH  18  19
ENDBRANCH  17  18
ENDBRANCH  16  17
ENDBRANCH   1  16
TORSDOF 5
ENDMDL
MODEL 7
REMARK VINA RESULT:      -6.7      2.191      3.693
REMARK  Name = 
REMARK  6 active torsions:
REMARK  status: ('A' for Active; 'I' for Inactive)
REMARK    1  A    between atoms: C_1  and  C_2
REMARK    2  A    between atoms: C_2  and  C_3
REMARK    3  A    between atoms: C_3  and  C_4
REMARK    4  A    between atoms: C_4  and  C_5
REMARK    5  A    between atoms: C_5  and  C_6
REMARK    6  A    between atoms: C_6  and  C_7
REMARK                            x       y       z     vdW  Elec       q    Type
REMARK                         _______ _______ _______ _____ _____    ______ ____
ROOT
ATOM      1  C   UNL     1       5.072   3.846  16.603  0.00  0.00    +0.000 A 
ATOM      2  C   UNL     1       5.214   3.506  15.309  0.00  0.00    +0.000 A 
ATOM      3  C   UNL     1       6.184   4.169  14.423  0.00  0.00    +0.000 A 
ATOM      4  O   UNL     1       6.277   3.838  13.248  0.00  0.00    +0.000 OA
ATOM      5  O   UNL     1       6.955   5.153  14.970  0.00  0.00    +0.000 OA
ATOM      6  C   UNL     1       6.801   5.496  16.321  0.00  0.00    +0.000 A 
ATOM      7  N   UNL     1       7.633   6.492  16.737  0.00  0.00    +0.000 N 
ATOM      8  C   UNL     1       7.649   6.985  18.003  0.00  0.00    +0.000 A 
ATOM      9  O   UNL     1       8.412   7.879  18.349  0.00  0.00    +0.000 OA
ATOM     10  N   UNL     1       6.758   6.415  18.863  0.00  0.00    +0.000 N 
ATOM     11  C   UNL     1       5.886   5.403  18.553  0.00  0.00    +0.000 A 
ATOM     12  O   UNL     1       5.137   4.955  19.415  0.00  0.00    +0.000 OA
ATOM     13  C   UNL     1       5.915   4.904  17.140  0.00  0.00    +0.000 A 
ATOM     14  H   UNL     1       8.284   6.900  16.076  0.00  0.00    +0.000 HD
ATOM     15  H   UNL     1       6.748   6.758  19.810  0.00  0.00    +0.000 HD
ENDROOT
BRANCH   1  16
ATOM     16  C   UNL     1       4.049   3.121  17.445  0.00  0.00    +0.000 C 
BRANCH  16  17
ATOM     17  C   UNL     1       2.623   3.436  16.984  0.00  0.00    +0.000 C 
BRANCH  17  18
ATOM     18  C   UNL     1       1.777   3.986  18.131  0.00  0.00    +0.000 C 
BRANCH  18  19
ATOM     19  C   UNL     1       1.220   2.852  18.992  0.00  0.00    +0.000 C 
BRANCH  19  21
ATOM     20  C   UNL     1       1.618   4.685  20.666  0.00  0.00    +0.000 C 
ATOM     21  C   UNL     1       1.147   3.255  20.463  0.00  0.00    +0.000 C 
ENDBRANCH  19  21
ENDBRANCH  18  19
ENDBRANCH  17  18
ENDBRANCH  16  17
ENDBRANCH   1  16
TORSDOF 5
ENDMDL
MODEL 8
REMARK VINA RESULT:      -6.6      2.567      4.694
REMARK  Name = 
REMARK  6 active torsions:
REMARK  status: ('A' for Active; 'I' for Inactive)
REMARK    1  A    between atoms: C_1  and  C_2
REMARK    2  A    between atoms: C_2  and  C_3
REMARK    3  A    between atoms: C_3  and  C_4
REMARK    4  A    between atoms: C_4  and  C_5
REMARK    5  A    between atoms: C_5  and  C_6
REMARK    6  A    between atoms: C_6  and  C_7
REMARK                            x       y       z     vdW  Elec       q    Type
REMARK                         _______ _______ _______ _____ _____    ______ ____
ROOT
ATOM      1  C   UNL     1       3.486   5.826  18.071  0.00  0.00    +0.000 A 
ATOM      2  C   UNL     1       3.042   7.095  18.138  0.00  0.00    +0.000 A 
ATOM      3  C   UNL     1       2.194   7.574  19.240  0.00  0.00    +0.000 A 
ATOM      4  O   UNL     1       1.802   8.734  19.260  0.00  0.00    +0.000 OA
ATOM      5  O   UNL     1       1.875   6.676  20.216  0.00  0.00    +0.000 OA
ATOM      6  C   UNL     1       2.347   5.358  20.139  0.00  0.00    +0.000 A 
ATOM      7  N   UNL     1       1.955   4.568  21.177  0.00  0.00    +0.000 N 
ATOM      8  C   UNL     1       2.293   3.257  21.301  0.00  0.00    +0.000 A 
ATOM      9  O   UNL     1       1.929   2.573  22.250  0.00  0.00    +0.000 OA
ATOM     10  N   UNL     1       3.066   2.757  20.296  0.00  0.00    +0.000 N 
ATOM     11  C   UNL     1       3.524   3.463  19.214  0.00  0.00    +0.000 A 
ATOM     12  O   UNL     1       4.229   2.911  18.376  0.00  0.00    +0.000 OA
ATOM     13  C   UNL     1       3.116   4.903  19.134  0.00  0.00    +0.000 A 
ATOM     14  H   UNL     1       1.378   4.965  21.910  0.00  0.00    +0.000 HD
ATOM     15  H   UNL     1       3.335   1.788  20.362  0.00  0.00    +0.000 HD
ENDROOT
BRANCH   1  16
ATOM     16  C   UNL     1       4.347   5.410  16.902  0.00  0.00    +0.000 C 
BRANCH  16  17
ATOM     17  C   UNL     1       5.784   5.916  17.060  0.00  0.00    +0.000 C 
BRANCH  17  18
ATOM     18  C   UNL     1       6.798   4.833  16.696  0.00  0.00    +0.000 C 
BRANCH  18  19
ATOM     19  C   UNL     1       6.274   3.953  15.562  0.00  0.00    +0.000 C 
BRANCH  19  21
ATOM     20  C   UNL     1       6.109   3.661  13.070  0.00  0.00    +0.000 C 
ATOM     21  C   UNL     1       6.673   4.509  14.197  0.00  0.00    +0.000 C 
ENDBRANCH  19  21
ENDBRANCH  18  19
ENDBRANCH  17  18
ENDBRANCH  16  17
ENDBRANCH   1  16
TORSDOF 5
ENDMDL
MODEL 9
REMARK VINA RESULT:      -6.6      3.158      5.397
REMARK  Name = 
REMARK  6 active torsions:
REMARK  status: ('A' for Active; 'I' for Inactive)
REMARK    1  A    between atoms: C_1  and  C_2
REMARK    2  A    between atoms: C_2  and  C_3
REMARK    3  A    between atoms: C_3  and  C_4
REMARK    4  A    between atoms: C_4  and  C_5
REMARK    5  A    between atoms: C_5  and  C_6
REMARK    6  A    between atoms: C_6  and  C_7
REMARK                            x       y       z     vdW  Elec       q    Type
REMARK                         _______ _______ _______ _____ _____    ______ ____
ROOT
ATOM      1  C   UNL     1       5.859   5.400  16.875  0.00  0.00    +0.000 A 
ATOM      2  C   UNL     1       6.930   6.080  17.322  0.00  0.00    +0.000 A 
ATOM      3  C   UNL     1       7.379   6.010  18.721  0.00  0.00    +0.000 A 
ATOM      4  O   UNL     1       8.353   6.652  19.093  0.00  0.00    +0.000 OA
ATOM      5  O   UNL     1       6.665   5.209  19.564  0.00  0.00    +0.000 OA
ATOM      6  C   UNL     1       5.553   4.500  19.086  0.00  0.00    +0.000 A 
ATOM      7  N   UNL     1       4.933   3.740  20.031  0.00  0.00    +0.000 N 
ATOM      8  C   UNL     1       3.834   2.978  19.789  0.00  0.00    +0.000 A 
ATOM      9  O   UNL     1       3.301   2.300  20.659  0.00  0.00    +0.000 OA
ATOM     10  N   UNL     1       3.367   3.019  18.509  0.00  0.00    +0.000 N 
ATOM     11  C   UNL     1       3.918   3.739  17.481  0.00  0.00    +0.000 A 
ATOM     12  O   UNL     1       3.420   3.689  16.361  0.00  0.00    +0.000 OA
ATOM     13  C   UNL     1       5.127   4.561  17.813  0.00  0.00    +0.000 A 
ATOM     14  H   UNL     1       5.300   3.730  20.976  0.00  0.00    +0.000 HD
ATOM     15  H   UNL     1       2.554   2.462  18.298  0.00  0.00    +0.000 HD
ENDROOT
BRANCH   1  16
ATOM     16  C   UNL     1       5.459   5.531  15.424  0.00  0.00    +0.000 C 
BRANCH  16  17
ATOM     17  C   UNL     1       6.559   5.013  14.494  0.00  0.00    +0.000 C 
BRANCH  17  18
ATOM     18  C   UNL     1       6.203   3.641  13.922  0.00  0.00    +0.000 C 
BRANCH  18  19
ATOM     19  C   UNL     1       6.341   3.632  12.399  0.00  0.00    +0.000 C 
BRANCH  19  21
ATOM     20  C   UNL     1       4.113   3.259  11.294  0.00  0.00    +0.000 C 
ATOM     21  C   UNL     1       5.403   2.608  11.763  0.00  0.00    +0.000 C 
ENDBRANCH  19  21
ENDBRANCH  18  19
ENDBRANCH  17  18
ENDBRANCH  16  17
ENDBRANCH   1  16
TORSDOF 5
ENDMDL
