MODEL 1
REMARK VINA RESULT:      -7.1      0.000      0.000
REMARK  Name = 
REMARK  10 active torsions:
REMARK  status: ('A' for Active; 'I' for Inactive)
REMARK    1  A    between atoms: C_1  and  C_2
REMARK    2  A    between atoms: C_2  and  C_3
REMARK    3  A    between atoms: C_3  and  C_4
REMARK    4  A    between atoms: C_4  and  C_5
REMARK    5  A    between atoms: C_5  and  C_6
REMARK    6  A    between atoms: C_6  and  C_7
REMARK    7  A    between atoms: C_6  and  S_12
REMARK    8  A    between atoms: C_7  and  C_8
REMARK    9  A    between atoms: N_10  and  O_11
REMARK   10  A    between atoms: S_12  and  C_15
REMARK                            x       y       z     vdW  Elec       q    Type
REMARK                         _______ _______ _______ _____ _____    ______ ____
ROOT
ATOM      1  C   UNL     1       5.780   4.848  17.058  0.00  0.00    +0.000 C 
ENDROOT
BRANCH   1   2
ATOM      2  S   UNL     1       4.416   5.493  18.065  0.00  0.00    +0.000 S 
ATOM      3  O   UNL     1       4.911   5.816  19.387  0.00  0.00    +0.000 OA
ATOM      4  O   UNL     1       3.737   6.510  17.283  0.00  0.00    +0.000 OA
BRANCH   2   5
ATOM      5  C   UNL     1       3.308   4.118  18.268  0.00  0.00    +0.000 A 
ATOM      6  C   UNL     1       1.931   4.358  18.306  0.00  0.00    +0.000 A 
ATOM      7  C   UNL     1       1.052   3.286  18.463  0.00  0.00    +0.000 A 
ATOM      8  C   UNL     1       1.549   1.987  18.569  0.00  0.00    +0.000 A 
ATOM      9  C   UNL     1       2.925   1.751  18.514  0.00  0.00    +0.000 A 
ATOM     10  C   UNL     1       3.811   2.818  18.362  0.00  0.00    +0.000 A 
ENDBRANCH   2   5
ENDBRANCH   1   2
BRANCH   1  11
ATOM     11  C   UNL     1       5.392   4.905  15.564  0.00  0.00    +0.000 C 
BRANCH  11  12
ATOM     12  C   UNL     1       5.977   3.816  14.661  0.00  0.00    +0.000 C 
BRANCH  12  13
ATOM     13  C   UNL     1       6.149   4.245  13.204  0.00  0.00    +0.000 C 
BRANCH  13  15
ATOM     14  C   UNL     1       4.473   3.306  11.560  0.00  0.00    +0.000 C 
ATOM     15  C   UNL     1       5.800   3.087  12.267  0.00  0.00    +0.000 C 
ENDBRANCH  13  15
ENDBRANCH  12  13
ENDBRANCH  11  12
ENDBRANCH   1  11
BRANCH   1  16
ATOM     16  C   UNL     1       7.043   5.674  17.338  0.00  0.00    +0.000 C 
BRANCH  16  17
ATOM     17  C   UNL     1       7.964   5.036  18.356  0.00  0.00    +0.000 C 
ATOM     18  O   UNL     1       8.700   4.092  18.082  0.00  0.00    +0.000 OA
ATOM     19  N   UNL     1       7.961   5.658  19.583  0.00  0.00    +0.000 N 
ATOM     20  H   UNL     1       7.111   6.088  19.945  0.00  0.00    +0.000 HD
BRANCH  19  21
ATOM     21  O   UNL     1       8.788   5.065  20.564  0.00  0.00    +0.000 OA
ATOM     22  H   UNL     1       8.221   5.083  21.365  0.00  0.00    +0.000 HD
ENDBRANCH  19  21
ENDBRANCH  16  17
ENDBRANCH   1  16
TORSDOF 9
ENDMDL
MODEL 2
REMARK VINA RESULT:      -7.0      3.333      5.404
REMARK  Name = 
REMARK  10 active torsions:
REMARK  status: ('A' for Active; 'I' for Inactive)
REMARK    1  A    between atoms: C_1  and  C_2
REMARK    2  A    between atoms: C_2  and  C_3
REMARK    3  A    between atoms: C_3  and  C_4
REMARK    4  A    between atoms: C_4  and  C_5
REMARK    5  A    between atoms: C_5  and  C_6
REMARK    6  A    between atoms: C_6  and  C_7
REMARK    7  A    between atoms: C_6  and  S_12
REMARK    8  A    between atoms: C_7  and  C_8
REMARK    9  A    between atoms: N_10  and  O_11
REMARK   10  A    between atoms: S_12  and  C_15
REMARK                            x       y       z     vdW  Elec       q    Type
REMARK                         _______ _______ _______ _____ _____    ______ ____
ROOT
ATOM      1  C   UNL     1       6.295   5.378  16.930  0.00  0.00    +0.000 C 
ENDROOT
BRANCH   1   2
ATOM      2  S   UNL     1       5.068   4.646  18.048  0.00  0.00    +0.000 S 
ATOM      3  O   UNL     1       4.325   3.625  17.338  0.00  0.00    +0.000 OA
ATOM      4  O   UNL     1       5.747   4.311  19.286  0.00  0.00    +0.000 OA
BRANCH   2   5
ATOM      5  C   UNL     1       3.916   5.958  18.384  0.00  0.00    +0.000 A 
ATOM      6  C   UNL     1       3.155   5.907  19.556  0.00  0.00    +0.000 A 
ATOM      7  C   UNL     1       2.249   6.932  19.831  0.00  0.00    +0.000 A 
ATOM      8  C   UNL     1       2.119   8.003  18.946  0.00  0.00    +0.000 A 
ATOM      9  C   UNL     1       2.894   8.057  17.785  0.00  0.00    +0.000 A 
ATOM     10  C   UNL     1       3.798   7.033  17.500  0.00  0.00    +0.000 A 
ENDBRANCH   2   5
ENDBRANCH   1   2
BRANCH   1  11
ATOM     11  C   UNL     1       7.377   6.107  17.758  0.00  0.00    +0.000 C 
BRANCH  11  12
ATOM     12  C   UNL     1       7.570   7.598  17.472  0.00  0.00    +0.000 C 
BRANCH  12  13
ATOM     13  C   UNL     1       8.414   8.327  18.517  0.00  0.00    +0.000 C 
BRANCH  13  15
ATOM     14  C   UNL     1       9.486  10.545  19.088  0.00  0.00    +0.000 C 
ATOM     15  C   UNL     1       8.528   9.811  18.164  0.00  0.00    +0.000 C 
ENDBRANCH  13  15
ENDBRANCH  12  13
ENDBRANCH  11  12
ENDBRANCH   1  11
BRANCH   1  16
ATOM     16  C   UNL     1       6.908   4.268  16.065  0.00  0.00    +0.000 C 
BRANCH  16  17
ATOM     17  C   UNL     1       6.967   4.618  14.594  0.00  0.00    +0.000 C 
ATOM     18  O   UNL     1       6.139   4.211  13.783  0.00  0.00    +0.000 OA
ATOM     19  N   UNL     1       7.976   5.494  14.265  0.00  0.00    +0.000 N 
ATOM     20  H   UNL     1       8.864   5.473  14.764  0.00  0.00    +0.000 HD
BRANCH  19  21
ATOM     21  O   UNL     1       8.075   5.815  12.892  0.00  0.00    +0.000 OA
ATOM     22  H   UNL     1       7.261   6.341  12.734  0.00  0.00    +0.000 HD
ENDBRANCH  19  21
ENDBRANCH  16  17
ENDBRANCH   1  16
TORSDOF 9
ENDMDL
MODEL 3
REMARK VINA RESULT:      -7.0      0.369      1.180
REMARK  Name = 
REMARK  10 active torsions:
REMARK  status: ('A' for Active; 'I' for Inactive)
REMARK    1  A    between atoms: C_1  and  C_2
REMARK    2  A    between atoms: C_2  and  C_3
REMARK    3  A    between atoms: C_3  and  C_4
REMARK    4  A    between atoms: C_4  and  C_5
REMARK    5  A    between atoms: C_5  and  C_6
REMARK    6  A    between atoms: C_6  and  C_7
REMARK    7  A    between atoms: C_6  and  S_12
REMARK    8  A    between atoms: C_7  and  C_8
REMARK    9  A    between atoms: N_10  and  O_11
REMARK   10  A    between atoms: S_12  and  C_15
REMARK                            x       y       z     vdW  Elec       q    Type
REMARK                         _______ _______ _______ _____ _____    ______ ____
ROOT
ATOM      1  C   UNL     1       5.862   4.913  16.928  0.00  0.00    +0.000 C 
ENDROOT
BRANCH   1   2
ATOM      2  S   UNL     1       4.470   5.620  17.851  0.00  0.00    +0.000 S 
ATOM      3  O   UNL     1       4.916   5.987  19.180  0.00  0.00    +0.000 OA
ATOM      4  O   UNL     1       3.842   6.616  17.003  0.00  0.00    +0.000 OA
BRANCH   2   5
ATOM      5  C   UNL     1       3.330   4.272  18.062  0.00  0.00    +0.000 A 
ATOM      6  C   UNL     1       3.813   2.961  17.993  0.00  0.00    +0.000 A 
ATOM      7  C   UNL     1       2.927   1.895  18.159  0.00  0.00    +0.000 A 
ATOM      8  C   UNL     1       1.576   2.142  18.403  0.00  0.00    +0.000 A 
ATOM      9  C   UNL     1       1.104   3.454  18.487  0.00  0.00    +0.000 A 
ATOM     10  C   UNL     1       1.981   4.526  18.317  0.00  0.00    +0.000 A 
ENDBRANCH   2   5
ENDBRANCH   1   2
BRANCH   1  11
ATOM     11  C   UNL     1       5.557   4.963  15.414  0.00  0.00    +0.000 C 
BRANCH  11  12
ATOM     12  C   UNL     1       5.923   3.720  14.600  0.00  0.00    +0.000 C 
BRANCH  12  13
ATOM     13  C   UNL     1       6.304   4.019  13.150  0.00  0.00    +0.000 C 
BRANCH  13  15
ATOM     14  C   UNL     1       5.832   2.096  11.576  0.00  0.00    +0.000 C 
ATOM     15  C   UNL     1       5.295   3.376  12.195  0.00  0.00    +0.000 C 
ENDBRANCH  13  15
ENDBRANCH  12  13
ENDBRANCH  11  12
ENDBRANCH   1  11
BRANCH   1  16
ATOM     16  C   UNL     1       7.137   5.699  17.266  0.00  0.00    +0.000 C 
BRANCH  16  17
ATOM     17  C   UNL     1       7.992   5.030  18.321  0.00  0.00    +0.000 C 
ATOM     18  O   UNL     1       8.685   4.044  18.084  0.00  0.00    +0.000 OA
ATOM     19  N   UNL     1       7.983   5.670  19.538  0.00  0.00    +0.000 N 
ATOM     20  H   UNL     1       7.146   6.149  19.868  0.00  0.00    +0.000 HD
BRANCH  19  21
ATOM     21  O   UNL     1       8.748   5.050  20.553  0.00  0.00    +0.000 OA
ATOM     22  H   UNL     1       9.668   5.290  20.308  0.00  0.00    +0.000 HD
ENDBRANCH  19  21
ENDBRANCH  16  17
ENDBRANCH   1  16
TORSDOF 9
ENDMDL
MODEL 4
REMARK VINA RESULT:      -6.9      2.970      4.897
REMARK  Name = 
REMARK  10 active torsions:
REMARK  status: ('A' for Active; 'I' for Inactive)
REMARK    1  A    between atoms: C_1  and  C_2
REMARK    2  A    between atoms: C_2  and  C_3
REMARK    3  A    between atoms: C_3  and  C_4
REMARK    4  A    between atoms: C_4  and  C_5
REMARK    5  A    between atoms: C_5  and  C_6
REMARK    6  A    between atoms: C_6  and  C_7
REMARK    7  A    between atoms: C_6  and  S_12
REMARK    8  A    between atoms: C_7  and  C_8
REMARK    9  A    between atoms: N_10  and  O_11
REMARK   10  A    between atoms: S_12  and  C_15
REMARK                            x       y       z     vdW  Elec       q    Type
REMARK                         _______ _______ _______ _____ _____    ______ ____
ROOT
ATOM      1  C   UNL     1       4.183   5.669  17.765  0.00  0.00    +0.000 C 
ENDROOT
BRANCH   1   2
ATOM      2  S   UNL     1       4.499   3.952  18.262  0.00  0.00    +0.000 S 
ATOM      3  O   UNL     1       4.406   3.095  17.098  0.00  0.00    +0.000 OA
ATOM      4  O   UNL     1       5.707   3.944  19.067  0.00  0.00    +0.000 OA
BRANCH   2   5
ATOM      5  C   UNL     1       3.130   3.521  19.310  0.00  0.00    +0.000 A 
ATOM      6  C   UNL     1       3.346   3.392  20.686  0.00  0.00    +0.000 A 
ATOM      7  C   UNL     1       2.278   3.055  21.519  0.00  0.00    +0.000 A 
ATOM      8  C   UNL     1       1.006   2.863  20.979  0.00  0.00    +0.000 A 
ATOM      9  C   UNL     1       0.793   3.010  19.606  0.00  0.00    +0.000 A 
ATOM     10  C   UNL     1       1.856   3.341  18.765  0.00  0.00    +0.000 A 
ENDBRANCH   2   5
ENDBRANCH   1   2
BRANCH   1  11
ATOM     11  C   UNL     1       3.407   6.396  18.886  0.00  0.00    +0.000 C 
BRANCH  11  12
ATOM     12  C   UNL     1       2.154   7.166  18.463  0.00  0.00    +0.000 C 
BRANCH  12  13
ATOM     13  C   UNL     1       2.448   8.494  17.767  0.00  0.00    +0.000 C 
BRANCH  13  15
ATOM     14  C   UNL     1       0.952   9.585  19.489  0.00  0.00    +0.000 C 
ATOM     15  C   UNL     1       1.309   9.486  18.016  0.00  0.00    +0.000 C 
ENDBRANCH  13  15
ENDBRANCH  12  13
ENDBRANCH  11  12
ENDBRANCH   1  11
BRANCH   1  16
ATOM     16  C   UNL     1       5.523   6.360  17.475  0.00  0.00    +0.000 C 
BRANCH  16  17
ATOM     17  C   UNL     1       6.010   6.151  16.058  0.00  0.00    +0.000 C 
ATOM     18  O   UNL     1       5.326   6.424  15.075  0.00  0.00    +0.000 OA
ATOM     19  N   UNL     1       7.310   5.707  15.971  0.00  0.00    +0.000 N 
ATOM     20  H   UNL     1       7.695   5.086  16.681  0.00  0.00    +0.000 HD
BRANCH  19  21
ATOM     21  O   UNL     1       7.783   5.473  14.660  0.00  0.00    +0.000 OA
ATOM     22  H   UNL     1       7.474   4.559  14.479  0.00  0.00    +0.000 HD
ENDBRANCH  19  21
ENDBRANCH  16  17
ENDBRANCH   1  16
TORSDOF 9
ENDMDL
MODEL 5
REMARK VINA RESULT:      -6.8      1.491      1.883
REMARK  Name = 
REMARK  10 active torsions:
REMARK  status: ('A' for Active; 'I' for Inactive)
REMARK    1  A    between atoms: C_1  and  C_2
REMARK    2  A    between atoms: C_2  and  C_3
REMARK    3  A    between atoms: C_3  and  C_4
REMARK    4  A    between atoms: C_4  and  C_5
REMARK    5  A    between atoms: C_5  and  C_6
REMARK    6  A    between atoms: C_6  and  C_7
REMARK    7  A    between atoms: C_6  and  S_12
REMARK    8  A    between atoms: C_7  and  C_8
REMARK    9  A    between atoms: N_10  and  O_11
REMARK   10  A    between atoms: S_12  and  C_15
REMARK                            x       y       z     vdW  Elec       q    Type
REMARK                         _______ _______ _______ _____ _____    ______ ____
ROOT
ATOM      1  C   UNL     1       5.538   4.284  17.308  0.00  0.00    +0.000 C 
ENDROOT
BRANCH   1   2
ATOM      2  S   UNL     1       4.523   5.292  18.425  0.00  0.00    +0.000 S 
ATOM      3  O   UNL     1       5.238   5.490  19.670  0.00  0.00    +0.000 OA
ATOM      4  O   UNL     1       4.055   6.442  17.674  0.00  0.00    +0.000 OA
BRANCH   2   5
ATOM      5  C   UNL     1       3.120   4.272  18.811  0.00  0.00    +0.000 A 
ATOM      6  C   UNL     1       3.055   2.980  18.279  0.00  0.00    +0.000 A 
ATOM      7  C   UNL     1       1.958   2.171  18.577  0.00  0.00    +0.000 A 
ATOM      8  C   UNL     1       0.945   2.647  19.409  0.00  0.00    +0.000 A 
ATOM      9  C   UNL     1       1.024   3.932  19.951  0.00  0.00    +0.000 A 
ATOM     10  C   UNL     1       2.114   4.751  19.654  0.00  0.00    +0.000 A 
ENDBRANCH   2   5
ENDBRANCH   1   2
BRANCH   1  11
ATOM     11  C   UNL     1       5.097   4.529  15.848  0.00  0.00    +0.000 C 
BRANCH  11  12
ATOM     12  C   UNL     1       5.608   3.535  14.802  0.00  0.00    +0.000 C 
BRANCH  12  13
ATOM     13  C   UNL     1       6.103   4.191  13.513  0.00  0.00    +0.000 C 
BRANCH  13  15
ATOM     14  C   UNL     1       4.595   3.324  11.678  0.00  0.00    +0.000 C 
ATOM     15  C   UNL     1       5.960   3.222  12.338  0.00  0.00    +0.000 C 
ENDBRANCH  13  15
ENDBRANCH  12  13
ENDBRANCH  11  12
ENDBRANCH   1  11
BRANCH   1  16
ATOM     16  C   UNL     1       7.016   4.646  17.512  0.00  0.00    +0.000 C 
BRANCH  16  17
ATOM     17  C   UNL     1       7.390   5.992  16.928  0.00  0.00    +0.000 C 
ATOM     18  O   UNL     1       7.738   6.132  15.759  0.00  0.00    +0.000 OA
ATOM     19  N   UNL     1       7.227   7.045  17.798  0.00  0.00    +0.000 N 
ATOM     20  H   UNL     1       7.385   6.923  18.797  0.00  0.00    +0.000 HD
BRANCH  19  21
ATOM     21  O   UNL     1       7.598   8.312  17.290  0.00  0.00    +0.000 OA
ATOM     22  H   UNL     1       6.800   8.586  16.789  0.00  0.00    +0.000 HD
ENDBRANCH  19  21
ENDBRANCH  16  17
ENDBRANCH   1  16
TORSDOF 9
ENDMDL
MODEL 6
REMARK VINA RESULT:      -6.8      3.036      5.056
REMARK  Name = 
REMARK  10 active torsions:
REMARK  status: ('A' for Active; 'I' for Inactive)
REMARK    1  A    between atoms: C_1  and  C_2
REMARK    2  A    between atoms: C_2  and  C_3
REMARK    3  A    between atoms: C_3  and  C_4
REMARK    4  A    between atoms: C_4  and  C_5
REMARK    5  A    between atoms: C_5  and  C_6
REMARK    6  A    between atoms: C_6  and  C_7
REMARK    7  A    between atoms: C_6  and  S_12
REMARK    8  A    between atoms: C_7  and  C_8
REMARK    9  A    between atoms: N_10  and  O_11
REMARK   10  A    between atoms: S_12  and  C_15
REMARK                            x       y       z     vdW  Elec       q    Type
REMARK                         _______ _______ _______ _____ _____    ______ ____
ROOT
ATOM      1  C   UNL     1       6.074   4.785  16.895  0.00  0.00    +0.000 C 
ENDROOT
BRANCH   1   2
ATOM      2  S   UNL     1       4.791   4.225  18.050  0.00  0.00    +0.000 S 
ATOM      3  O   UNL     1       3.912   3.296  17.372  0.00  0.00    +0.000 OA
ATOM      4  O   UNL     1       5.453   3.824  19.278  0.00  0.00    +0.000 OA
BRANCH   2   5
ATOM      5  C   UNL     1       3.820   5.674  18.390  0.00  0.00    +0.000 A 
ATOM      6  C   UNL     1       3.821   6.723  17.464  0.00  0.00    +0.000 A 
ATOM      7  C   UNL     1       3.060   7.864  17.721  0.00  0.00    +0.000 A 
ATOM      8  C   UNL     1       2.298   7.947  18.886  0.00  0.00    +0.000 A 
ATOM      9  C   UNL     1       2.288   6.890  19.799  0.00  0.00    +0.000 A 
ATOM     10  C   UNL     1       3.049   5.747  19.554  0.00  0.00    +0.000 A 
ENDBRANCH   2   5
ENDBRANCH   1   2
BRANCH   1  11
ATOM     11  C   UNL     1       7.406   4.973  17.655  0.00  0.00    +0.000 C 
BRANCH  11  12
ATOM     12  C   UNL     1       7.522   6.219  18.536  0.00  0.00    +0.000 C 
BRANCH  12  13
ATOM     13  C   UNL     1       7.656   7.524  17.751  0.00  0.00    +0.000 C 
BRANCH  13  15
ATOM     14  C   UNL     1       8.427   9.923  17.967  0.00  0.00    +0.000 C 
ATOM     15  C   UNL     1       8.548   8.509  18.509  0.00  0.00    +0.000 C 
ENDBRANCH  13  15
ENDBRANCH  12  13
ENDBRANCH  11  12
ENDBRANCH   1  11
BRANCH   1  16
ATOM     16  C   UNL     1       6.216   3.753  15.767  0.00  0.00    +0.000 C 
BRANCH  16  17
ATOM     17  C   UNL     1       6.716   4.350  14.469  0.00  0.00    +0.000 C 
ATOM     18  O   UNL     1       6.201   4.098  13.383  0.00  0.00    +0.000 OA
ATOM     19  N   UNL     1       7.740   5.255  14.626  0.00  0.00    +0.000 N 
ATOM     20  H   UNL     1       8.429   5.137  15.368  0.00  0.00    +0.000 HD
BRANCH  19  21
ATOM     21  O   UNL     1       8.250   5.805  13.427  0.00  0.00    +0.000 OA
ATOM     22  H   UNL     1       8.663   6.642  13.732  0.00  0.00    +0.000 HD
ENDBRANCH  19  21
ENDBRANCH  16  17
ENDBRANCH   1  16
TORSDOF 9
ENDMDL
MODEL 7
REMARK VINA RESULT:      -6.8      3.182      6.022
REMARK  Name = 
REMARK  10 active torsions:
REMARK  status: ('A' for Active; 'I' for Inactive)
REMARK    1  A    between atoms: C_1  and  C_2
REMARK    2  A    between atoms: C_2  and  C_3
REMARK    3  A    between atoms: C_3  and  C_4
REMARK    4  A    between atoms: C_4  and  C_5
REMARK    5  A    between atoms: C_5  and  C_6
REMARK    6  A    between atoms: C_6  and  C_7
REMARK    7  A    between atoms: C_6  and  S_12
REMARK    8  A    between atoms: C_7  and  C_8
REMARK    9  A    between atoms: N_10  and  O_11
REMARK   10  A    between atoms: S_12  and  C_15
REMARK                            x       y       z     vdW  Elec       q    Type
REMARK                         _______ _______ _______ _____ _____    ______ ____
ROOT
ATOM      1  C   UNL     1       4.253   4.592  17.824  0.00  0.00    +0.000 C 
ENDROOT
BRANCH   1   2
ATOM      2  S   UNL     1       5.491   5.032  16.573  0.00  0.00    +0.000 S 
ATOM      3  O   UNL     1       6.210   3.840  16.174  0.00  0.00    +0.000 OA
ATOM      4  O   UNL     1       4.830   5.844  15.568  0.00  0.00    +0.000 OA
BRANCH   2   5
ATOM      5  C   UNL     1       6.663   6.057  17.431  0.00  0.00    +0.000 A 
ATOM      6  C   UNL     1       6.886   7.359  16.972  0.00  0.00    +0.000 A 
ATOM      7  C   UNL     1       7.803   8.173  17.640  0.00  0.00    +0.000 A 
ATOM      8  C   UNL     1       8.477   7.690  18.761  0.00  0.00    +0.000 A 
ATOM      9  C   UNL     1       8.237   6.395  19.224  0.00  0.00    +0.000 A 
ATOM     10  C   UNL     1       7.327   5.572  18.560  0.00  0.00    +0.000 A 
ENDBRANCH   2   5
ENDBRANCH   1   2
BRANCH   1  11
ATOM     11  C   UNL     1       3.153   5.676  17.864  0.00  0.00    +0.000 C 
BRANCH  11  12
ATOM     12  C   UNL     1       1.823   5.279  18.511  0.00  0.00    +0.000 C 
BRANCH  12  13
ATOM     13  C   UNL     1       1.898   5.109  20.028  0.00  0.00    +0.000 C 
BRANCH  13  15
ATOM     14  C   UNL     1       1.940   3.080  21.538  0.00  0.00    +0.000 C 
ATOM     15  C   UNL     1       1.181   3.825  20.453  0.00  0.00    +0.000 C 
ENDBRANCH  13  15
ENDBRANCH  12  13
ENDBRANCH  11  12
ENDBRANCH   1  11
BRANCH   1  16
ATOM     16  C   UNL     1       3.666   3.215  17.484  0.00  0.00    +0.000 C 
BRANCH  16  17
ATOM     17  C   UNL     1       4.020   2.147  18.497  0.00  0.00    +0.000 C 
ATOM     18  O   UNL     1       3.580   1.002  18.433  0.00  0.00    +0.000 OA
ATOM     19  N   UNL     1       4.936   2.550  19.441  0.00  0.00    +0.000 N 
ATOM     20  H   UNL     1       4.951   3.514  19.772  0.00  0.00    +0.000 HD
BRANCH  19  21
ATOM     21  O   UNL     1       5.263   1.583  20.419  0.00  0.00    +0.000 OA
ATOM     22  H   UNL     1       4.911   0.754  20.028  0.00  0.00    +0.000 HD
ENDBRANCH  19  21
ENDBRANCH  16  17
ENDBRANCH   1  16
TORSDOF 9
ENDMDL
MODEL 8
REMARK VINA RESULT:      -6.8      1.654      2.262
REMARK  Name = 
REMARK  10 active torsions:
REMARK  status: ('A' for Active; 'I' for Inactive)
REMARK    1  A    between atoms: C_1  and  C_2
REMARK    2  A    between atoms: C_2  and  C_3
REMARK    3  A    between atoms: C_3  and  C_4
REMARK    4  A    between atoms: C_4  and  C_5
REMARK    5  A    between atoms: C_5  and  C_6
REMARK    6  A    between atoms: C_6  and  C_7
REMARK    7  A    between atoms: C_6  and  S_12
REMARK    8  A    between atoms: C_7  and  C_8
REMARK    9  A    between atoms: N_10  and  O_11
REMARK   10  A    between atoms: S_12  and  C_15
REMARK                            x       y       z     vdW  Elec       q    Type
REMARK                         _______ _______ _______ _____ _____    ______ ____
ROOT
ATOM      1  C   UNL     1       6.339   4.845  16.012  0.00  0.00    +0.000 C 
ENDROOT
BRANCH   1   2
ATOM      2  S   UNL     1       5.519   6.425  16.362  0.00  0.00    +0.000 S 
ATOM      3  O   UNL     1       6.369   7.222  17.223  0.00  0.00    +0.000 OA
ATOM      4  O   UNL     1       5.062   6.972  15.097  0.00  0.00    +0.000 OA
BRANCH   2   5
ATOM      5  C   UNL     1       4.091   5.995  17.329  0.00  0.00    +0.000 A 
ATOM      6  C   UNL     1       3.592   4.690  17.254  0.00  0.00    +0.000 A 
ATOM      7  C   UNL     1       2.472   4.341  18.010  0.00  0.00    +0.000 A 
ATOM      8  C   UNL     1       1.869   5.285  18.841  0.00  0.00    +0.000 A 
ATOM      9  C   UNL     1       2.383   6.581  18.924  0.00  0.00    +0.000 A 
ATOM     10  C   UNL     1       3.499   6.941  18.168  0.00  0.00    +0.000 A 
ENDBRANCH   2   5
ENDBRANCH   1   2
BRANCH   1  11
ATOM     11  C   UNL     1       6.701   4.773  14.512  0.00  0.00    +0.000 C 
BRANCH  11  12
ATOM     12  C   UNL     1       6.204   3.544  13.745  0.00  0.00    +0.000 C 
BRANCH  12  13
ATOM     13  C   UNL     1       5.920   3.809  12.267  0.00  0.00    +0.000 C 
BRANCH  13  15
ATOM     14  C   UNL     1       3.847   3.288  10.915  0.00  0.00    +0.000 C 
ATOM     15  C   UNL     1       5.015   2.714  11.698  0.00  0.00    +0.000 C 
ENDBRANCH  13  15
ENDBRANCH  12  13
ENDBRANCH  11  12
ENDBRANCH   1  11
BRANCH   1  16
ATOM     16  C   UNL     1       7.590   4.724  16.894  0.00  0.00    +0.000 C 
BRANCH  16  17
ATOM     17  C   UNL     1       7.278   4.700  18.375  0.00  0.00    +0.000 C 
ATOM     18  O   UNL     1       6.365   4.029  18.849  0.00  0.00    +0.000 OA
ATOM     19  N   UNL     1       8.155   5.430  19.144  0.00  0.00    +0.000 N 
ATOM     20  H   UNL     1       8.578   6.283  18.782  0.00  0.00    +0.000 HD
BRANCH  19  21
ATOM     21  O   UNL     1       7.871   5.452  20.529  0.00  0.00    +0.000 OA
ATOM     22  H   UNL     1       7.145   6.109  20.590  0.00  0.00    +0.000 HD
ENDBRANCH  19  21
ENDBRANCH  16  17
ENDBRANCH   1  16
TORSDOF 9
ENDMDL
MODEL 9
REMARK VINA RESULT:      -6.8      3.254      5.317
REMARK  Name = 
REMARK  10 active torsions:
REMARK  status: ('A' for Active; 'I' for Inactive)
REMARK    1  A    between atoms: C_1  and  C_2
REMARK    2  A    between atoms: C_2  and  C_3
REMARK    3  A    between atoms: C_3  and  C_4
REMARK    4  A    between atoms: C_4  and  C_5
REMARK    5  A    between atoms: C_5  and  C_6
REMARK    6  A    between atoms: C_6  and  C_7
REMARK    7  A    between atoms: C_6  and  S_12
REMARK    8  A    between atoms: C_7  and  C_8
REMARK    9  A    between atoms: N_10  and  O_11
REMARK   10  A    between atoms: S_12  and  C_15
REMARK                            x       y       z     vdW  Elec       q    Type
REMARK                         _______ _______ _______ _____ _____    ______ ____
ROOT
ATOM      1  C   UNL     1       6.394   5.552  17.363  0.00  0.00    +0.000 C 
ENDROOT
BRANCH   1   2
ATOM      2  S   UNL     1       4.940   4.694  18.027  0.00  0.00    +0.000 S 
ATOM      3  O   UNL     1       4.319   3.921  16.971  0.00  0.00    +0.000 OA
ATOM      4  O   UNL     1       5.342   4.037  19.257  0.00  0.00    +0.000 OA
BRANCH   2   5
ATOM      5  C   UNL     1       3.794   5.989  18.438  0.00  0.00    +0.000 A 
ATOM      6  C   UNL     1       3.073   5.900  19.634  0.00  0.00    +0.000 A 
ATOM      7  C   UNL     1       2.172   6.912  19.968  0.00  0.00    +0.000 A 
ATOM      8  C   UNL     1       2.006   8.006  19.118  0.00  0.00    +0.000 A 
ATOM      9  C   UNL     1       2.740   8.097  17.934  0.00  0.00    +0.000 A 
ATOM     10  C   UNL     1       3.640   7.087  17.589  0.00  0.00    +0.000 A 
ENDBRANCH   2   5
ENDBRANCH   1   2
BRANCH   1  11
ATOM     11  C   UNL     1       7.172   6.219  18.519  0.00  0.00    +0.000 C 
BRANCH  11  12
ATOM     12  C   UNL     1       8.174   7.310  18.132  0.00  0.00    +0.000 C 
BRANCH  12  13
ATOM     13  C   UNL     1       7.529   8.658  17.812  0.00  0.00    +0.000 C 
BRANCH  13  15
ATOM     14  C   UNL     1       9.142   9.983  19.239  0.00  0.00    +0.000 C 
ATOM     15  C   UNL     1       8.582   9.768  17.843  0.00  0.00    +0.000 C 
ENDBRANCH  13  15
ENDBRANCH  12  13
ENDBRANCH  11  12
ENDBRANCH   1  11
BRANCH   1  16
ATOM     16  C   UNL     1       7.271   4.541  16.611  0.00  0.00    +0.000 C 
BRANCH  16  17
ATOM     17  C   UNL     1       7.113   4.613  15.107  0.00  0.00    +0.000 C 
ATOM     18  O   UNL     1       7.740   5.409  14.413  0.00  0.00    +0.000 OA
ATOM     19  N   UNL     1       6.270   3.659  14.586  0.00  0.00    +0.000 N 
ATOM     20  H   UNL     1       5.460   3.337  15.113  0.00  0.00    +0.000 HD
BRANCH  19  21
ATOM     21  O   UNL     1       6.078   3.721  13.186  0.00  0.00    +0.000 OA
ATOM     22  H   UNL     1       5.871   4.670  13.038  0.00  0.00    +0.000 HD
ENDBRANCH  19  21
ENDBRANCH  16  17
ENDBRANCH   1  16
TORSDOF 9
ENDMDL
