MODEL 1
REMARK VINA RESULT:      -7.8      0.000      0.000
REMARK  Name = 
REMARK  5 active torsions:
REMARK  status: ('A' for Active; 'I' for Inactive)
REMARK    1  A    between atoms: C_9  and  O_10
REMARK    2  A    between atoms: N_11  and  C_12
REMARK    3  A    between atoms: C_14  and  O_15
REMARK    4  A    between atoms: O_15  and  C_16
REMARK    5  A    between atoms: C_16  and  C_17
REMARK                            x       y       z     vdW  Elec       q    Type
REMARK                         _______ _______ _______ _____ _____    ______ ____
ROOT
ATOM      1  C   UNL     1       0.998  11.736  19.521  0.00  0.00    +0.000 A 
ATOM      2  C   UNL     1       1.324  10.697  18.631  0.00  0.00    +0.000 A 
ATOM      3  C   UNL     1       1.333   9.336  19.027  0.00  0.00    +0.000 A 
ATOM      4  C   UNL     1       1.057   9.019  20.366  0.00  0.00    +0.000 A 
ATOM      5 CL   UNL     1       1.180   7.452  21.087  0.00  0.00    +0.000 Cl
ATOM      6  C   UNL     1       0.701  10.031  21.251  0.00  0.00    +0.000 A 
ATOM      7  C   UNL     1       0.674  11.355  20.834  0.00  0.00    +0.000 A 
ATOM      8  F   UNL     1       0.359  12.259  21.772  0.00  0.00    +0.000 F 
ENDROOT
BRANCH   1  18
ATOM      9  O   UNL     1       3.285  13.664  18.950  0.00  0.00    +0.000 OA
ATOM     10  C   UNL     1       2.097  13.930  18.910  0.00  0.00    +0.000 C 
ATOM     11  C   UNL     1       1.593  15.282  18.601  0.00  0.00    +0.000 C 
ATOM     12  C   UNL     1       0.266  15.235  18.687  0.00  0.00    +0.000 C 
ATOM     13  C   UNL     1      -0.637  16.380  18.436  0.00  0.00    +0.000 C 
ATOM     14  C   UNL     1       0.063  17.683  18.037  0.00  0.00    +0.000 C 
ATOM     15  C   UNL     1       1.597  17.719  17.932  0.00  0.00    +0.000 C 
ATOM     16  C   UNL     1       2.409  16.452  18.239  0.00  0.00    +0.000 C 
ATOM     17  C   UNL     1      -0.229  13.885  19.040  0.00  0.00    +0.000 C 
ATOM     18  N   UNL     1       0.983  13.113  19.132  0.00  0.00    +0.000 N 
BRANCH  17  19
ATOM     19  O   UNL     1      -1.013  13.421  17.966  0.00  0.00    +0.000 OA
ATOM     20  H   UNL     1      -0.404  13.381  17.210  0.00  0.00    +0.000 HD
ENDBRANCH  17  19
ENDBRANCH   1  18
BRANCH   3  21
ATOM     21  O   UNL     1       1.645   8.477  17.998  0.00  0.00    +0.000 OA
BRANCH  21  22
ATOM     22  C   UNL     1       3.026   8.159  17.816  0.00  0.00    +0.000 C 
BRANCH  22  23
ATOM     23  C   UNL     1       3.285   6.676  17.686  0.00  0.00    +0.000 A 
ATOM     24  C   UNL     1       4.452   6.166  17.109  0.00  0.00    +0.000 A 
ATOM     25  C   UNL     1       4.614   4.788  16.938  0.00  0.00    +0.000 A 
ATOM     26  C   UNL     1       3.606   3.909  17.333  0.00  0.00    +0.000 A 
ATOM     27  C   UNL     1       2.435   4.408  17.897  0.00  0.00    +0.000 A 
ATOM     28 CL   UNL     1       1.178   3.330  18.366  0.00  0.00    +0.000 Cl
ATOM     29  C   UNL     1       2.270   5.780  18.071  0.00  0.00    +0.000 A 
ENDBRANCH  22  23
ENDBRANCH  21  22
ENDBRANCH   3  21
TORSDOF 5
ENDMDL
MODEL 2
REMARK VINA RESULT:      -7.7      1.033      1.378
REMARK  Name = 
REMARK  5 active torsions:
REMARK  status: ('A' for Active; 'I' for Inactive)
REMARK    1  A    between atoms: C_9  and  O_10
REMARK    2  A    between atoms: N_11  and  C_12
REMARK    3  A    between atoms: C_14  and  O_15
REMARK    4  A    between atoms: O_15  and  C_16
REMARK    5  A    between atoms: C_16  and  C_17
REMARK                            x       y       z     vdW  Elec       q    Type
REMARK                         _______ _______ _______ _____ _____    ______ ____
ROOT
ATOM      1  C   UNL     1       1.063  11.633  19.443  0.00  0.00    +0.000 A 
ATOM      2  C   UNL     1       1.425  10.610  18.549  0.00  0.00    +0.000 A 
ATOM      3  C   UNL     1       1.444   9.244  18.930  0.00  0.00    +0.000 A 
ATOM      4  C   UNL     1       1.141   8.908  20.258  0.00  0.00    +0.000 A 
ATOM      5 CL   UNL     1       1.270   7.335  20.963  0.00  0.00    +0.000 Cl
ATOM      6  C   UNL     1       0.749   9.905  21.146  0.00  0.00    +0.000 A 
ATOM      7  C   UNL     1       0.713  11.232  20.744  0.00  0.00    +0.000 A 
ATOM      8  F   UNL     1       0.363  12.121  21.684  0.00  0.00    +0.000 F 
ENDROOT
BRANCH   1  18
ATOM      9  O   UNL     1       3.331  13.557  18.788  0.00  0.00    +0.000 OA
ATOM     10  C   UNL     1       2.143  13.828  18.805  0.00  0.00    +0.000 C 
ATOM     11  C   UNL     1       1.633  15.187  18.534  0.00  0.00    +0.000 C 
ATOM     12  C   UNL     1       0.312  15.145  18.681  0.00  0.00    +0.000 C 
ATOM     13  C   UNL     1      -0.596  16.296  18.483  0.00  0.00    +0.000 C 
ATOM     14  C   UNL     1       0.091  17.601  18.067  0.00  0.00    +0.000 C 
ATOM     15  C   UNL     1       1.619  17.630  17.892  0.00  0.00    +0.000 C 
ATOM     16  C   UNL     1       2.438  16.356  18.147  0.00  0.00    +0.000 C 
ATOM     17  C   UNL     1      -0.174  13.794  19.042  0.00  0.00    +0.000 C 
ATOM     18  N   UNL     1       1.037  13.015  19.069  0.00  0.00    +0.000 N 
BRANCH  17  19
ATOM     19  O   UNL     1      -1.009  13.344  18.000  0.00  0.00    +0.000 OA
ATOM     20  H   UNL     1      -0.856  13.967  17.271  0.00  0.00    +0.000 HD
ENDBRANCH  17  19
ENDBRANCH   1  18
BRANCH   3  21
ATOM     21  O   UNL     1       1.793   8.403  17.899  0.00  0.00    +0.000 OA
BRANCH  21  22
ATOM     22  C   UNL     1       3.137   7.916  17.886  0.00  0.00    +0.000 C 
BRANCH  22  23
ATOM     23  C   UNL     1       3.233   6.433  17.612  0.00  0.00    +0.000 A 
ATOM     24  C   UNL     1       2.249   5.529  18.024  0.00  0.00    +0.000 A 
ATOM     25  C   UNL     1       2.417   4.158  17.818  0.00  0.00    +0.000 A 
ATOM     26  C   UNL     1       3.575   3.676  17.208  0.00  0.00    +0.000 A 
ATOM     27  C   UNL     1       4.566   4.567  16.807  0.00  0.00    +0.000 A 
ATOM     28 CL   UNL     1       6.008   3.977  16.074  0.00  0.00    +0.000 Cl
ATOM     29  C   UNL     1       4.403   5.936  17.007  0.00  0.00    +0.000 A 
ENDBRANCH  22  23
ENDBRANCH  21  22
ENDBRANCH   3  21
TORSDOF 5
ENDMDL
MODEL 3
REMARK VINA RESULT:      -7.7      3.504      4.359
REMARK  Name = 
REMARK  5 active torsions:
REMARK  status: ('A' for Active; 'I' for Inactive)
REMARK    1  A    between atoms: C_9  and  O_10
REMARK    2  A    between atoms: N_11  and  C_12
REMARK    3  A    between atoms: C_14  and  O_15
REMARK    4  A    between atoms: O_15  and  C_16
REMARK    5  A    between atoms: C_16  and  C_17
REMARK                            x       y       z     vdW  Elec       q    Type
REMARK                         _______ _______ _______ _____ _____    ______ ____
ROOT
ATOM      1  C   UNL     1       1.106   9.297  19.576  0.00  0.00    +0.000 A 
ATOM      2  C   UNL     1       1.311   8.095  20.274  0.00  0.00    +0.000 A 
ATOM      3  C   UNL     1       2.161   7.070  19.784  0.00  0.00    +0.000 A 
ATOM      4  C   UNL     1       2.777   7.243  18.534  0.00  0.00    +0.000 A 
ATOM      5 CL   UNL     1       3.705   6.056  17.686  0.00  0.00    +0.000 Cl
ATOM      6  C   UNL     1       2.610   8.440  17.846  0.00  0.00    +0.000 A 
ATOM      7  C   UNL     1       1.794   9.439  18.359  0.00  0.00    +0.000 A 
ATOM      8  F   UNL     1       1.666  10.538  17.601  0.00  0.00    +0.000 F 
ENDROOT
BRANCH   1  18
ATOM      9  O   UNL     1      -1.626  10.240  18.617  0.00  0.00    +0.000 OA
ATOM     10  C   UNL     1      -0.987  10.715  19.539  0.00  0.00    +0.000 C 
ATOM     11  C   UNL     1      -1.458  11.877  20.318  0.00  0.00    +0.000 C 
ATOM     12  C   UNL     1      -0.509  12.164  21.205  0.00  0.00    +0.000 C 
ATOM     13  C   UNL     1      -0.586  13.256  22.200  0.00  0.00    +0.000 C 
ATOM     14  C   UNL     1      -1.882  14.072  22.168  0.00  0.00    +0.000 C 
ATOM     15  C   UNL     1      -2.974  13.722  21.143  0.00  0.00    +0.000 C 
ATOM     16  C   UNL     1      -2.748  12.566  20.157  0.00  0.00    +0.000 C 
ATOM     17  C   UNL     1       0.646  11.242  21.114  0.00  0.00    +0.000 C 
ATOM     18  N   UNL     1       0.254  10.339  20.063  0.00  0.00    +0.000 N 
BRANCH  17  19
ATOM     19  O   UNL     1       0.736  10.545  22.335  0.00  0.00    +0.000 OA
ATOM     20  H   UNL     1      -0.182  10.435  22.629  0.00  0.00    +0.000 HD
ENDBRANCH  17  19
ENDBRANCH   1  18
BRANCH   3  21
ATOM     21  O   UNL     1       2.250   5.991  20.633  0.00  0.00    +0.000 OA
BRANCH  21  22
ATOM     22  C   UNL     1       1.412   4.870  20.346  0.00  0.00    +0.000 C 
BRANCH  22  23
ATOM     23  C   UNL     1       2.131   3.758  19.618  0.00  0.00    +0.000 A 
ATOM     24  C   UNL     1       1.708   3.280  18.374  0.00  0.00    +0.000 A 
ATOM     25  C   UNL     1       2.357   2.197  17.774  0.00  0.00    +0.000 A 
ATOM     26  C   UNL     1       3.428   1.576  18.417  0.00  0.00    +0.000 A 
ATOM     27  C   UNL     1       3.847   2.037  19.661  0.00  0.00    +0.000 A 
ATOM     28 CL   UNL     1       5.153   1.261  20.470  0.00  0.00    +0.000 Cl
ATOM     29  C   UNL     1       3.206   3.117  20.263  0.00  0.00    +0.000 A 
ENDBRANCH  22  23
ENDBRANCH  21  22
ENDBRANCH   3  21
TORSDOF 5
ENDMDL
MODEL 4
REMARK VINA RESULT:      -7.6      3.323      4.064
REMARK  Name = 
REMARK  5 active torsions:
REMARK  status: ('A' for Active; 'I' for Inactive)
REMARK    1  A    between atoms: C_9  and  O_10
REMARK    2  A    between atoms: N_11  and  C_12
REMARK    3  A    between atoms: C_14  and  O_15
REMARK    4  A    between atoms: O_15  and  C_16
REMARK    5  A    between atoms: C_16  and  C_17
REMARK                            x       y       z     vdW  Elec       q    Type
REMARK                         _______ _______ _______ _____ _____    ______ ____
ROOT
ATOM      1  C   UNL     1       1.149   9.286  19.404  0.00  0.00    +0.000 A 
ATOM      2  C   UNL     1       1.270   8.105  20.157  0.00  0.00    +0.000 A 
ATOM      3  C   UNL     1       2.140   7.051  19.779  0.00  0.00    +0.000 A 
ATOM      4  C   UNL     1       2.868   7.171  18.585  0.00  0.00    +0.000 A 
ATOM      5 CL   UNL     1       3.847   5.942  17.863  0.00  0.00    +0.000 Cl
ATOM      6  C   UNL     1       2.785   8.346  17.845  0.00  0.00    +0.000 A 
ATOM      7  C   UNL     1       1.945   9.375  18.249  0.00  0.00    +0.000 A 
ATOM      8  F   UNL     1       1.905  10.449  17.447  0.00  0.00    +0.000 F 
ENDROOT
BRANCH   1  18
ATOM      9  O   UNL     1       1.474  11.476  21.494  0.00  0.00    +0.000 OA
ATOM     10  C   UNL     1       0.506  11.311  20.774  0.00  0.00    +0.000 C 
ATOM     11  C   UNL     1      -0.696  12.164  20.848  0.00  0.00    +0.000 C 
ATOM     12  C   UNL     1      -1.571  11.686  19.967  0.00  0.00    +0.000 C 
ATOM     13  C   UNL     1      -2.909  12.262  19.709  0.00  0.00    +0.000 C 
ATOM     14  C   UNL     1      -3.250  13.506  20.535  0.00  0.00    +0.000 C 
ATOM     15  C   UNL     1      -2.224  14.053  21.541  0.00  0.00    +0.000 C 
ATOM     16  C   UNL     1      -0.876  13.339  21.715  0.00  0.00    +0.000 C 
ATOM     17  C   UNL     1      -1.049  10.510  19.235  0.00  0.00    +0.000 C 
ATOM     18  N   UNL     1       0.277  10.357  19.777  0.00  0.00    +0.000 N 
BRANCH  17  19
ATOM     19  O   UNL     1      -0.971  10.853  17.871  0.00  0.00    +0.000 OA
ATOM     20  H   UNL     1      -0.071  11.199  17.751  0.00  0.00    +0.000 HD
ENDBRANCH  17  19
ENDBRANCH   1  18
BRANCH   3  21
ATOM     21  O   UNL     1       2.134   6.001  20.668  0.00  0.00    +0.000 OA
BRANCH  21  22
ATOM     22  C   UNL     1       1.306   4.883  20.344  0.00  0.00    +0.000 C 
BRANCH  22  23
ATOM     23  C   UNL     1       2.048   3.777  19.628  0.00  0.00    +0.000 A 
ATOM     24  C   UNL     1       1.635   3.276  18.391  0.00  0.00    +0.000 A 
ATOM     25  C   UNL     1       2.306   2.200  17.804  0.00  0.00    +0.000 A 
ATOM     26  C   UNL     1       3.390   1.610  18.453  0.00  0.00    +0.000 A 
ATOM     27  C   UNL     1       3.800   2.094  19.692  0.00  0.00    +0.000 A 
ATOM     28 CL   UNL     1       5.123   1.355  20.509  0.00  0.00    +0.000 Cl
ATOM     29  C   UNL     1       3.136   3.167  20.281  0.00  0.00    +0.000 A 
ENDBRANCH  22  23
ENDBRANCH  21  22
ENDBRANCH   3  21
TORSDOF 5
ENDMDL
MODEL 5
REMARK VINA RESULT:      -7.6      4.064      6.611
REMARK  Name = 
REMARK  5 active torsions:
REMARK  status: ('A' for Active; 'I' for Inactive)
REMARK    1  A    between atoms: C_9  and  O_10
REMARK    2  A    between atoms: N_11  and  C_12
REMARK    3  A    between atoms: C_14  and  O_15
REMARK    4  A    between atoms: O_15  and  C_16
REMARK    5  A    between atoms: C_16  and  C_17
REMARK                            x       y       z     vdW  Elec       q    Type
REMARK                         _______ _______ _______ _____ _____    ______ ____
ROOT
ATOM      1  C   UNL     1       2.680   5.408  18.726  0.00  0.00    +0.000 A 
ATOM      2  C   UNL     1       3.788   5.106  17.914  0.00  0.00    +0.000 A 
ATOM      3  C   UNL     1       4.179   3.772  17.632  0.00  0.00    +0.000 A 
ATOM      4  C   UNL     1       3.466   2.719  18.225  0.00  0.00    +0.000 A 
ATOM      5 CL   UNL     1       3.879   1.042  18.149  0.00  0.00    +0.000 Cl
ATOM      6  C   UNL     1       2.348   3.000  19.005  0.00  0.00    +0.000 A 
ATOM      7  C   UNL     1       1.969   4.313  19.246  0.00  0.00    +0.000 A 
ATOM      8  F   UNL     1       0.904   4.479  20.042  0.00  0.00    +0.000 F 
ENDROOT
BRANCH   1  18
ATOM      9  O   UNL     1       1.708   6.675  21.318  0.00  0.00    +0.000 OA
ATOM     10  C   UNL     1       1.820   7.237  20.244  0.00  0.00    +0.000 C 
ATOM     11  C   UNL     1       1.451   8.652  20.044  0.00  0.00    +0.000 C 
ATOM     12  C   UNL     1       1.649   8.931  18.759  0.00  0.00    +0.000 C 
ATOM     13  C   UNL     1       1.416  10.253  18.136  0.00  0.00    +0.000 C 
ATOM     14  C   UNL     1       0.925  11.344  19.093  0.00  0.00    +0.000 C 
ATOM     15  C   UNL     1       0.711  11.008  20.578  0.00  0.00    +0.000 C 
ATOM     16  C   UNL     1       0.980   9.583  21.082  0.00  0.00    +0.000 C 
ATOM     17  C   UNL     1       2.164   7.767  18.001  0.00  0.00    +0.000 C 
ATOM     18  N   UNL     1       2.275   6.750  19.015  0.00  0.00    +0.000 N 
BRANCH  17  19
ATOM     19  O   UNL     1       3.444   8.102  17.518  0.00  0.00    +0.000 OA
ATOM     20  H   UNL     1       3.281   8.581  16.689  0.00  0.00    +0.000 HD
ENDBRANCH  17  19
ENDBRANCH   1  18
BRANCH   3  21
ATOM     21  O   UNL     1       5.266   3.696  16.792  0.00  0.00    +0.000 OA
BRANCH  21  22
ATOM     22  C   UNL     1       5.630   4.887  16.093  0.00  0.00    +0.000 C 
BRANCH  22  23
ATOM     23  C   UNL     1       6.203   4.623  14.719  0.00  0.00    +0.000 A 
ATOM     24  C   UNL     1       7.338   5.283  14.240  0.00  0.00    +0.000 A 
ATOM     25  C   UNL     1       7.785   5.064  12.934  0.00  0.00    +0.000 A 
ATOM     26  C   UNL     1       7.095   4.192  12.093  0.00  0.00    +0.000 A 
ATOM     27  C   UNL     1       5.956   3.541  12.557  0.00  0.00    +0.000 A 
ATOM     28 CL   UNL     1       5.087   2.480  11.516  0.00  0.00    +0.000 Cl
ATOM     29  C   UNL     1       5.507   3.753  13.858  0.00  0.00    +0.000 A 
ENDBRANCH  22  23
ENDBRANCH  21  22
ENDBRANCH   3  21
TORSDOF 5
ENDMDL
MODEL 6
REMARK VINA RESULT:      -7.5      4.717      7.646
REMARK  Name = 
REMARK  5 active torsions:
REMARK  status: ('A' for Active; 'I' for Inactive)
REMARK    1  A    between atoms: C_9  and  O_10
REMARK    2  A    between atoms: N_11  and  C_12
REMARK    3  A    between atoms: C_14  and  O_15
REMARK    4  A    between atoms: O_15  and  C_16
REMARK    5  A    between atoms: C_16  and  C_17
REMARK                            x       y       z     vdW  Elec       q    Type
REMARK                         _______ _______ _______ _____ _____    ______ ____
ROOT
ATOM      1  C   UNL     1       4.010   6.792  17.853  0.00  0.00    +0.000 A 
ATOM      2  C   UNL     1       5.284   7.365  17.690  0.00  0.00    +0.000 A 
ATOM      3  C   UNL     1       6.320   6.714  16.971  0.00  0.00    +0.000 A 
ATOM      4  C   UNL     1       6.080   5.434  16.449  0.00  0.00    +0.000 A 
ATOM      5 CL   UNL     1       7.249   4.407  15.695  0.00  0.00    +0.000 Cl
ATOM      6  C   UNL     1       4.815   4.868  16.574  0.00  0.00    +0.000 A 
ATOM      7  C   UNL     1       3.809   5.535  17.259  0.00  0.00    +0.000 A 
ATOM      8  F   UNL     1       2.639   4.888  17.359  0.00  0.00    +0.000 F 
ENDROOT
BRANCH   1  18
ATOM      9  O   UNL     1       2.256   9.164  17.099  0.00  0.00    +0.000 OA
ATOM     10  C   UNL     1       2.214   8.547  18.148  0.00  0.00    +0.000 C 
ATOM     11  C   UNL     1       1.296   8.906  19.247  0.00  0.00    +0.000 C 
ATOM     12  C   UNL     1       1.541   8.069  20.251  0.00  0.00    +0.000 C 
ATOM     13  C   UNL     1       0.826   8.072  21.546  0.00  0.00    +0.000 C 
ATOM     14  C   UNL     1      -0.277   9.128  21.676  0.00  0.00    +0.000 C 
ATOM     15  C   UNL     1      -0.555  10.081  20.502  0.00  0.00    +0.000 C 
ATOM     16  C   UNL     1       0.282   9.972  19.219  0.00  0.00    +0.000 C 
ATOM     17  C   UNL     1       2.607   7.093  19.926  0.00  0.00    +0.000 C 
ATOM     18  N   UNL     1       2.957   7.441  18.573  0.00  0.00    +0.000 N 
BRANCH  17  19
ATOM     19  O   UNL     1       2.035   5.806  19.957  0.00  0.00    +0.000 OA
ATOM     20  H   UNL     1       1.389   5.837  20.681  0.00  0.00    +0.000 HD
ENDBRANCH  17  19
ENDBRANCH   1  18
BRANCH   3  21
ATOM     21  O   UNL     1       7.475   7.457  16.901  0.00  0.00    +0.000 OA
BRANCH  21  22
ATOM     22  C   UNL     1       8.094   7.813  18.139  0.00  0.00    +0.000 C 
BRANCH  22  23
ATOM     23  C   UNL     1       8.380   9.292  18.261  0.00  0.00    +0.000 A 
ATOM     24  C   UNL     1       7.835  10.236  17.385  0.00  0.00    +0.000 A 
ATOM     25  C   UNL     1       8.190  11.584  17.487  0.00  0.00    +0.000 A 
ATOM     26  C   UNL     1       9.101  11.998  18.459  0.00  0.00    +0.000 A 
ATOM     27  C   UNL     1       9.659  11.064  19.327  0.00  0.00    +0.000 A 
ATOM     28 CL   UNL     1      10.799  11.566  20.513  0.00  0.00    +0.000 Cl
ATOM     29  C   UNL     1       9.306   9.720  19.231  0.00  0.00    +0.000 A 
ENDBRANCH  22  23
ENDBRANCH  21  22
ENDBRANCH   3  21
TORSDOF 5
ENDMDL
MODEL 7
REMARK VINA RESULT:      -7.5      3.274      8.365
REMARK  Name = 
REMARK  5 active torsions:
REMARK  status: ('A' for Active; 'I' for Inactive)
REMARK    1  A    between atoms: C_9  and  O_10
REMARK    2  A    between atoms: N_11  and  C_12
REMARK    3  A    between atoms: C_14  and  O_15
REMARK    4  A    between atoms: O_15  and  C_16
REMARK    5  A    between atoms: C_16  and  C_17
REMARK                            x       y       z     vdW  Elec       q    Type
REMARK                         _______ _______ _______ _____ _____    ______ ____
ROOT
ATOM      1  C   UNL     1       0.659  10.426  19.961  0.00  0.00    +0.000 A 
ATOM      2  C   UNL     1       1.330  11.505  20.563  0.00  0.00    +0.000 A 
ATOM      3  C   UNL     1       0.711  12.765  20.764  0.00  0.00    +0.000 A 
ATOM      4  C   UNL     1      -0.599  12.956  20.299  0.00  0.00    +0.000 A 
ATOM      5 CL   UNL     1      -1.467  14.451  20.292  0.00  0.00    +0.000 Cl
ATOM      6  C   UNL     1      -1.289  11.890  19.730  0.00  0.00    +0.000 A 
ATOM      7  C   UNL     1      -0.670  10.658  19.567  0.00  0.00    +0.000 A 
ATOM      8  F   UNL     1      -1.405   9.708  18.972  0.00  0.00    +0.000 F 
ENDROOT
BRANCH   1  18
ATOM      9  O   UNL     1       2.153   9.304  17.557  0.00  0.00    +0.000 OA
ATOM     10  C   UNL     1       1.925   8.714  18.598  0.00  0.00    +0.000 C 
ATOM     11  C   UNL     1       2.328   7.312  18.824  0.00  0.00    +0.000 C 
ATOM     12  C   UNL     1       1.887   6.967  20.031  0.00  0.00    +0.000 C 
ATOM     13  C   UNL     1       2.092   5.643  20.658  0.00  0.00    +0.000 C 
ATOM     14  C   UNL     1       2.891   4.643  19.816  0.00  0.00    +0.000 C 
ATOM     15  C   UNL     1       3.403   5.060  18.427  0.00  0.00    +0.000 C 
ATOM     16  C   UNL     1       3.099   6.469  17.897  0.00  0.00    +0.000 C 
ATOM     17  C   UNL     1       1.177   8.075  20.710  0.00  0.00    +0.000 C 
ATOM     18  N   UNL     1       1.272   9.150  19.756  0.00  0.00    +0.000 N 
BRANCH  17  19
ATOM     19  O   UNL     1       1.904   8.402  21.872  0.00  0.00    +0.000 OA
ATOM     20  H   UNL     1       1.657   7.722  22.521  0.00  0.00    +0.000 HD
ENDBRANCH  17  19
ENDBRANCH   1  18
BRANCH   3  21
ATOM     21  O   UNL     1       1.528  13.671  21.399  0.00  0.00    +0.000 OA
BRANCH  21  22
ATOM     22  C   UNL     1       2.847  13.834  20.874  0.00  0.00    +0.000 C 
BRANCH  22  23
ATOM     23  C   UNL     1       2.899  14.721  19.651  0.00  0.00    +0.000 A 
ATOM     24  C   UNL     1       3.823  14.525  18.622  0.00  0.00    +0.000 A 
ATOM     25  C   UNL     1       3.886  15.418  17.548  0.00  0.00    +0.000 A 
ATOM     26  C   UNL     1       3.032  16.519  17.500  0.00  0.00    +0.000 A 
ATOM     27  C   UNL     1       2.117  16.729  18.527  0.00  0.00    +0.000 A 
ATOM     28 CL   UNL     1       1.076  18.099  18.485  0.00  0.00    +0.000 Cl
ATOM     29  C   UNL     1       2.048  15.842  19.599  0.00  0.00    +0.000 A 
ENDBRANCH  22  23
ENDBRANCH  21  22
ENDBRANCH   3  21
TORSDOF 5
ENDMDL
MODEL 8
REMARK VINA RESULT:      -7.4      1.128      2.200
REMARK  Name = 
REMARK  5 active torsions:
REMARK  status: ('A' for Active; 'I' for Inactive)
REMARK    1  A    between atoms: C_9  and  O_10
REMARK    2  A    between atoms: N_11  and  C_12
REMARK    3  A    between atoms: C_14  and  O_15
REMARK    4  A    between atoms: O_15  and  C_16
REMARK    5  A    between atoms: C_16  and  C_17
REMARK                            x       y       z     vdW  Elec       q    Type
REMARK                         _______ _______ _______ _____ _____    ______ ____
ROOT
ATOM      1  C   UNL     1       1.096  11.440  19.580  0.00  0.00    +0.000 A 
ATOM      2  C   UNL     1       1.463  10.459  18.643  0.00  0.00    +0.000 A 
ATOM      3  C   UNL     1       1.492   9.078  18.964  0.00  0.00    +0.000 A 
ATOM      4  C   UNL     1       1.193   8.682  20.277  0.00  0.00    +0.000 A 
ATOM      5 CL   UNL     1       1.334   7.081  20.913  0.00  0.00    +0.000 Cl
ATOM      6  C   UNL     1       0.796   9.637  21.208  0.00  0.00    +0.000 A 
ATOM      7  C   UNL     1       0.750  10.981  20.863  0.00  0.00    +0.000 A 
ATOM      8  F   UNL     1       0.395  11.826  21.841  0.00  0.00    +0.000 F 
ENDROOT
BRANCH   1  18
ATOM      9  O   UNL     1      -1.257  13.351  19.292  0.00  0.00    +0.000 OA
ATOM     10  C   UNL     1      -0.082  13.632  19.136  0.00  0.00    +0.000 C 
ATOM     11  C   UNL     1       0.368  14.980  18.736  0.00  0.00    +0.000 C 
ATOM     12  C   UNL     1       1.691  14.930  18.609  0.00  0.00    +0.000 C 
ATOM     13  C   UNL     1       2.547  16.077  18.236  0.00  0.00    +0.000 C 
ATOM     14  C   UNL     1       1.801  17.396  18.006  0.00  0.00    +0.000 C 
ATOM     15  C   UNL     1       0.273  17.440  18.166  0.00  0.00    +0.000 C 
ATOM     16  C   UNL     1      -0.489  16.161  18.544  0.00  0.00    +0.000 C 
ATOM     17  C   UNL     1       2.237  13.587  18.913  0.00  0.00    +0.000 C 
ATOM     18  N   UNL     1       1.060  12.836  19.267  0.00  0.00    +0.000 N 
BRANCH  17  19
ATOM     19  O   UNL     1       3.081  13.711  20.034  0.00  0.00    +0.000 OA
ATOM     20  H   UNL     1       3.462  14.601  19.964  0.00  0.00    +0.000 HD
ENDBRANCH  17  19
ENDBRANCH   1  18
BRANCH   3  21
ATOM     21  O   UNL     1       1.846   8.284  17.897  0.00  0.00    +0.000 OA
BRANCH  21  22
ATOM     22  C   UNL     1       3.187   7.790  17.873  0.00  0.00    +0.000 C 
BRANCH  22  23
ATOM     23  C   UNL     1       3.272   6.307  17.592  0.00  0.00    +0.000 A 
ATOM     24  C   UNL     1       2.298   5.404  18.028  0.00  0.00    +0.000 A 
ATOM     25  C   UNL     1       2.458   4.033  17.814  0.00  0.00    +0.000 A 
ATOM     26  C   UNL     1       3.597   3.551  17.170  0.00  0.00    +0.000 A 
ATOM     27  C   UNL     1       4.579   4.442  16.744  0.00  0.00    +0.000 A 
ATOM     28 CL   UNL     1       5.998   3.852  15.969  0.00  0.00    +0.000 Cl
ATOM     29  C   UNL     1       4.423   5.810  16.953  0.00  0.00    +0.000 A 
ENDBRANCH  22  23
ENDBRANCH  21  22
ENDBRANCH   3  21
TORSDOF 5
ENDMDL
MODEL 9
REMARK VINA RESULT:      -7.4      4.166      8.951
REMARK  Name = 
REMARK  5 active torsions:
REMARK  status: ('A' for Active; 'I' for Inactive)
REMARK    1  A    between atoms: C_9  and  O_10
REMARK    2  A    between atoms: N_11  and  C_12
REMARK    3  A    between atoms: C_14  and  O_15
REMARK    4  A    between atoms: O_15  and  C_16
REMARK    5  A    between atoms: C_16  and  C_17
REMARK                            x       y       z     vdW  Elec       q    Type
REMARK                         _______ _______ _______ _____ _____    ______ ____
ROOT
ATOM      1  C   UNL     1       0.461   9.836  19.517  0.00  0.00    +0.000 A 
ATOM      2  C   UNL     1       0.465  10.565  20.720  0.00  0.00    +0.000 A 
ATOM      3  C   UNL     1      -0.486  11.581  20.991  0.00  0.00    +0.000 A 
ATOM      4  C   UNL     1      -1.431  11.905  20.005  0.00  0.00    +0.000 A 
ATOM      5 CL   UNL     1      -2.559  13.214  20.068  0.00  0.00    +0.000 Cl
ATOM      6  C   UNL     1      -1.468  11.172  18.824  0.00  0.00    +0.000 A 
ATOM      7  C   UNL     1      -0.543  10.164  18.590  0.00  0.00    +0.000 A 
ATOM      8  F   UNL     1      -0.637   9.544  17.405  0.00  0.00    +0.000 F 
ENDROOT
BRANCH   1  18
ATOM      9  O   UNL     1       2.433   9.534  17.216  0.00  0.00    +0.000 OA
ATOM     10  C   UNL     1       2.271   8.744  18.129  0.00  0.00    +0.000 C 
ATOM     11  C   UNL     1       3.013   7.472  18.223  0.00  0.00    +0.000 C 
ATOM     12  C   UNL     1       2.565   6.835  19.301  0.00  0.00    +0.000 C 
ATOM     13  C   UNL     1       3.058   5.522  19.772  0.00  0.00    +0.000 C 
ATOM     14  C   UNL     1       4.175   4.907  18.924  0.00  0.00    +0.000 C 
ATOM     15  C   UNL     1       4.690   5.660  17.686  0.00  0.00    +0.000 C 
ATOM     16  C   UNL     1       4.070   7.013  17.308  0.00  0.00    +0.000 C 
ATOM     17  C   UNL     1       1.519   7.602  20.016  0.00  0.00    +0.000 C 
ATOM     18  N   UNL     1       1.414   8.806  19.233  0.00  0.00    +0.000 N 
BRANCH  17  19
ATOM     19  O   UNL     1       2.012   7.908  21.300  0.00  0.00    +0.000 OA
ATOM     20  H   UNL     1       2.615   8.657  21.165  0.00  0.00    +0.000 HD
ENDBRANCH  17  19
ENDBRANCH   1  18
BRANCH   3  21
ATOM     21  O   UNL     1      -0.329  12.147  22.235  0.00  0.00    +0.000 OA
BRANCH  21  22
ATOM     22  C   UNL     1      -1.284  11.789  23.236  0.00  0.00    +0.000 C 
BRANCH  22  23
ATOM     23  C   UNL     1      -2.314  12.866  23.491  0.00  0.00    +0.000 A 
ATOM     24  C   UNL     1      -1.964  14.202  23.706  0.00  0.00    +0.000 A 
ATOM     25  C   UNL     1      -2.944  15.149  24.016  0.00  0.00    +0.000 A 
ATOM     26  C   UNL     1      -4.281  14.766  24.125  0.00  0.00    +0.000 A 
ATOM     27  C   UNL     1      -4.637  13.435  23.925  0.00  0.00    +0.000 A 
ATOM     28 CL   UNL     1      -6.281  12.952  24.079  0.00  0.00    +0.000 Cl
ATOM     29  C   UNL     1      -3.665  12.488  23.614  0.00  0.00    +0.000 A 
ENDBRANCH  22  23
ENDBRANCH  21  22
ENDBRANCH   3  21
TORSDOF 5
ENDMDL
