MODEL 1
REMARK VINA RESULT:      -7.9      0.000      0.000
REMARK  Name = 
REMARK  5 active torsions:
REMARK  status: ('A' for Active; 'I' for Inactive)
REMARK    1  A    between atoms: C_2  and  C_3
REMARK    2  A    between atoms: C_8  and  O_9
REMARK    3  A    between atoms: O_9  and  C_10
REMARK    4  A    between atoms: C_10  and  C_12
REMARK    5  A    between atoms: C_16  and  C_17
REMARK                            x       y       z     vdW  Elec       q    Type
REMARK                         _______ _______ _______ _____ _____    ______ ____
ROOT
ATOM      1  C   UNL     1       6.114   4.726  19.226  0.00  0.00    +0.000 C 
ATOM      2  O   UNL     1       6.775   5.290  20.082  0.00  0.00    +0.000 OA
ENDROOT
BRANCH   1   3
ATOM      3  C   UNL     1       5.967   5.212  17.818  0.00  0.00    +0.000 A 
ATOM      4  C   UNL     1       5.083   6.269  17.578  0.00  0.00    +0.000 A 
ATOM      5  C   UNL     1       4.798   6.659  16.271  0.00  0.00    +0.000 A 
ATOM      6  C   UNL     1       5.384   5.986  15.198  0.00  0.00    +0.000 A 
ATOM      7  C   UNL     1       6.281   4.923  15.409  0.00  0.00    +0.000 A 
ATOM      8  C   UNL     1       6.577   4.557  16.731  0.00  0.00    +0.000 A 
BRANCH   7   9
ATOM      9  C   UNL     1       6.903   4.241  14.207  0.00  0.00    +0.000 C 
ATOM     10  O   UNL     1       5.953   3.614  13.336  0.00  0.00    +0.000 OA
ATOM     11  C   UNL     1       6.621   3.630  12.076  0.00  0.00    +0.000 C 
ATOM     12  C   UNL     1       7.305   4.970  12.081  0.00  0.00    +0.000 C 
ATOM     13  O   UNL     1       7.687   5.173  13.444  0.00  0.00    +0.000 OA
ENDBRANCH   7   9
ENDBRANCH   1   3
BRANCH   1  14
ATOM     14  O   UNL     1       5.282   3.684  19.442  0.00  0.00    +0.000 OA
BRANCH  14  20
ATOM     15  C   UNL     1       2.890   4.194  19.900  0.00  0.00    +0.000 C 
ATOM     16  C   UNL     1       1.515   4.227  19.203  0.00  0.00    +0.000 C 
ATOM     17  C   UNL     1       1.211   2.954  18.401  0.00  0.00    +0.000 C 
ATOM     18  C   UNL     1       2.329   2.604  17.424  0.00  0.00    +0.000 C 
ATOM     19  C   UNL     1       3.681   2.550  18.116  0.00  0.00    +0.000 C 
ATOM     20  C   UNL     1       3.975   3.849  18.869  0.00  0.00    +0.000 C 
BRANCH  15  22
ATOM     21  N   UNL     1       2.828   2.493  21.913  0.00  0.00    +0.000 NA
ATOM     22  C   UNL     1       2.867   3.244  21.028  0.00  0.00    +0.000 C 
ENDBRANCH  15  22
ENDBRANCH  14  20
ENDBRANCH   1  14
TORSDOF 5
ENDMDL
MODEL 2
REMARK VINA RESULT:      -7.7      1.000      1.154
REMARK  Name = 
REMARK  5 active torsions:
REMARK  status: ('A' for Active; 'I' for Inactive)
REMARK    1  A    between atoms: C_2  and  C_3
REMARK    2  A    between atoms: C_8  and  O_9
REMARK    3  A    between atoms: O_9  and  C_10
REMARK    4  A    between atoms: C_10  and  C_12
REMARK    5  A    between atoms: C_16  and  C_17
REMARK                            x       y       z     vdW  Elec       q    Type
REMARK                         _______ _______ _______ _____ _____    ______ ____
ROOT
ATOM      1  C   UNL     1       6.041   5.237  19.235  0.00  0.00    +0.000 C 
ATOM      2  O   UNL     1       7.040   5.392  19.917  0.00  0.00    +0.000 OA
ENDROOT
BRANCH   1   3
ATOM      3  C   UNL     1       5.935   5.626  17.793  0.00  0.00    +0.000 A 
ATOM      4  C   UNL     1       5.101   6.700  17.464  0.00  0.00    +0.000 A 
ATOM      5  C   UNL     1       4.853   7.007  16.127  0.00  0.00    +0.000 A 
ATOM      6  C   UNL     1       5.425   6.234  15.115  0.00  0.00    +0.000 A 
ATOM      7  C   UNL     1       6.272   5.153  15.417  0.00  0.00    +0.000 A 
ATOM      8  C   UNL     1       6.533   4.870  16.767  0.00  0.00    +0.000 A 
BRANCH   7   9
ATOM      9  C   UNL     1       6.882   4.361  14.278  0.00  0.00    +0.000 C 
ATOM     10  O   UNL     1       5.919   3.714  13.436  0.00  0.00    +0.000 OA
ATOM     11  C   UNL     1       6.605   3.612  12.191  0.00  0.00    +0.000 C 
ATOM     12  C   UNL     1       7.348   4.918  12.113  0.00  0.00    +0.000 C 
ATOM     13  O   UNL     1       7.718   5.202  13.465  0.00  0.00    +0.000 OA
ENDBRANCH   7   9
ENDBRANCH   1   3
BRANCH   1  14
ATOM     14  O   UNL     1       4.831   4.855  19.697  0.00  0.00    +0.000 OA
BRANCH  14  20
ATOM     15  C   UNL     1       2.667   4.450  18.536  0.00  0.00    +0.000 C 
ATOM     16  C   UNL     1       1.947   3.395  17.672  0.00  0.00    +0.000 C 
ATOM     17  C   UNL     1       2.038   1.976  18.249  0.00  0.00    +0.000 C 
ATOM     18  C   UNL     1       3.474   1.566  18.557  0.00  0.00    +0.000 C 
ATOM     19  C   UNL     1       4.175   2.595  19.427  0.00  0.00    +0.000 C 
ATOM     20  C   UNL     1       4.108   3.991  18.805  0.00  0.00    +0.000 C 
BRANCH  15  22
ATOM     21  N   UNL     1       1.320   4.897  20.758  0.00  0.00    +0.000 NA
ATOM     22  C   UNL     1       1.914   4.688  19.782  0.00  0.00    +0.000 C 
ENDBRANCH  15  22
ENDBRANCH  14  20
ENDBRANCH   1  14
TORSDOF 5
ENDMDL
MODEL 3
REMARK VINA RESULT:      -7.7      1.479      2.025
REMARK  Name = 
REMARK  5 active torsions:
REMARK  status: ('A' for Active; 'I' for Inactive)
REMARK    1  A    between atoms: C_2  and  C_3
REMARK    2  A    between atoms: C_8  and  O_9
REMARK    3  A    between atoms: O_9  and  C_10
REMARK    4  A    between atoms: C_10  and  C_12
REMARK    5  A    between atoms: C_16  and  C_17
REMARK                            x       y       z     vdW  Elec       q    Type
REMARK                         _______ _______ _______ _____ _____    ______ ____
ROOT
ATOM      1  C   UNL     1       5.434   5.183  19.265  0.00  0.00    +0.000 C 
ATOM      2  O   UNL     1       6.408   4.905  19.945  0.00  0.00    +0.000 OA
ENDROOT
BRANCH   1   3
ATOM      3  C   UNL     1       5.500   5.616  17.834  0.00  0.00    +0.000 A 
ATOM      4  C   UNL     1       4.708   6.701  17.441  0.00  0.00    +0.000 A 
ATOM      5  C   UNL     1       4.619   7.048  16.094  0.00  0.00    +0.000 A 
ATOM      6  C   UNL     1       5.310   6.307  15.134  0.00  0.00    +0.000 A 
ATOM      7  C   UNL     1       6.118   5.216  15.501  0.00  0.00    +0.000 A 
ATOM      8  C   UNL     1       6.217   4.892  16.864  0.00  0.00    +0.000 A 
BRANCH   7   9
ATOM      9  C   UNL     1       6.861   4.459  14.419  0.00  0.00    +0.000 C 
ATOM     10  O   UNL     1       6.008   3.859  13.436  0.00  0.00    +0.000 OA
ATOM     11  C   UNL     1       6.847   3.794  12.286  0.00  0.00    +0.000 C 
ATOM     12  C   UNL     1       7.606   5.092  12.355  0.00  0.00    +0.000 C 
ATOM     13  O   UNL     1       7.802   5.318  13.754  0.00  0.00    +0.000 OA
ENDBRANCH   7   9
ENDBRANCH   1   3
BRANCH   1  14
ATOM     14  O   UNL     1       4.171   5.310  19.727  0.00  0.00    +0.000 OA
BRANCH  14  20
ATOM     15  C   UNL     1       2.955   3.327  18.843  0.00  0.00    +0.000 C 
ATOM     16  C   UNL     1       2.197   2.072  19.321  0.00  0.00    +0.000 C 
ATOM     17  C   UNL     1       1.159   2.370  20.411  0.00  0.00    +0.000 C 
ATOM     18  C   UNL     1       1.753   3.148  21.580  0.00  0.00    +0.000 C 
ATOM     19  C   UNL     1       2.479   4.397  21.110  0.00  0.00    +0.000 C 
ATOM     20  C   UNL     1       3.539   4.063  20.058  0.00  0.00    +0.000 C 
BRANCH  15  22
ATOM     21  N   UNL     1       1.374   4.881  17.415  0.00  0.00    +0.000 NA
ATOM     22  C   UNL     1       2.062   4.188  18.044  0.00  0.00    +0.000 C 
ENDBRANCH  15  22
ENDBRANCH  14  20
ENDBRANCH   1  14
TORSDOF 5
ENDMDL
MODEL 4
REMARK VINA RESULT:      -7.5      4.213      6.888
REMARK  Name = 
REMARK  5 active torsions:
REMARK  status: ('A' for Active; 'I' for Inactive)
REMARK    1  A    between atoms: C_2  and  C_3
REMARK    2  A    between atoms: C_8  and  O_9
REMARK    3  A    between atoms: O_9  and  C_10
REMARK    4  A    between atoms: C_10  and  C_12
REMARK    5  A    between atoms: C_16  and  C_17
REMARK                            x       y       z     vdW  Elec       q    Type
REMARK                         _______ _______ _______ _____ _____    ______ ____
ROOT
ATOM      1  C   UNL     1       3.766   6.332  18.677  0.00  0.00    +0.000 C 
ATOM      2  O   UNL     1       4.812   6.436  18.058  0.00  0.00    +0.000 OA
ENDROOT
BRANCH   1   3
ATOM      3  C   UNL     1       2.730   7.408  18.771  0.00  0.00    +0.000 A 
ATOM      4  C   UNL     1       2.681   8.362  17.749  0.00  0.00    +0.000 A 
ATOM      5  C   UNL     1       1.837   9.465  17.863  0.00  0.00    +0.000 A 
ATOM      6  C   UNL     1       1.049   9.627  19.004  0.00  0.00    +0.000 A 
ATOM      7  C   UNL     1       1.073   8.681  20.044  0.00  0.00    +0.000 A 
ATOM      8  C   UNL     1       1.910   7.562  19.905  0.00  0.00    +0.000 A 
BRANCH   7   9
ATOM      9  C   UNL     1       0.182   8.896  21.250  0.00  0.00    +0.000 C 
ATOM     10  O   UNL     1       0.885   8.911  22.499  0.00  0.00    +0.000 OA
ATOM     11  C   UNL     1       0.045   9.714  23.325  0.00  0.00    +0.000 C 
ATOM     12  C   UNL     1      -0.423  10.787  22.379  0.00  0.00    +0.000 C 
ATOM     13  O   UNL     1      -0.560  10.121  21.121  0.00  0.00    +0.000 OA
ENDBRANCH   7   9
ENDBRANCH   1   3
BRANCH   1  14
ATOM     14  O   UNL     1       3.448   5.314  19.507  0.00  0.00    +0.000 OA
BRANCH  14  20
ATOM     15  C   UNL     1       1.440   3.883  19.845  0.00  0.00    +0.000 C 
ATOM     16  C   UNL     1       0.651   2.743  19.172  0.00  0.00    +0.000 C 
ATOM     17  C   UNL     1       1.541   1.585  18.702  0.00  0.00    +0.000 C 
ATOM     18  C   UNL     1       2.699   2.060  17.830  0.00  0.00    +0.000 C 
ATOM     19  C   UNL     1       3.490   3.168  18.504  0.00  0.00    +0.000 C 
ATOM     20  C   UNL     1       2.582   4.328  18.920  0.00  0.00    +0.000 C 
BRANCH  15  22
ATOM     21  N   UNL     1       2.292   3.110  22.218  0.00  0.00    +0.000 NA
ATOM     22  C   UNL     1       1.928   3.452  21.169  0.00  0.00    +0.000 C 
ENDBRANCH  15  22
ENDBRANCH  14  20
ENDBRANCH   1  14
TORSDOF 5
ENDMDL
MODEL 5
REMARK VINA RESULT:      -7.5      1.460      2.164
REMARK  Name = 
REMARK  5 active torsions:
REMARK  status: ('A' for Active; 'I' for Inactive)
REMARK    1  A    between atoms: C_2  and  C_3
REMARK    2  A    between atoms: C_8  and  O_9
REMARK    3  A    between atoms: O_9  and  C_10
REMARK    4  A    between atoms: C_10  and  C_12
REMARK    5  A    between atoms: C_16  and  C_17
REMARK                            x       y       z     vdW  Elec       q    Type
REMARK                         _______ _______ _______ _____ _____    ______ ____
ROOT
ATOM      1  C   UNL     1       3.948   6.202  18.601  0.00  0.00    +0.000 C 
ATOM      2  O   UNL     1       3.235   7.112  18.213  0.00  0.00    +0.000 OA
ENDROOT
BRANCH   1   3
ATOM      3  C   UNL     1       5.039   5.579  17.787  0.00  0.00    +0.000 A 
ATOM      4  C   UNL     1       6.169   5.104  18.461  0.00  0.00    +0.000 A 
ATOM      5  C   UNL     1       7.273   4.652  17.740  0.00  0.00    +0.000 A 
ATOM      6  C   UNL     1       7.257   4.685  16.344  0.00  0.00    +0.000 A 
ATOM      7  C   UNL     1       6.133   5.152  15.641  0.00  0.00    +0.000 A 
ATOM      8  C   UNL     1       5.019   5.582  16.380  0.00  0.00    +0.000 A 
BRANCH   7   9
ATOM      9  C   UNL     1       6.163   5.147  14.126  0.00  0.00    +0.000 C 
ATOM     10  O   UNL     1       7.482   5.212  13.570  0.00  0.00    +0.000 OA
ATOM     11  C   UNL     1       7.322   4.578  12.302  0.00  0.00    +0.000 C 
ATOM     12  C   UNL     1       6.376   3.451  12.613  0.00  0.00    +0.000 C 
ATOM     13  O   UNL     1       5.498   3.982  13.609  0.00  0.00    +0.000 OA
ENDBRANCH   7   9
ENDBRANCH   1   3
BRANCH   1  14
ATOM     14  O   UNL     1       3.768   5.501  19.742  0.00  0.00    +0.000 OA
BRANCH  14  20
ATOM     15  C   UNL     1       2.628   3.513  20.714  0.00  0.00    +0.000 C 
ATOM     16  C   UNL     1       1.340   2.678  20.570  0.00  0.00    +0.000 C 
ATOM     17  C   UNL     1       1.026   2.295  19.117  0.00  0.00    +0.000 C 
ATOM     18  C   UNL     1       1.020   3.504  18.187  0.00  0.00    +0.000 C 
ATOM     19  C   UNL     1       2.300   4.313  18.313  0.00  0.00    +0.000 C 
ATOM     20  C   UNL     1       2.563   4.720  19.765  0.00  0.00    +0.000 C 
BRANCH  15  22
ATOM     21  N   UNL     1       4.750   2.018  20.253  0.00  0.00    +0.000 NA
ATOM     22  C   UNL     1       3.813   2.670  20.465  0.00  0.00    +0.000 C 
ENDBRANCH  15  22
ENDBRANCH  14  20
ENDBRANCH   1  14
TORSDOF 5
ENDMDL
MODEL 6
REMARK VINA RESULT:      -7.4      1.769      2.335
REMARK  Name = 
REMARK  5 active torsions:
REMARK  status: ('A' for Active; 'I' for Inactive)
REMARK    1  A    between atoms: C_2  and  C_3
REMARK    2  A    between atoms: C_8  and  O_9
REMARK    3  A    between atoms: O_9  and  C_10
REMARK    4  A    between atoms: C_10  and  C_12
REMARK    5  A    between atoms: C_16  and  C_17
REMARK                            x       y       z     vdW  Elec       q    Type
REMARK                         _______ _______ _______ _____ _____    ______ ____
ROOT
ATOM      1  C   UNL     1       3.217   6.078  17.732  0.00  0.00    +0.000 C 
ATOM      2  O   UNL     1       2.634   7.148  17.775  0.00  0.00    +0.000 OA
ENDROOT
BRANCH   1   3
ATOM      3  C   UNL     1       4.672   5.922  17.416  0.00  0.00    +0.000 A 
ATOM      4  C   UNL     1       5.591   6.646  18.185  0.00  0.00    +0.000 A 
ATOM      5  C   UNL     1       6.941   6.652  17.837  0.00  0.00    +0.000 A 
ATOM      6  C   UNL     1       7.376   5.946  16.714  0.00  0.00    +0.000 A 
ATOM      7  C   UNL     1       6.476   5.206  15.927  0.00  0.00    +0.000 A 
ATOM      8  C   UNL     1       5.123   5.189  16.303  0.00  0.00    +0.000 A 
BRANCH   7   9
ATOM      9  C   UNL     1       7.007   4.443  14.731  0.00  0.00    +0.000 C 
ATOM     10  O   UNL     1       5.988   3.827  13.933  0.00  0.00    +0.000 OA
ATOM     11  C   UNL     1       6.595   3.755  12.645  0.00  0.00    +0.000 C 
ATOM     12  C   UNL     1       7.342   5.058  12.557  0.00  0.00    +0.000 C 
ATOM     13  O   UNL     1       7.798   5.301  13.891  0.00  0.00    +0.000 OA
ENDBRANCH   7   9
ENDBRANCH   1   3
BRANCH   1  14
ATOM     14  O   UNL     1       2.627   4.864  17.790  0.00  0.00    +0.000 OA
BRANCH  14  20
ATOM     15  C   UNL     1       3.011   4.394  20.204  0.00  0.00    +0.000 C 
ATOM     16  C   UNL     1       2.256   3.966  21.478  0.00  0.00    +0.000 C 
ATOM     17  C   UNL     1       1.350   2.746  21.264  0.00  0.00    +0.000 C 
ATOM     18  C   UNL     1       0.402   2.928  20.083  0.00  0.00    +0.000 C 
ATOM     19  C   UNL     1       1.149   3.328  18.822  0.00  0.00    +0.000 C 
ATOM     20  C   UNL     1       2.009   4.573  19.053  0.00  0.00    +0.000 C 
BRANCH  15  22
ATOM     21  N   UNL     1       4.907   2.651  19.637  0.00  0.00    +0.000 NA
ATOM     22  C   UNL     1       4.064   3.412  19.881  0.00  0.00    +0.000 C 
ENDBRANCH  15  22
ENDBRANCH  14  20
ENDBRANCH   1  14
TORSDOF 5
ENDMDL
MODEL 7
REMARK VINA RESULT:      -7.4      4.698      7.345
REMARK  Name = 
REMARK  5 active torsions:
REMARK  status: ('A' for Active; 'I' for Inactive)
REMARK    1  A    between atoms: C_2  and  C_3
REMARK    2  A    between atoms: C_8  and  O_9
REMARK    3  A    between atoms: O_9  and  C_10
REMARK    4  A    between atoms: C_10  and  C_12
REMARK    5  A    between atoms: C_16  and  C_17
REMARK                            x       y       z     vdW  Elec       q    Type
REMARK                         _______ _______ _______ _____ _____    ______ ____
ROOT
ATOM      1  C   UNL     1       3.047   6.879  18.693  0.00  0.00    +0.000 C 
ATOM      2  O   UNL     1       4.041   6.942  17.990  0.00  0.00    +0.000 OA
ENDROOT
BRANCH   1   3
ATOM      3  C   UNL     1       2.055   7.988  18.855  0.00  0.00    +0.000 A 
ATOM      4  C   UNL     1       1.531   8.573  17.697  0.00  0.00    +0.000 A 
ATOM      5  C   UNL     1       0.721   9.703  17.791  0.00  0.00    +0.000 A 
ATOM      6  C   UNL     1       0.444  10.262  19.040  0.00  0.00    +0.000 A 
ATOM      7  C   UNL     1       0.953   9.693  20.220  0.00  0.00    +0.000 A 
ATOM      8  C   UNL     1       1.747   8.540  20.113  0.00  0.00    +0.000 A 
BRANCH   7   9
ATOM      9  C   UNL     1       0.603  10.330  21.550  0.00  0.00    +0.000 C 
ATOM     10  O   UNL     1      -0.786  10.654  21.693  0.00  0.00    +0.000 OA
ATOM     11  C   UNL     1      -0.977  10.613  23.105  0.00  0.00    +0.000 C 
ATOM     12  C   UNL     1      -0.132   9.438  23.519  0.00  0.00    +0.000 C 
ATOM     13  O   UNL     1       0.995   9.478  22.640  0.00  0.00    +0.000 OA
ENDBRANCH   7   9
ENDBRANCH   1   3
BRANCH   1  14
ATOM     14  O   UNL     1       2.767   5.882  19.561  0.00  0.00    +0.000 OA
BRANCH  14  20
ATOM     15  C   UNL     1       1.113   4.066  19.965  0.00  0.00    +0.000 C 
ATOM     16  C   UNL     1       0.489   2.836  19.277  0.00  0.00    +0.000 C 
ATOM     17  C   UNL     1       1.530   1.906  18.639  0.00  0.00    +0.000 C 
ATOM     18  C   UNL     1       2.479   2.652  17.707  0.00  0.00    +0.000 C 
ATOM     19  C   UNL     1       3.111   3.851  18.393  0.00  0.00    +0.000 C 
ATOM     20  C   UNL     1       2.048   4.783  18.979  0.00  0.00    +0.000 C 
BRANCH  15  22
ATOM     21  N   UNL     1       2.358   3.323  22.167  0.00  0.00    +0.000 NA
ATOM     22  C   UNL     1       1.808   3.661  21.202  0.00  0.00    +0.000 C 
ENDBRANCH  15  22
ENDBRANCH  14  20
ENDBRANCH   1  14
TORSDOF 5
ENDMDL
MODEL 8
REMARK VINA RESULT:      -7.4      5.232      7.269
REMARK  Name = 
REMARK  5 active torsions:
REMARK  status: ('A' for Active; 'I' for Inactive)
REMARK    1  A    between atoms: C_2  and  C_3
REMARK    2  A    between atoms: C_8  and  O_9
REMARK    3  A    between atoms: O_9  and  C_10
REMARK    4  A    between atoms: C_10  and  C_12
REMARK    5  A    between atoms: C_16  and  C_17
REMARK                            x       y       z     vdW  Elec       q    Type
REMARK                         _______ _______ _______ _____ _____    ______ ____
ROOT
ATOM      1  C   UNL     1       2.649   7.084  18.943  0.00  0.00    +0.000 C 
ATOM      2  O   UNL     1       3.362   7.328  17.984  0.00  0.00    +0.000 OA
ENDROOT
BRANCH   1   3
ATOM      3  C   UNL     1       1.765   8.088  19.614  0.00  0.00    +0.000 A 
ATOM      4  C   UNL     1       1.473   7.903  20.970  0.00  0.00    +0.000 A 
ATOM      5  C   UNL     1       0.539   8.722  21.601  0.00  0.00    +0.000 A 
ATOM      6  C   UNL     1      -0.116   9.720  20.878  0.00  0.00    +0.000 A 
ATOM      7  C   UNL     1       0.160   9.933  19.516  0.00  0.00    +0.000 A 
ATOM      8  C   UNL     1       1.121   9.116  18.899  0.00  0.00    +0.000 A 
BRANCH   7   9
ATOM      9  C   UNL     1      -0.567  11.044  18.786  0.00  0.00    +0.000 C 
ATOM     10  O   UNL     1      -1.316  10.600  17.648  0.00  0.00    +0.000 OA
ATOM     11  C   UNL     1      -2.341  11.585  17.541  0.00  0.00    +0.000 C 
ATOM     12  C   UNL     1      -2.691  11.857  18.979  0.00  0.00    +0.000 C 
ATOM     13  O   UNL     1      -1.449  11.745  19.678  0.00  0.00    +0.000 OA
ENDBRANCH   7   9
ENDBRANCH   1   3
BRANCH   1  14
ATOM     14  O   UNL     1       2.665   5.936  19.656  0.00  0.00    +0.000 OA
BRANCH  14  20
ATOM     15  C   UNL     1       1.132   3.984  19.838  0.00  0.00    +0.000 C 
ATOM     16  C   UNL     1       0.673   2.741  19.050  0.00  0.00    +0.000 C 
ATOM     17  C   UNL     1       1.837   1.922  18.479  0.00  0.00    +0.000 C 
ATOM     18  C   UNL     1       2.804   2.778  17.666  0.00  0.00    +0.000 C 
ATOM     19  C   UNL     1       3.274   3.990  18.452  0.00  0.00    +0.000 C 
ATOM     20  C   UNL     1       2.092   4.812  18.970  0.00  0.00    +0.000 C 
BRANCH  15  22
ATOM     21  N   UNL     1       2.244   3.263  22.117  0.00  0.00    +0.000 NA
ATOM     22  C   UNL     1       1.743   3.580  21.118  0.00  0.00    +0.000 C 
ENDBRANCH  15  22
ENDBRANCH  14  20
ENDBRANCH   1  14
TORSDOF 5
ENDMDL
MODEL 9
REMARK VINA RESULT:      -7.3      4.782      7.872
REMARK  Name = 
REMARK  5 active torsions:
REMARK  status: ('A' for Active; 'I' for Inactive)
REMARK    1  A    between atoms: C_2  and  C_3
REMARK    2  A    between atoms: C_8  and  O_9
REMARK    3  A    between atoms: O_9  and  C_10
REMARK    4  A    between atoms: C_10  and  C_12
REMARK    5  A    between atoms: C_16  and  C_17
REMARK                            x       y       z     vdW  Elec       q    Type
REMARK                         _______ _______ _______ _____ _____    ______ ____
ROOT
ATOM      1  C   UNL     1       3.352   6.344  18.662  0.00  0.00    +0.000 C 
ATOM      2  O   UNL     1       3.046   5.192  18.920  0.00  0.00    +0.000 OA
ENDROOT
BRANCH   1   3
ATOM      3  C   UNL     1       2.418   7.509  18.768  0.00  0.00    +0.000 A 
ATOM      4  C   UNL     1       2.498   8.504  17.788  0.00  0.00    +0.000 A 
ATOM      5  C   UNL     1       1.758   9.677  17.922  0.00  0.00    +0.000 A 
ATOM      6  C   UNL     1       0.945   9.866  19.041  0.00  0.00    +0.000 A 
ATOM      7  C   UNL     1       0.840   8.881  20.039  0.00  0.00    +0.000 A 
ATOM      8  C   UNL     1       1.573   7.694  19.878  0.00  0.00    +0.000 A 
BRANCH   7   9
ATOM      9  C   UNL     1      -0.073   9.130  21.221  0.00  0.00    +0.000 C 
ATOM     10  O   UNL     1       0.571   8.991  22.494  0.00  0.00    +0.000 OA
ATOM     11  C   UNL     1      -0.207   9.840  23.336  0.00  0.00    +0.000 C 
ATOM     12  C   UNL     1      -0.506  11.012  22.441  0.00  0.00    +0.000 C 
ATOM     13  O   UNL     1      -0.663  10.439  21.140  0.00  0.00    +0.000 OA
ENDBRANCH   7   9
ENDBRANCH   1   3
BRANCH   1  14
ATOM     14  O   UNL     1       4.509   6.733  18.085  0.00  0.00    +0.000 OA
BRANCH  14  20
ATOM     15  C   UNL     1       6.757   5.697  17.825  0.00  0.00    +0.000 C 
ATOM     16  C   UNL     1       7.483   4.584  17.044  0.00  0.00    +0.000 C 
ATOM     17  C   UNL     1       7.192   4.613  15.537  0.00  0.00    +0.000 C 
ATOM     18  C   UNL     1       5.698   4.630  15.235  0.00  0.00    +0.000 C 
ATOM     19  C   UNL     1       4.987   5.743  15.987  0.00  0.00    +0.000 C 
ATOM     20  C   UNL     1       5.258   5.661  17.491  0.00  0.00    +0.000 C 
BRANCH  15  22
ATOM     21  N   UNL     1       7.854   8.039  17.309  0.00  0.00    +0.000 NA
ATOM     22  C   UNL     1       7.365   7.008  17.526  0.00  0.00    +0.000 C 
ENDBRANCH  15  22
ENDBRANCH  14  20
ENDBRANCH   1  14
TORSDOF 5
ENDMDL
