MODEL 1
REMARK VINA RESULT:      -7.6      0.000      0.000
REMARK  Name = 
REMARK  12 active torsions:
REMARK  status: ('A' for Active; 'I' for Inactive)
REMARK    1  A    between atoms: C_1  and  C_2
REMARK    2  A    between atoms: C_6  and  C_7
REMARK    3  A    between atoms: C_7  and  N_8
REMARK    4  A    between atoms: N_14  and  CA_15
REMARK    5  A    between atoms: CA_15  and  CB_16
REMARK    6  A    between atoms: CA_15  and  C_20
REMARK    7  A    between atoms: CB_16  and  CG_17
REMARK    8  A    between atoms: CG_17  and  CD1_18
REMARK    9  A    between atoms: CG_17  and  CD2_19
REMARK   10  A    between atoms: C_20  and  OXT_22
REMARK   11  A    between atoms: C_23  and  C_24
REMARK   12  A    between atoms: C_24  and  C_25
REMARK                            x       y       z     vdW  Elec       q    Type
REMARK                         _______ _______ _______ _____ _____    ______ ____
ROOT
ATOM      1  N   UNK A   0       1.242   8.338  19.333  0.00  0.00    +0.000 N 
ATOM      2  C   UNK A   0       1.920   7.850  20.535  0.00  0.00    +0.000 C 
ATOM      3  C   UNK A   0       2.605   6.496  20.390  0.00  0.00    +0.000 C 
ATOM      4  N   UNK A   0       3.362   6.396  19.143  0.00  0.00    +0.000 N 
ATOM      5  C   UNK A   0       4.597   5.779  19.197  0.00  0.00    +0.000 C 
ATOM      6  O   UNK A   0       5.087   5.362  20.244  0.00  0.00    +0.000 OA
ATOM      7  N   LEU A   1       5.243   5.606  18.013  0.00  0.00    +0.000 N 
ATOM      8  C   UNK A   0       2.616   6.789  17.918  0.00  0.00    +0.000 C 
ATOM      9  C   UNK A   0       1.970   8.170  18.145  0.00  0.00    +0.000 C 
ATOM     10  O   UNK A   0       1.994   9.015  17.247  0.00  0.00    +0.000 OA
ATOM     11  H   LEU A   1       5.079   6.253  17.252  0.00  0.00    +0.000 HD
ENDROOT
BRANCH   1  12
ATOM     12  C   UNK A   0       0.482   9.581  19.510  0.00  0.00    +0.000 C 
BRANCH  12  18
ATOM     13  C   UNK A   0       0.451  12.413  21.320  0.00  0.00    +0.000 C 
ATOM     14  C   UNK A   0       0.125  11.019  21.695  0.00  0.00    +0.000 A 
ATOM     15  N   UNK A   0      -0.328  10.753  22.970  0.00  0.00    +0.000 NA
ATOM     16  C   UNK A   0      -0.573   9.465  22.997  0.00  0.00    +0.000 A 
ATOM     17  N   UNK A   0      -0.309   8.891  21.793  0.00  0.00    +0.000 N 
ATOM     18  C   UNK A   0       0.161   9.861  20.937  0.00  0.00    +0.000 A 
ATOM     19  H   UNK A   0      -0.420   7.913  21.555  0.00  0.00    +0.000 HD
ENDBRANCH  12  18
ENDBRANCH   1  12
BRANCH   7  20
ATOM     20  CA  LEU A   1       6.489   4.845  17.900  0.00  0.00    +0.000 C 
BRANCH  20  21
ATOM     21  C   LEU A   1       7.623   5.684  18.504  0.00  0.00    +0.000 C 
ATOM     22  O   LEU A   1       7.979   6.762  18.047  0.00  0.00    +0.000 OA
BRANCH  21  23
ATOM     23  OXT LEU A   1       8.193   5.151  19.609  0.00  0.00    +0.000 OA
ATOM     24  HXT LEU A   1       7.585   4.999  20.357  0.00  0.00    +0.000 HD
ENDBRANCH  21  23
ENDBRANCH  20  21
BRANCH  20  25
ATOM     25  CB  LEU A   1       6.779   4.424  16.445  0.00  0.00    +0.000 C 
BRANCH  25  26
ATOM     26  CG  LEU A   1       5.626   4.625  15.433  0.00  0.00    +0.000 C 
ATOM     27  CD1 LEU A   1       5.375   6.118  15.195  0.00  0.00    +0.000 C 
ATOM     28  CD2 LEU A   1       5.886   3.972  14.079  0.00  0.00    +0.000 C 
ENDBRANCH  25  26
ENDBRANCH  20  25
ENDBRANCH   7  20
BRANCH   8  29
ATOM     29  C   UNK A   0       1.555   5.735  17.508  0.00  0.00    +0.000 C 
BRANCH  29  30
ATOM     30  C   UNK A   0       1.704   4.283  17.939  0.00  0.00    +0.000 A 
ATOM     31  C   UNK A   0       1.002   3.696  18.998  0.00  0.00    +0.000 A 
ATOM     32  C   UNK A   0       1.212   2.353  19.338  0.00  0.00    +0.000 A 
ATOM     33  C   UNK A   0       2.101   1.566  18.609  0.00  0.00    +0.000 A 
ATOM     34  C   UNK A   0       2.771   2.118  17.526  0.00  0.00    +0.000 A 
ATOM     35  C   UNK A   0       2.572   3.461  17.192  0.00  0.00    +0.000 A 
ENDBRANCH  29  30
ENDBRANCH   8  29
TORSDOF 9
ENDMDL
MODEL 2
REMARK VINA RESULT:      -7.5      0.114      1.023
REMARK  Name = 
REMARK  12 active torsions:
REMARK  status: ('A' for Active; 'I' for Inactive)
REMARK    1  A    between atoms: C_1  and  C_2
REMARK    2  A    between atoms: C_6  and  C_7
REMARK    3  A    between atoms: C_7  and  N_8
REMARK    4  A    between atoms: N_14  and  CA_15
REMARK    5  A    between atoms: CA_15  and  CB_16
REMARK    6  A    between atoms: CA_15  and  C_20
REMARK    7  A    between atoms: CB_16  and  CG_17
REMARK    8  A    between atoms: CG_17  and  CD1_18
REMARK    9  A    between atoms: CG_17  and  CD2_19
REMARK   10  A    between atoms: C_20  and  OXT_22
REMARK   11  A    between atoms: C_23  and  C_24
REMARK   12  A    between atoms: C_24  and  C_25
REMARK                            x       y       z     vdW  Elec       q    Type
REMARK                         _______ _______ _______ _____ _____    ______ ____
ROOT
ATOM      1  N   UNK A   0       1.315   8.340  19.299  0.00  0.00    +0.000 N 
ATOM      2  C   UNK A   0       1.956   7.822  20.508  0.00  0.00    +0.000 C 
ATOM      3  C   UNK A   0       2.622   6.459  20.358  0.00  0.00    +0.000 C 
ATOM      4  N   UNK A   0       3.406   6.365  19.127  0.00  0.00    +0.000 N 
ATOM      5  C   UNK A   0       4.629   5.726  19.200  0.00  0.00    +0.000 C 
ATOM      6  O   UNK A   0       5.087   5.285  20.251  0.00  0.00    +0.000 OA
ATOM      7  N   LEU A   1       5.300   5.559  18.029  0.00  0.00    +0.000 N 
ATOM      8  C   UNK A   0       2.696   6.790  17.891  0.00  0.00    +0.000 C 
ATOM      9  C   UNK A   0       2.068   8.178  18.125  0.00  0.00    +0.000 C 
ATOM     10  O   UNK A   0       2.128   9.035  17.241  0.00  0.00    +0.000 OA
ATOM     11  H   LEU A   1       5.164   6.221  17.275  0.00  0.00    +0.000 HD
ENDROOT
BRANCH   1  12
ATOM     12  C   UNK A   0       0.572   9.593  19.476  0.00  0.00    +0.000 C 
BRANCH  12  18
ATOM     13  C   UNK A   0       0.516  12.408  21.313  0.00  0.00    +0.000 C 
ATOM     14  C   UNK A   0       0.181  11.011  21.670  0.00  0.00    +0.000 A 
ATOM     15  N   UNK A   0      -0.293  10.733  22.934  0.00  0.00    +0.000 NA
ATOM     16  C   UNK A   0      -0.541   9.445  22.944  0.00  0.00    +0.000 A 
ATOM     17  N   UNK A   0      -0.258   8.882  21.740  0.00  0.00    +0.000 N 
ATOM     18  C   UNK A   0       0.229   9.860  20.901  0.00  0.00    +0.000 A 
ATOM     19  H   UNK A   0      -0.366   7.907  21.490  0.00  0.00    +0.000 HD
ENDBRANCH  12  18
ENDBRANCH   1  12
BRANCH   7  20
ATOM     20  CA  LEU A   1       6.535   4.780  17.932  0.00  0.00    +0.000 C 
BRANCH  20  21
ATOM     21  C   LEU A   1       7.658   5.568  18.618  0.00  0.00    +0.000 C 
ATOM     22  O   LEU A   1       8.330   5.119  19.539  0.00  0.00    +0.000 OA
BRANCH  21  23
ATOM     23  OXT LEU A   1       7.874   6.803  18.111  0.00  0.00    +0.000 OA
ATOM     24  HXT LEU A   1       8.032   7.501  18.776  0.00  0.00    +0.000 HD
ENDBRANCH  21  23
ENDBRANCH  20  21
BRANCH  20  25
ATOM     25  CB  LEU A   1       6.877   4.415  16.474  0.00  0.00    +0.000 C 
BRANCH  25  26
ATOM     26  CG  LEU A   1       5.721   4.533  15.452  0.00  0.00    +0.000 C 
ATOM     27  CD1 LEU A   1       5.383   6.005  15.192  0.00  0.00    +0.000 C 
ATOM     28  CD2 LEU A   1       6.030   3.879  14.109  0.00  0.00    +0.000 C 
ENDBRANCH  25  26
ENDBRANCH  20  25
ENDBRANCH   7  20
BRANCH   8  29
ATOM     29  C   UNK A   0       1.627   5.760  17.440  0.00  0.00    +0.000 C 
BRANCH  29  30
ATOM     30  C   UNK A   0       1.766   4.291  17.814  0.00  0.00    +0.000 A 
ATOM     31  C   UNK A   0       2.656   3.400  17.202  0.00  0.00    +0.000 A 
ATOM     32  C   UNK A   0       2.708   2.057  17.598  0.00  0.00    +0.000 A 
ATOM     33  C   UNK A   0       1.898   1.588  18.630  0.00  0.00    +0.000 A 
ATOM     34  C   UNK A   0       1.043   2.468  19.281  0.00  0.00    +0.000 A 
ATOM     35  C   UNK A   0       0.981   3.806  18.879  0.00  0.00    +0.000 A 
ENDBRANCH  29  30
ENDBRANCH   8  29
TORSDOF 9
ENDMDL
MODEL 3
REMARK VINA RESULT:      -7.5      2.219      7.573
REMARK  Name = 
REMARK  12 active torsions:
REMARK  status: ('A' for Active; 'I' for Inactive)
REMARK    1  A    between atoms: C_1  and  C_2
REMARK    2  A    between atoms: C_6  and  C_7
REMARK    3  A    between atoms: C_7  and  N_8
REMARK    4  A    between atoms: N_14  and  CA_15
REMARK    5  A    between atoms: CA_15  and  CB_16
REMARK    6  A    between atoms: CA_15  and  C_20
REMARK    7  A    between atoms: CB_16  and  CG_17
REMARK    8  A    between atoms: CG_17  and  CD1_18
REMARK    9  A    between atoms: CG_17  and  CD2_19
REMARK   10  A    between atoms: C_20  and  OXT_22
REMARK   11  A    between atoms: C_23  and  C_24
REMARK   12  A    between atoms: C_24  and  C_25
REMARK                            x       y       z     vdW  Elec       q    Type
REMARK                         _______ _______ _______ _____ _____    ______ ____
ROOT
ATOM      1  N   UNK A   0       4.903   6.105  17.571  0.00  0.00    +0.000 N 
ATOM      2  C   UNK A   0       4.825   7.343  16.795  0.00  0.00    +0.000 C 
ATOM      3  C   UNK A   0       3.448   7.994  16.745  0.00  0.00    +0.000 C 
ATOM      4  N   UNK A   0       2.807   8.020  18.060  0.00  0.00    +0.000 N 
ATOM      5  C   UNK A   0       2.121   9.168  18.410  0.00  0.00    +0.000 C 
ATOM      6  O   UNK A   0       2.072  10.159  17.686  0.00  0.00    +0.000 OA
ATOM      7  N   LEU A   1       1.449   9.138  19.591  0.00  0.00    +0.000 N 
ATOM      8  C   UNK A   0       2.797   6.722  18.784  0.00  0.00    +0.000 C 
ATOM      9  C   UNK A   0       4.226   6.143  18.799  0.00  0.00    +0.000 C 
ATOM     10  O   UNK A   0       4.667   5.624  19.826  0.00  0.00    +0.000 OA
ATOM     11  H   LEU A   1       1.780   8.547  20.342  0.00  0.00    +0.000 HD
ENDROOT
BRANCH   1  12
ATOM     12  C   UNK A   0       6.199   5.417  17.517  0.00  0.00    +0.000 C 
BRANCH  12  18
ATOM     13  C   UNK A   0       4.949   2.932  15.629  0.00  0.00    +0.000 C 
ATOM     14  C   UNK A   0       6.018   3.917  15.351  0.00  0.00    +0.000 A 
ATOM     15  N   UNK A   0       6.623   3.924  14.112  0.00  0.00    +0.000 NA
ATOM     16  C   UNK A   0       7.482   4.914  14.142  0.00  0.00    +0.000 A 
ATOM     17  N   UNK A   0       7.450   5.554  15.341  0.00  0.00    +0.000 N 
ATOM     18  C   UNK A   0       6.532   4.924  16.151  0.00  0.00    +0.000 A 
ATOM     19  H   UNK A   0       8.013   6.350  15.615  0.00  0.00    +0.000 HD
ENDBRANCH  12  18
ENDBRANCH   1  12
BRANCH   7  20
ATOM     20  CA  LEU A   1       0.568  10.225  20.022  0.00  0.00    +0.000 C 
BRANCH  20  21
ATOM     21  C   LEU A   1       0.729  10.405  21.537  0.00  0.00    +0.000 C 
ATOM     22  O   LEU A   1       1.364   9.631  22.243  0.00  0.00    +0.000 OA
BRANCH  21  23
ATOM     23  OXT LEU A   1       0.132  11.508  22.043  0.00  0.00    +0.000 OA
ATOM     24  HXT LEU A   1       0.596  11.921  22.796  0.00  0.00    +0.000 HD
ENDBRANCH  21  23
ENDBRANCH  20  21
BRANCH  20  25
ATOM     25  CB  LEU A   1      -0.898   9.978  19.612  0.00  0.00    +0.000 C 
BRANCH  25  26
ATOM     26  CG  LEU A   1      -1.447  10.868  18.471  0.00  0.00    +0.000 C 
ATOM     27  CD1 LEU A   1      -2.160  10.012  17.419  0.00  0.00    +0.000 C 
ATOM     28  CD2 LEU A   1      -2.425  11.935  18.950  0.00  0.00    +0.000 C 
ENDBRANCH  25  26
ENDBRANCH  20  25
ENDBRANCH   7  20
BRANCH   8  29
ATOM     29  C   UNK A   0       1.791   5.711  18.172  0.00  0.00    +0.000 C 
BRANCH  29  30
ATOM     30  C   UNK A   0       1.733   4.278  18.681  0.00  0.00    +0.000 A 
ATOM     31  C   UNK A   0       2.139   3.160  17.943  0.00  0.00    +0.000 A 
ATOM     32  C   UNK A   0       2.037   1.870  18.483  0.00  0.00    +0.000 A 
ATOM     33  C   UNK A   0       1.558   1.679  19.777  0.00  0.00    +0.000 A 
ATOM     34  C   UNK A   0       1.196   2.780  20.541  0.00  0.00    +0.000 A 
ATOM     35  C   UNK A   0       1.285   4.066  20.000  0.00  0.00    +0.000 A 
ENDBRANCH  29  30
ENDBRANCH   8  29
TORSDOF 9
ENDMDL
MODEL 4
REMARK VINA RESULT:      -7.4      2.210      7.490
REMARK  Name = 
REMARK  12 active torsions:
REMARK  status: ('A' for Active; 'I' for Inactive)
REMARK    1  A    between atoms: C_1  and  C_2
REMARK    2  A    between atoms: C_6  and  C_7
REMARK    3  A    between atoms: C_7  and  N_8
REMARK    4  A    between atoms: N_14  and  CA_15
REMARK    5  A    between atoms: CA_15  and  CB_16
REMARK    6  A    between atoms: CA_15  and  C_20
REMARK    7  A    between atoms: CB_16  and  CG_17
REMARK    8  A    between atoms: CG_17  and  CD1_18
REMARK    9  A    between atoms: CG_17  and  CD2_19
REMARK   10  A    between atoms: C_20  and  OXT_22
REMARK   11  A    between atoms: C_23  and  C_24
REMARK   12  A    between atoms: C_24  and  C_25
REMARK                            x       y       z     vdW  Elec       q    Type
REMARK                         _______ _______ _______ _____ _____    ______ ____
ROOT
ATOM      1  N   UNK A   0       4.922   6.098  17.555  0.00  0.00    +0.000 N 
ATOM      2  C   UNK A   0       4.810   7.326  16.768  0.00  0.00    +0.000 C 
ATOM      3  C   UNK A   0       3.419   7.948  16.727  0.00  0.00    +0.000 C 
ATOM      4  N   UNK A   0       2.793   7.975  18.048  0.00  0.00    +0.000 N 
ATOM      5  C   UNK A   0       2.087   9.112  18.394  0.00  0.00    +0.000 C 
ATOM      6  O   UNK A   0       2.010  10.095  17.660  0.00  0.00    +0.000 OA
ATOM      7  N   LEU A   1       1.429   9.082  19.583  0.00  0.00    +0.000 N 
ATOM      8  C   UNK A   0       2.817   6.684  18.786  0.00  0.00    +0.000 C 
ATOM      9  C   UNK A   0       4.258   6.136  18.791  0.00  0.00    +0.000 C 
ATOM     10  O   UNK A   0       4.721   5.636  19.818  0.00  0.00    +0.000 OA
ATOM     11  H   LEU A   1       1.781   8.505  20.337  0.00  0.00    +0.000 HD
ENDROOT
BRANCH   1  12
ATOM     12  C   UNK A   0       6.231   5.437  17.494  0.00  0.00    +0.000 C 
BRANCH  12  18
ATOM     13  C   UNK A   0       4.966   2.925  15.652  0.00  0.00    +0.000 C 
ATOM     14  C   UNK A   0       6.033   3.906  15.350  0.00  0.00    +0.000 A 
ATOM     15  N   UNK A   0       6.628   3.896  14.107  0.00  0.00    +0.000 NA
ATOM     16  C   UNK A   0       7.487   4.886  14.116  0.00  0.00    +0.000 A 
ATOM     17  N   UNK A   0       7.465   5.542  15.306  0.00  0.00    +0.000 N 
ATOM     18  C   UNK A   0       6.553   4.924  16.132  0.00  0.00    +0.000 A 
ATOM     19  H   UNK A   0       8.029   6.343  15.564  0.00  0.00    +0.000 HD
ENDBRANCH  12  18
ENDBRANCH   1  12
BRANCH   7  20
ATOM     20  CA  LEU A   1       0.530  10.154  20.013  0.00  0.00    +0.000 C 
BRANCH  20  21
ATOM     21  C   LEU A   1       0.605  10.263  21.542  0.00  0.00    +0.000 C 
ATOM     22  O   LEU A   1       0.421  11.309  22.151  0.00  0.00    +0.000 OA
BRANCH  21  23
ATOM     23  OXT LEU A   1       0.868   9.100  22.180  0.00  0.00    +0.000 OA
ATOM     24  HXT LEU A   1       0.123   8.471  22.217  0.00  0.00    +0.000 HD
ENDBRANCH  21  23
ENDBRANCH  20  21
BRANCH  20  25
ATOM     25  CB  LEU A   1      -0.910   9.939  19.508  0.00  0.00    +0.000 C 
BRANCH  25  26
ATOM     26  CG  LEU A   1      -1.365  10.841  18.336  0.00  0.00    +0.000 C 
ATOM     27  CD1 LEU A   1      -1.878   9.988  17.171  0.00  0.00    +0.000 C 
ATOM     28  CD2 LEU A   1      -2.466  11.825  18.718  0.00  0.00    +0.000 C 
ENDBRANCH  25  26
ENDBRANCH  20  25
ENDBRANCH   7  20
BRANCH   8  29
ATOM     29  C   UNK A   0       1.825   5.647  18.196  0.00  0.00    +0.000 C 
BRANCH  29  30
ATOM     30  C   UNK A   0       1.718   4.254  18.799  0.00  0.00    +0.000 A 
ATOM     31  C   UNK A   0       1.146   3.974  20.046  0.00  0.00    +0.000 A 
ATOM     32  C   UNK A   0       1.102   2.661  20.534  0.00  0.00    +0.000 A 
ATOM     33  C   UNK A   0       1.598   1.604  19.775  0.00  0.00    +0.000 A 
ATOM     34  C   UNK A   0       2.125   1.856  18.515  0.00  0.00    +0.000 A 
ATOM     35  C   UNK A   0       2.181   3.167  18.031  0.00  0.00    +0.000 A 
ENDBRANCH  29  30
ENDBRANCH   8  29
TORSDOF 9
ENDMDL
MODEL 5
REMARK VINA RESULT:      -7.3      3.506      9.901
REMARK  Name = 
REMARK  12 active torsions:
REMARK  status: ('A' for Active; 'I' for Inactive)
REMARK    1  A    between atoms: C_1  and  C_2
REMARK    2  A    between atoms: C_6  and  C_7
REMARK    3  A    between atoms: C_7  and  N_8
REMARK    4  A    between atoms: N_14  and  CA_15
REMARK    5  A    between atoms: CA_15  and  CB_16
REMARK    6  A    between atoms: CA_15  and  C_20
REMARK    7  A    between atoms: CB_16  and  CG_17
REMARK    8  A    between atoms: CG_17  and  CD1_18
REMARK    9  A    between atoms: CG_17  and  CD2_19
REMARK   10  A    between atoms: C_20  and  OXT_22
REMARK   11  A    between atoms: C_23  and  C_24
REMARK   12  A    between atoms: C_24  and  C_25
REMARK                            x       y       z     vdW  Elec       q    Type
REMARK                         _______ _______ _______ _____ _____    ______ ____
ROOT
ATOM      1  N   UNK A   0       1.399   8.918  18.996  0.00  0.00    +0.000 N 
ATOM      2  C   UNK A   0       1.507   8.387  20.355  0.00  0.00    +0.000 C 
ATOM      3  C   UNK A   0       1.464   9.429  21.466  0.00  0.00    +0.000 C 
ATOM      4  N   UNK A   0       0.409  10.418  21.248  0.00  0.00    +0.000 N 
ATOM      5  C   UNK A   0      -0.323  10.820  22.349  0.00  0.00    +0.000 C 
ATOM      6  O   UNK A   0      -0.149  10.349  23.471  0.00  0.00    +0.000 OA
ATOM      7  N   LEU A   1      -1.231  11.811  22.148  0.00  0.00    +0.000 N 
ATOM      8  C   UNK A   0       0.387  11.031  19.893  0.00  0.00    +0.000 C 
ATOM      9  C   UNK A   0       0.419   9.910  18.835  0.00  0.00    +0.000 C 
ATOM     10  O   UNK A   0      -0.302   9.988  17.838  0.00  0.00    +0.000 OA
ATOM     11  H   LEU A   1      -1.661  11.921  21.238  0.00  0.00    +0.000 HD
ENDROOT
BRANCH   1  12
ATOM     12  C   UNK A   0       1.562   7.928  17.925  0.00  0.00    +0.000 C 
BRANCH  12  18
ATOM     13  C   UNK A   0       1.985   4.915  19.354  0.00  0.00    +0.000 C 
ATOM     14  C   UNK A   0       2.952   5.815  18.687  0.00  0.00    +0.000 A 
ATOM     15  N   UNK A   0       4.260   5.407  18.534  0.00  0.00    +0.000 NA
ATOM     16  C   UNK A   0       4.859   6.374  17.882  0.00  0.00    +0.000 A 
ATOM     17  N   UNK A   0       3.994   7.382  17.598  0.00  0.00    +0.000 N 
ATOM     18  C   UNK A   0       2.760   7.064  18.120  0.00  0.00    +0.000 A 
ATOM     19  H   UNK A   0       4.208   8.238  17.100  0.00  0.00    +0.000 HD
ENDBRANCH  12  18
ENDBRANCH   1  12
BRANCH   7  20
ATOM     20  CA  LEU A   1      -1.975  12.433  23.245  0.00  0.00    +0.000 C 
BRANCH  20  21
ATOM     21  C   LEU A   1      -3.468  12.403  22.894  0.00  0.00    +0.000 C 
ATOM     22  O   LEU A   1      -3.897  12.580  21.761  0.00  0.00    +0.000 OA
BRANCH  21  23
ATOM     23  OXT LEU A   1      -4.289  12.138  23.936  0.00  0.00    +0.000 OA
ATOM     24  HXT LEU A   1      -5.094  11.635  23.710  0.00  0.00    +0.000 HD
ENDBRANCH  21  23
ENDBRANCH  20  21
BRANCH  20  25
ATOM     25  CB  LEU A   1      -1.471  13.857  23.551  0.00  0.00    +0.000 C 
BRANCH  25  26
ATOM     26  CG  LEU A   1      -0.994  14.689  22.336  0.00  0.00    +0.000 C 
ATOM     27  CD1 LEU A   1      -2.044  15.739  21.959  0.00  0.00    +0.000 C 
ATOM     28  CD2 LEU A   1       0.328  15.411  22.576  0.00  0.00    +0.000 C 
ENDBRANCH  25  26
ENDBRANCH  20  25
ENDBRANCH   7  20
BRANCH   8  29
ATOM     29  C   UNK A   0       1.550  12.035  19.680  0.00  0.00    +0.000 C 
BRANCH  29  30
ATOM     30  C   UNK A   0       1.259  13.498  19.377  0.00  0.00    +0.000 A 
ATOM     31  C   UNK A   0       0.010  13.990  18.979  0.00  0.00    +0.000 A 
ATOM     32  C   UNK A   0      -0.168  15.353  18.705  0.00  0.00    +0.000 A 
ATOM     33  C   UNK A   0       0.887  16.251  18.854  0.00  0.00    +0.000 A 
ATOM     34  C   UNK A   0       2.120  15.789  19.294  0.00  0.00    +0.000 A 
ATOM     35  C   UNK A   0       2.303  14.427  19.557  0.00  0.00    +0.000 A 
ENDBRANCH  29  30
ENDBRANCH   8  29
TORSDOF 9
ENDMDL
MODEL 6
REMARK VINA RESULT:      -7.3      2.296      7.682
REMARK  Name = 
REMARK  12 active torsions:
REMARK  status: ('A' for Active; 'I' for Inactive)
REMARK    1  A    between atoms: C_1  and  C_2
REMARK    2  A    between atoms: C_6  and  C_7
REMARK    3  A    between atoms: C_7  and  N_8
REMARK    4  A    between atoms: N_14  and  CA_15
REMARK    5  A    between atoms: CA_15  and  CB_16
REMARK    6  A    between atoms: CA_15  and  C_20
REMARK    7  A    between atoms: CB_16  and  CG_17
REMARK    8  A    between atoms: CG_17  and  CD1_18
REMARK    9  A    between atoms: CG_17  and  CD2_19
REMARK   10  A    between atoms: C_20  and  OXT_22
REMARK   11  A    between atoms: C_23  and  C_24
REMARK   12  A    between atoms: C_24  and  C_25
REMARK                            x       y       z     vdW  Elec       q    Type
REMARK                         _______ _______ _______ _____ _____    ______ ____
ROOT
ATOM      1  N   UNK A   0       5.394   5.902  17.000  0.00  0.00    +0.000 N 
ATOM      2  C   UNK A   0       4.981   7.058  16.202  0.00  0.00    +0.000 C 
ATOM      3  C   UNK A   0       3.536   7.501  16.399  0.00  0.00    +0.000 C 
ATOM      4  N   UNK A   0       3.161   7.533  17.812  0.00  0.00    +0.000 N 
ATOM      5  C   UNK A   0       2.387   8.594  18.241  0.00  0.00    +0.000 C 
ATOM      6  O   UNK A   0       2.050   9.514  17.498  0.00  0.00    +0.000 OA
ATOM      7  N   LEU A   1       1.964   8.557  19.533  0.00  0.00    +0.000 N 
ATOM      8  C   UNK A   0       3.487   6.302  18.580  0.00  0.00    +0.000 C 
ATOM      9  C   UNK A   0       4.964   5.935  18.336  0.00  0.00    +0.000 C 
ATOM     10  O   UNK A   0       5.667   5.559  19.277  0.00  0.00    +0.000 OA
ATOM     11  H   LEU A   1       2.519   8.075  20.228  0.00  0.00    +0.000 HD
ENDROOT
BRANCH   1  12
ATOM     12  C   UNK A   0       6.745   5.403  16.720  0.00  0.00    +0.000 C 
BRANCH  12  18
ATOM     13  C   UNK A   0       5.024   3.287  14.754  0.00  0.00    +0.000 C 
ATOM     14  C   UNK A   0       6.211   4.124  14.471  0.00  0.00    +0.000 A 
ATOM     15  N   UNK A   0       6.736   4.142  13.197  0.00  0.00    +0.000 NA
ATOM     16  C   UNK A   0       7.735   4.990  13.236  0.00  0.00    +0.000 A 
ATOM     17  N   UNK A   0       7.872   5.529  14.476  0.00  0.00    +0.000 N 
ATOM     18  C   UNK A   0       6.918   4.977  15.302  0.00  0.00    +0.000 A 
ATOM     19  H   UNK A   0       8.563   6.210  14.765  0.00  0.00    +0.000 HD
ENDBRANCH  12  18
ENDBRANCH   1  12
BRANCH   7  20
ATOM     20  CA  LEU A   1       1.026   9.536  20.082  0.00  0.00    +0.000 C 
BRANCH  20  21
ATOM     21  C   LEU A   1       0.798   9.208  21.564  0.00  0.00    +0.000 C 
ATOM     22  O   LEU A   1       1.583   9.522  22.450  0.00  0.00    +0.000 OA
BRANCH  21  23
ATOM     23  OXT LEU A   1      -0.359   8.560  21.829  0.00  0.00    +0.000 OA
ATOM     24  HXT LEU A   1      -0.518   7.761  21.291  0.00  0.00    +0.000 HD
ENDBRANCH  21  23
ENDBRANCH  20  21
BRANCH  20  25
ATOM     25  CB  LEU A   1      -0.291   9.588  19.282  0.00  0.00    +0.000 C 
BRANCH  25  26
ATOM     26  CG  LEU A   1      -0.799  10.997  18.894  0.00  0.00    +0.000 C 
ATOM     27  CD1 LEU A   1      -1.886  10.898  17.818  0.00  0.00    +0.000 C 
ATOM     28  CD2 LEU A   1      -1.372  11.782  20.069  0.00  0.00    +0.000 C 
ENDBRANCH  25  26
ENDBRANCH  20  25
ENDBRANCH   7  20
BRANCH   8  29
ATOM     29  C   UNK A   0       2.550   5.118  18.226  0.00  0.00    +0.000 C 
BRANCH  29  30
ATOM     30  C   UNK A   0       2.089   4.150  19.306  0.00  0.00    +0.000 A 
ATOM     31  C   UNK A   0       1.332   2.997  19.064  0.00  0.00    +0.000 A 
ATOM     32  C   UNK A   0       0.936   2.167  20.122  0.00  0.00    +0.000 A 
ATOM     33  C   UNK A   0       1.314   2.455  21.431  0.00  0.00    +0.000 A 
ATOM     34  C   UNK A   0       2.105   3.568  21.684  0.00  0.00    +0.000 A 
ATOM     35  C   UNK A   0       2.491   4.405  20.633  0.00  0.00    +0.000 A 
ENDBRANCH  29  30
ENDBRANCH   8  29
TORSDOF 9
ENDMDL
MODEL 7
REMARK VINA RESULT:      -7.2      3.428      6.536
REMARK  Name = 
REMARK  12 active torsions:
REMARK  status: ('A' for Active; 'I' for Inactive)
REMARK    1  A    between atoms: C_1  and  C_2
REMARK    2  A    between atoms: C_6  and  C_7
REMARK    3  A    between atoms: C_7  and  N_8
REMARK    4  A    between atoms: N_14  and  CA_15
REMARK    5  A    between atoms: CA_15  and  CB_16
REMARK    6  A    between atoms: CA_15  and  C_20
REMARK    7  A    between atoms: CB_16  and  CG_17
REMARK    8  A    between atoms: CG_17  and  CD1_18
REMARK    9  A    between atoms: CG_17  and  CD2_19
REMARK   10  A    between atoms: C_20  and  OXT_22
REMARK   11  A    between atoms: C_23  and  C_24
REMARK   12  A    between atoms: C_24  and  C_25
REMARK                            x       y       z     vdW  Elec       q    Type
REMARK                         _______ _______ _______ _____ _____    ______ ____
ROOT
ATOM      1  N   UNK A   0      -0.659  12.811  20.462  0.00  0.00    +0.000 N 
ATOM      2  C   UNK A   0      -0.225  12.332  21.775  0.00  0.00    +0.000 C 
ATOM      3  C   UNK A   0      -0.260  10.819  21.959  0.00  0.00    +0.000 C 
ATOM      4  N   UNK A   0       0.296  10.114  20.804  0.00  0.00    +0.000 N 
ATOM      5  C   UNK A   0       1.101   9.019  21.054  0.00  0.00    +0.000 C 
ATOM      6  O   UNK A   0       1.393   8.656  22.191  0.00  0.00    +0.000 OA
ATOM      7  N   LEU A   1       1.527   8.317  19.971  0.00  0.00    +0.000 N 
ATOM      8  C   UNK A   0      -0.243  10.539  19.485  0.00  0.00    +0.000 C 
ATOM      9  C   UNK A   0      -0.157  12.075  19.378  0.00  0.00    +0.000 C 
ATOM     10  O   UNK A   0       0.211  12.597  18.324  0.00  0.00    +0.000 OA
ATOM     11  H   LEU A   1       1.644   8.787  19.083  0.00  0.00    +0.000 HD
ENDROOT
BRANCH   1  12
ATOM     12  C   UNK A   0      -0.740  14.270  20.328  0.00  0.00    +0.000 C 
BRANCH  12  18
ATOM     13  C   UNK A   0      -4.033  13.685  20.660  0.00  0.00    +0.000 C 
ATOM     14  C   UNK A   0      -3.141  14.632  21.366  0.00  0.00    +0.000 A 
ATOM     15  N   UNK A   0      -3.652  15.408  22.385  0.00  0.00    +0.000 NA
ATOM     16  C   UNK A   0      -2.639  16.102  22.843  0.00  0.00    +0.000 A 
ATOM     17  N   UNK A   0      -1.495  15.800  22.174  0.00  0.00    +0.000 N 
ATOM     18  C   UNK A   0      -1.788  14.871  21.201  0.00  0.00    +0.000 A 
ATOM     19  H   UNK A   0      -0.577  16.196  22.339  0.00  0.00    +0.000 HD
ENDBRANCH  12  18
ENDBRANCH   1  12
BRANCH   7  20
ATOM     20  CA  LEU A   1       2.266   7.059  20.090  0.00  0.00    +0.000 C 
BRANCH  20  21
ATOM     21  C   LEU A   1       2.959   6.778  18.751  0.00  0.00    +0.000 C 
ATOM     22  O   LEU A   1       2.536   7.185  17.676  0.00  0.00    +0.000 OA
BRANCH  21  23
ATOM     23  OXT LEU A   1       4.101   6.058  18.844  0.00  0.00    +0.000 OA
ATOM     24  HXT LEU A   1       4.763   6.412  19.469  0.00  0.00    +0.000 HD
ENDBRANCH  21  23
ENDBRANCH  20  21
BRANCH  20  25
ATOM     25  CB  LEU A   1       1.359   5.896  20.538  0.00  0.00    +0.000 C 
BRANCH  25  26
ATOM     26  CG  LEU A   1       1.897   4.469  20.273  0.00  0.00    +0.000 C 
ATOM     27  CD1 LEU A   1       2.175   3.746  21.595  0.00  0.00    +0.000 C 
ATOM     28  CD2 LEU A   1       0.943   3.603  19.455  0.00  0.00    +0.000 C 
ENDBRANCH  25  26
ENDBRANCH  20  25
ENDBRANCH   7  20
BRANCH   8  29
ATOM     29  C   UNK A   0      -1.694  10.042  19.251  0.00  0.00    +0.000 C 
BRANCH  29  30
ATOM     30  C   UNK A   0      -2.402  10.323  17.933  0.00  0.00    +0.000 A 
ATOM     31  C   UNK A   0      -2.006   9.801  16.696  0.00  0.00    +0.000 A 
ATOM     32  C   UNK A   0      -2.707  10.124  15.526  0.00  0.00    +0.000 A 
ATOM     33  C   UNK A   0      -3.831  10.945  15.575  0.00  0.00    +0.000 A 
ATOM     34  C   UNK A   0      -4.267  11.433  16.800  0.00  0.00    +0.000 A 
ATOM     35  C   UNK A   0      -3.562  11.122  17.967  0.00  0.00    +0.000 A 
ENDBRANCH  29  30
ENDBRANCH   8  29
TORSDOF 9
ENDMDL
MODEL 8
REMARK VINA RESULT:      -7.2      3.450      9.879
REMARK  Name = 
REMARK  12 active torsions:
REMARK  status: ('A' for Active; 'I' for Inactive)
REMARK    1  A    between atoms: C_1  and  C_2
REMARK    2  A    between atoms: C_6  and  C_7
REMARK    3  A    between atoms: C_7  and  N_8
REMARK    4  A    between atoms: N_14  and  CA_15
REMARK    5  A    between atoms: CA_15  and  CB_16
REMARK    6  A    between atoms: CA_15  and  C_20
REMARK    7  A    between atoms: CB_16  and  CG_17
REMARK    8  A    between atoms: CG_17  and  CD1_18
REMARK    9  A    between atoms: CG_17  and  CD2_19
REMARK   10  A    between atoms: C_20  and  OXT_22
REMARK   11  A    between atoms: C_23  and  C_24
REMARK   12  A    between atoms: C_24  and  C_25
REMARK                            x       y       z     vdW  Elec       q    Type
REMARK                         _______ _______ _______ _____ _____    ______ ____
ROOT
ATOM      1  N   UNK A   0       1.528   8.826  19.150  0.00  0.00    +0.000 N 
ATOM      2  C   UNK A   0       1.576   8.342  20.530  0.00  0.00    +0.000 C 
ATOM      3  C   UNK A   0       1.460   9.419  21.602  0.00  0.00    +0.000 C 
ATOM      4  N   UNK A   0       0.401  10.381  21.299  0.00  0.00    +0.000 N 
ATOM      5  C   UNK A   0      -0.393  10.805  22.347  0.00  0.00    +0.000 C 
ATOM      6  O   UNK A   0      -0.268  10.375  23.492  0.00  0.00    +0.000 OA
ATOM      7  N   LEU A   1      -1.305  11.773  22.067  0.00  0.00    +0.000 N 
ATOM      8  C   UNK A   0       0.438  10.949  19.925  0.00  0.00    +0.000 C 
ATOM      9  C   UNK A   0       0.542   9.795  18.907  0.00  0.00    +0.000 C 
ATOM     10  O   UNK A   0      -0.129   9.826  17.873  0.00  0.00    +0.000 OA
ATOM     11  H   LEU A   1      -1.690  11.845  21.134  0.00  0.00    +0.000 HD
ENDROOT
BRANCH   1  12
ATOM     12  C   UNK A   0       1.762   7.805  18.123  0.00  0.00    +0.000 C 
BRANCH  12  18
ATOM     13  C   UNK A   0       1.793   5.073  20.082  0.00  0.00    +0.000 C 
ATOM     14  C   UNK A   0       2.868   5.708  19.288  0.00  0.00    +0.000 A 
ATOM     15  N   UNK A   0       4.113   5.118  19.244  0.00  0.00    +0.000 NA
ATOM     16  C   UNK A   0       4.833   5.867  18.444  0.00  0.00    +0.000 A 
ATOM     17  N   UNK A   0       4.104   6.907  17.960  0.00  0.00    +0.000 N 
ATOM     18  C   UNK A   0       2.839   6.846  18.500  0.00  0.00    +0.000 A 
ATOM     19  H   UNK A   0       4.428   7.624  17.322  0.00  0.00    +0.000 HD
ENDBRANCH  12  18
ENDBRANCH   1  12
BRANCH   7  20
ATOM     20  CA  LEU A   1      -2.114  12.417  23.104  0.00  0.00    +0.000 C 
BRANCH  20  21
ATOM     21  C   LEU A   1      -3.563  12.494  22.607  0.00  0.00    +0.000 C 
ATOM     22  O   LEU A   1      -4.534  12.422  23.351  0.00  0.00    +0.000 OA
BRANCH  21  23
ATOM     23  OXT LEU A   1      -3.696  12.675  21.274  0.00  0.00    +0.000 OA
ATOM     24  HXT LEU A   1      -3.972  13.571  21.003  0.00  0.00    +0.000 HD
ENDBRANCH  21  23
ENDBRANCH  20  21
BRANCH  20  25
ATOM     25  CB  LEU A   1      -1.553  13.797  23.501  0.00  0.00    +0.000 C 
BRANCH  25  26
ATOM     26  CG  LEU A   1      -1.044  14.686  22.341  0.00  0.00    +0.000 C 
ATOM     27  CD1 LEU A   1      -2.055  15.796  22.032  0.00  0.00    +0.000 C 
ATOM     28  CD2 LEU A   1       0.302  15.344  22.627  0.00  0.00    +0.000 C 
ENDBRANCH  25  26
ENDBRANCH  20  25
ENDBRANCH   7  20
BRANCH   8  29
ATOM     29  C   UNK A   0       1.594  11.966  19.736  0.00  0.00    +0.000 C 
BRANCH  29  30
ATOM     30  C   UNK A   0       1.293  13.423  19.417  0.00  0.00    +0.000 A 
ATOM     31  C   UNK A   0       2.231  14.460  19.494  0.00  0.00    +0.000 A 
ATOM     32  C   UNK A   0       1.865  15.780  19.197  0.00  0.00    +0.000 A 
ATOM     33  C   UNK A   0       0.568  16.082  18.788  0.00  0.00    +0.000 A 
ATOM     34  C   UNK A   0      -0.364  15.060  18.659  0.00  0.00    +0.000 A 
ATOM     35  C   UNK A   0      -0.004  13.744  18.967  0.00  0.00    +0.000 A 
ENDBRANCH  29  30
ENDBRANCH   8  29
TORSDOF 9
ENDMDL
MODEL 9
REMARK VINA RESULT:      -7.2      3.374      6.435
REMARK  Name = 
REMARK  12 active torsions:
REMARK  status: ('A' for Active; 'I' for Inactive)
REMARK    1  A    between atoms: C_1  and  C_2
REMARK    2  A    between atoms: C_6  and  C_7
REMARK    3  A    between atoms: C_7  and  N_8
REMARK    4  A    between atoms: N_14  and  CA_15
REMARK    5  A    between atoms: CA_15  and  CB_16
REMARK    6  A    between atoms: CA_15  and  C_20
REMARK    7  A    between atoms: CB_16  and  CG_17
REMARK    8  A    between atoms: CG_17  and  CD1_18
REMARK    9  A    between atoms: CG_17  and  CD2_19
REMARK   10  A    between atoms: C_20  and  OXT_22
REMARK   11  A    between atoms: C_23  and  C_24
REMARK   12  A    between atoms: C_24  and  C_25
REMARK                            x       y       z     vdW  Elec       q    Type
REMARK                         _______ _______ _______ _____ _____    ______ ____
ROOT
ATOM      1  N   UNK A   0      -0.301  12.667  20.211  0.00  0.00    +0.000 N 
ATOM      2  C   UNK A   0       0.119  12.269  21.555  0.00  0.00    +0.000 C 
ATOM      3  C   UNK A   0      -0.007  10.782  21.863  0.00  0.00    +0.000 C 
ATOM      4  N   UNK A   0       0.489   9.952  20.766  0.00  0.00    +0.000 N 
ATOM      5  C   UNK A   0       1.228   8.833  21.099  0.00  0.00    +0.000 C 
ATOM      6  O   UNK A   0       1.512   8.545  22.259  0.00  0.00    +0.000 OA
ATOM      7  N   LEU A   1       1.596   8.019  20.074  0.00  0.00    +0.000 N 
ATOM      8  C   UNK A   0      -0.039  10.301  19.420  0.00  0.00    +0.000 C 
ATOM      9  C   UNK A   0       0.141  11.815  19.188  0.00  0.00    +0.000 C 
ATOM     10  O   UNK A   0       0.527  12.225  18.091  0.00  0.00    +0.000 OA
ATOM     11  H   LEU A   1       1.731   8.407  19.149  0.00  0.00    +0.000 HD
ENDROOT
BRANCH   1  12
ATOM     12  C   UNK A   0      -0.293  14.113  19.959  0.00  0.00    +0.000 C 
BRANCH  12  18
ATOM     13  C   UNK A   0      -0.375  16.711  22.090  0.00  0.00    +0.000 C 
ATOM     14  C   UNK A   0      -1.468  15.902  21.506  0.00  0.00    +0.000 A 
ATOM     15  N   UNK A   0      -2.777  16.232  21.787  0.00  0.00    +0.000 NA
ATOM     16  C   UNK A   0      -3.510  15.384  21.108  0.00  0.00    +0.000 A 
ATOM     17  N   UNK A   0      -2.734  14.528  20.393  0.00  0.00    +0.000 N 
ATOM     18  C   UNK A   0      -1.412  14.822  20.642  0.00  0.00    +0.000 A 
ATOM     19  H   UNK A   0      -3.057  13.784  19.787  0.00  0.00    +0.000 HD
ENDBRANCH  12  18
ENDBRANCH   1  12
BRANCH   7  20
ATOM     20  CA  LEU A   1       2.257   6.731  20.289  0.00  0.00    +0.000 C 
BRANCH  20  21
ATOM     21  C   LEU A   1       3.114   6.415  19.056  0.00  0.00    +0.000 C 
ATOM     22  O   LEU A   1       2.767   6.677  17.911  0.00  0.00    +0.000 OA
BRANCH  21  23
ATOM     23  OXT LEU A   1       4.307   5.840  19.328  0.00  0.00    +0.000 OA
ATOM     24  HXT LEU A   1       4.876   6.339  19.945  0.00  0.00    +0.000 HD
ENDBRANCH  21  23
ENDBRANCH  20  21
BRANCH  20  25
ATOM     25  CB  LEU A   1       1.248   5.610  20.607  0.00  0.00    +0.000 C 
BRANCH  25  26
ATOM     26  CG  LEU A   1       1.727   4.163  20.337  0.00  0.00    +0.000 C 
ATOM     27  CD1 LEU A   1       2.164   3.490  21.643  0.00  0.00    +0.000 C 
ATOM     28  CD2 LEU A   1       0.664   3.283  19.688  0.00  0.00    +0.000 C 
ENDBRANCH  25  26
ENDBRANCH  20  25
ENDBRANCH   7  20
BRANCH   8  29
ATOM     29  C   UNK A   0      -1.521   9.879  19.239  0.00  0.00    +0.000 C 
BRANCH  29  30
ATOM     30  C   UNK A   0      -2.276  10.242  17.968  0.00  0.00    +0.000 A 
ATOM     31  C   UNK A   0      -1.954   9.761  16.693  0.00  0.00    +0.000 A 
ATOM     32  C   UNK A   0      -2.694  10.159  15.571  0.00  0.00    +0.000 A 
ATOM     33  C   UNK A   0      -3.784  11.016  15.706  0.00  0.00    +0.000 A 
ATOM     34  C   UNK A   0      -4.147  11.465  16.969  0.00  0.00    +0.000 A 
ATOM     35  C   UNK A   0      -3.403  11.079  18.088  0.00  0.00    +0.000 A 
ENDBRANCH  29  30
ENDBRANCH   8  29
TORSDOF 9
ENDMDL
