MODEL 1
REMARK VINA RESULT:      -6.6      0.000      0.000
REMARK  Name = 
REMARK  6 active torsions:
REMARK  status: ('A' for Active; 'I' for Inactive)
REMARK    1  A    between atoms: C_2  and  C_4
REMARK    2  A    between atoms: C_4  and  S_5
REMARK    3  A    between atoms: S_5  and  C_6
REMARK    4  A    between atoms: C_9  and  S_10
REMARK    5  A    between atoms: S_10  and  C_11
REMARK    6  A    between atoms: C_11  and  C_12
REMARK                            x       y       z     vdW  Elec       q    Type
REMARK                         _______ _______ _______ _____ _____    ______ ____
ROOT
ATOM      1  C   UNL     1       6.883   4.761  14.012  0.00  0.00    +0.000 A 
ATOM      2  N   UNL     1       7.766   5.460  14.694  0.00  0.00    +0.000 NA
ATOM      3  N   UNL     1       7.363   5.667  16.004  0.00  0.00    +0.000 NA
ATOM      4  C   UNL     1       6.201   5.104  16.257  0.00  0.00    +0.000 A 
ATOM      5  S   UNL     1       5.521   4.264  14.925  0.00  0.00    +0.000 S 
ENDROOT
BRANCH   1   6
ATOM      6  S   UNL     1       7.129   4.381  12.321  0.00  0.00    +0.000 S 
BRANCH   6   7
ATOM      7  C   UNL     1       5.981   2.986  12.142  0.00  0.00    +0.000 C 
BRANCH   7   9
ATOM      8  N   UNL     1       5.966   0.656  11.385  0.00  0.00    +0.000 N 
ATOM      9  C   UNL     1       6.650   1.840  11.412  0.00  0.00    +0.000 C 
ATOM     10  O   UNL     1       7.768   1.922  10.915  0.00  0.00    +0.000 OA
ATOM     11  H   UNL     1       6.372  -0.094  10.840  0.00  0.00    +0.000 HD
ATOM     12  H   UNL     1       4.974   0.612  11.586  0.00  0.00    +0.000 HD
ENDBRANCH   7   9
ENDBRANCH   6   7
ENDBRANCH   1   6
BRANCH   4  13
ATOM     13  S   UNL     1       5.409   5.195  17.812  0.00  0.00    +0.000 S 
BRANCH  13  14
ATOM     14  C   UNL     1       3.676   4.935  17.331  0.00  0.00    +0.000 C 
BRANCH  14  15
ATOM     15  C   UNL     1       2.827   4.533  18.517  0.00  0.00    +0.000 A 
ATOM     16  C   UNL     1       1.774   3.620  18.356  0.00  0.00    +0.000 A 
ATOM     17  C   UNL     1       0.974   3.258  19.443  0.00  0.00    +0.000 A 
ATOM     18  C   UNL     1       1.215   3.807  20.700  0.00  0.00    +0.000 A 
ATOM     19  C   UNL     1       2.255   4.719  20.873  0.00  0.00    +0.000 A 
ATOM     20  C   UNL     1       3.053   5.084  19.787  0.00  0.00    +0.000 A 
ENDBRANCH  14  15
ENDBRANCH  13  14
ENDBRANCH   4  13
TORSDOF 6
ENDMDL
MODEL 2
REMARK VINA RESULT:      -6.6      1.321      1.593
REMARK  Name = 
REMARK  6 active torsions:
REMARK  status: ('A' for Active; 'I' for Inactive)
REMARK    1  A    between atoms: C_2  and  C_4
REMARK    2  A    between atoms: C_4  and  S_5
REMARK    3  A    between atoms: S_5  and  C_6
REMARK    4  A    between atoms: C_9  and  S_10
REMARK    5  A    between atoms: S_10  and  C_11
REMARK    6  A    between atoms: C_11  and  C_12
REMARK                            x       y       z     vdW  Elec       q    Type
REMARK                         _______ _______ _______ _____ _____    ______ ____
ROOT
ATOM      1  C   UNL     1       6.940   4.678  13.778  0.00  0.00    +0.000 A 
ATOM      2  N   UNL     1       7.806   5.503  14.328  0.00  0.00    +0.000 NA
ATOM      3  N   UNL     1       7.526   5.729  15.667  0.00  0.00    +0.000 NA
ATOM      4  C   UNL     1       6.471   5.056  16.071  0.00  0.00    +0.000 A 
ATOM      5  S   UNL     1       5.751   4.081  14.857  0.00  0.00    +0.000 S 
ENDROOT
BRANCH   1   6
ATOM      6  S   UNL     1       7.043   4.245  12.085  0.00  0.00    +0.000 S 
BRANCH   6   7
ATOM      7  C   UNL     1       5.750   2.973  12.007  0.00  0.00    +0.000 C 
BRANCH   7   9
ATOM      8  N   UNL     1       7.647   1.670  11.167  0.00  0.00    +0.000 N 
ATOM      9  C   UNL     1       6.309   1.681  11.448  0.00  0.00    +0.000 C 
ATOM     10  O   UNL     1       5.614   0.703  11.194  0.00  0.00    +0.000 OA
ATOM     11  H   UNL     1       8.043   0.791  10.859  0.00  0.00    +0.000 HD
ATOM     12  H   UNL     1       8.276   2.362  11.557  0.00  0.00    +0.000 HD
ENDBRANCH   7   9
ENDBRANCH   6   7
ENDBRANCH   1   6
BRANCH   4  13
ATOM     13  S   UNL     1       5.847   5.135  17.701  0.00  0.00    +0.000 S 
BRANCH  13  14
ATOM     14  C   UNL     1       4.094   5.494  17.382  0.00  0.00    +0.000 C 
BRANCH  14  15
ATOM     15  C   UNL     1       3.212   4.327  17.766  0.00  0.00    +0.000 A 
ATOM     16  C   UNL     1       1.866   4.538  18.104  0.00  0.00    +0.000 A 
ATOM     17  C   UNL     1       1.050   3.467  18.477  0.00  0.00    +0.000 A 
ATOM     18  C   UNL     1       1.570   2.176  18.520  0.00  0.00    +0.000 A 
ATOM     19  C   UNL     1       2.906   1.952  18.191  0.00  0.00    +0.000 A 
ATOM     20  C   UNL     1       3.724   3.021  17.821  0.00  0.00    +0.000 A 
ENDBRANCH  14  15
ENDBRANCH  13  14
ENDBRANCH   4  13
TORSDOF 6
ENDMDL
MODEL 3
REMARK VINA RESULT:      -6.5      1.624      1.999
REMARK  Name = 
REMARK  6 active torsions:
REMARK  status: ('A' for Active; 'I' for Inactive)
REMARK    1  A    between atoms: C_2  and  C_4
REMARK    2  A    between atoms: C_4  and  S_5
REMARK    3  A    between atoms: S_5  and  C_6
REMARK    4  A    between atoms: C_9  and  S_10
REMARK    5  A    between atoms: S_10  and  C_11
REMARK    6  A    between atoms: C_11  and  C_12
REMARK                            x       y       z     vdW  Elec       q    Type
REMARK                         _______ _______ _______ _____ _____    ______ ____
ROOT
ATOM      1  C   UNL     1       6.759   4.530  15.325  0.00  0.00    +0.000 A 
ATOM      2  N   UNL     1       7.813   4.496  16.111  0.00  0.00    +0.000 NA
ATOM      3  N   UNL     1       7.472   4.665  17.444  0.00  0.00    +0.000 NA
ATOM      4  C   UNL     1       6.174   4.806  17.606  0.00  0.00    +0.000 A 
ATOM      5  S   UNL     1       5.270   4.723  16.151  0.00  0.00    +0.000 S 
ENDROOT
BRANCH   1   6
ATOM      6  S   UNL     1       6.910   4.372  13.588  0.00  0.00    +0.000 S 
BRANCH   6   7
ATOM      7  C   UNL     1       5.220   3.857  13.171  0.00  0.00    +0.000 C 
BRANCH   7   9
ATOM      8  N   UNL     1       6.363   2.198  11.777  0.00  0.00    +0.000 N 
ATOM      9  C   UNL     1       5.227   2.934  11.970  0.00  0.00    +0.000 C 
ATOM     10  O   UNL     1       4.304   2.875  11.164  0.00  0.00    +0.000 OA
ATOM     11  H   UNL     1       6.350   1.528  11.018  0.00  0.00    +0.000 HD
ATOM     12  H   UNL     1       7.037   2.059  12.520  0.00  0.00    +0.000 HD
ENDBRANCH   7   9
ENDBRANCH   6   7
ENDBRANCH   1   6
BRANCH   4  13
ATOM     13  S   UNL     1       5.422   5.054  19.164  0.00  0.00    +0.000 S 
BRANCH  13  14
ATOM     14  C   UNL     1       4.862   3.368  19.548  0.00  0.00    +0.000 C 
BRANCH  14  15
ATOM     15  C   UNL     1       3.357   3.305  19.686  0.00  0.00    +0.000 A 
ATOM     16  C   UNL     1       2.775   2.908  20.900  0.00  0.00    +0.000 A 
ATOM     17  C   UNL     1       1.385   2.829  21.030  0.00  0.00    +0.000 A 
ATOM     18  C   UNL     1       0.565   3.142  19.950  0.00  0.00    +0.000 A 
ATOM     19  C   UNL     1       1.129   3.533  18.737  0.00  0.00    +0.000 A 
ATOM     20  C   UNL     1       2.518   3.609  18.604  0.00  0.00    +0.000 A 
ENDBRANCH  14  15
ENDBRANCH  13  14
ENDBRANCH   4  13
TORSDOF 6
ENDMDL
MODEL 4
REMARK VINA RESULT:      -6.5      1.046      1.248
REMARK  Name = 
REMARK  6 active torsions:
REMARK  status: ('A' for Active; 'I' for Inactive)
REMARK    1  A    between atoms: C_2  and  C_4
REMARK    2  A    between atoms: C_4  and  S_5
REMARK    3  A    between atoms: S_5  and  C_6
REMARK    4  A    between atoms: C_9  and  S_10
REMARK    5  A    between atoms: S_10  and  C_11
REMARK    6  A    between atoms: C_11  and  C_12
REMARK                            x       y       z     vdW  Elec       q    Type
REMARK                         _______ _______ _______ _____ _____    ______ ____
ROOT
ATOM      1  C   UNL     1       6.933   4.668  14.031  0.00  0.00    +0.000 A 
ATOM      2  N   UNL     1       7.724   5.539  14.620  0.00  0.00    +0.000 NA
ATOM      3  N   UNL     1       7.412   5.699  15.961  0.00  0.00    +0.000 NA
ATOM      4  C   UNL     1       6.407   4.933  16.327  0.00  0.00    +0.000 A 
ATOM      5  S   UNL     1       5.780   3.946  15.073  0.00  0.00    +0.000 S 
ENDROOT
BRANCH   1   6
ATOM      6  S   UNL     1       7.090   4.299  12.327  0.00  0.00    +0.000 S 
BRANCH   6   7
ATOM      7  C   UNL     1       5.750   3.088  12.143  0.00  0.00    +0.000 C 
BRANCH   7   9
ATOM      8  N   UNL     1       7.602   1.784  11.209  0.00  0.00    +0.000 N 
ATOM      9  C   UNL     1       6.264   1.825  11.484  0.00  0.00    +0.000 C 
ATOM     10  O   UNL     1       5.533   0.898  11.149  0.00  0.00    +0.000 OA
ATOM     11  H   UNL     1       7.966   0.918  10.833  0.00  0.00    +0.000 HD
ATOM     12  H   UNL     1       8.255   2.417  11.656  0.00  0.00    +0.000 HD
ENDBRANCH   7   9
ENDBRANCH   6   7
ENDBRANCH   1   6
BRANCH   4  13
ATOM     13  S   UNL     1       5.758   4.912  17.950  0.00  0.00    +0.000 S 
BRANCH  13  14
ATOM     14  C   UNL     1       4.055   5.469  17.648  0.00  0.00    +0.000 C 
BRANCH  14  15
ATOM     15  C   UNL     1       3.047   4.451  18.129  0.00  0.00    +0.000 A 
ATOM     16  C   UNL     1       3.023   3.162  17.574  0.00  0.00    +0.000 A 
ATOM     17  C   UNL     1       2.082   2.221  18.001  0.00  0.00    +0.000 A 
ATOM     18  C   UNL     1       1.154   2.558  18.982  0.00  0.00    +0.000 A 
ATOM     19  C   UNL     1       1.162   3.836  19.539  0.00  0.00    +0.000 A 
ATOM     20  C   UNL     1       2.100   4.778  19.112  0.00  0.00    +0.000 A 
ENDBRANCH  14  15
ENDBRANCH  13  14
ENDBRANCH   4  13
TORSDOF 6
ENDMDL
MODEL 5
REMARK VINA RESULT:      -6.5      1.313      1.732
REMARK  Name = 
REMARK  6 active torsions:
REMARK  status: ('A' for Active; 'I' for Inactive)
REMARK    1  A    between atoms: C_2  and  C_4
REMARK    2  A    between atoms: C_4  and  S_5
REMARK    3  A    between atoms: S_5  and  C_6
REMARK    4  A    between atoms: C_9  and  S_10
REMARK    5  A    between atoms: S_10  and  C_11
REMARK    6  A    between atoms: C_11  and  C_12
REMARK                            x       y       z     vdW  Elec       q    Type
REMARK                         _______ _______ _______ _____ _____    ______ ____
ROOT
ATOM      1  C   UNL     1       6.536   4.708  14.825  0.00  0.00    +0.000 A 
ATOM      2  N   UNL     1       7.326   5.649  15.296  0.00  0.00    +0.000 NA
ATOM      3  N   UNL     1       6.945   6.058  16.564  0.00  0.00    +0.000 NA
ATOM      4  C   UNL     1       5.893   5.400  16.999  0.00  0.00    +0.000 A 
ATOM      5  S   UNL     1       5.300   4.220  15.906  0.00  0.00    +0.000 S 
ENDROOT
BRANCH   1   6
ATOM      6  S   UNL     1       6.774   4.032  13.228  0.00  0.00    +0.000 S 
BRANCH   6   7
ATOM      7  C   UNL     1       5.047   3.892  12.685  0.00  0.00    +0.000 C 
BRANCH   7   9
ATOM      8  N   UNL     1       5.902   1.863  11.610  0.00  0.00    +0.000 N 
ATOM      9  C   UNL     1       4.904   2.796  11.649  0.00  0.00    +0.000 C 
ATOM     10  O   UNL     1       3.985   2.757  10.837  0.00  0.00    +0.000 OA
ATOM     11  H   UNL     1       5.780   1.089  10.969  0.00  0.00    +0.000 HD
ATOM     12  H   UNL     1       6.542   1.739  12.385  0.00  0.00    +0.000 HD
ENDBRANCH   7   9
ENDBRANCH   6   7
ENDBRANCH   1   6
BRANCH   4  13
ATOM     13  S   UNL     1       5.154   5.692  18.556  0.00  0.00    +0.000 S 
BRANCH  13  14
ATOM     14  C   UNL     1       3.397   5.752  18.097  0.00  0.00    +0.000 C 
BRANCH  14  15
ATOM     15  C   UNL     1       2.571   4.814  18.948  0.00  0.00    +0.000 A 
ATOM     16  C   UNL     1       2.633   4.891  20.349  0.00  0.00    +0.000 A 
ATOM     17  C   UNL     1       1.886   4.015  21.142  0.00  0.00    +0.000 A 
ATOM     18  C   UNL     1       1.074   3.054  20.547  0.00  0.00    +0.000 A 
ATOM     19  C   UNL     1       1.006   2.964  19.157  0.00  0.00    +0.000 A 
ATOM     20  C   UNL     1       1.754   3.836  18.362  0.00  0.00    +0.000 A 
ENDBRANCH  14  15
ENDBRANCH  13  14
ENDBRANCH   4  13
TORSDOF 6
ENDMDL
MODEL 6
REMARK VINA RESULT:      -6.4      1.512      1.535
REMARK  Name = 
REMARK  6 active torsions:
REMARK  status: ('A' for Active; 'I' for Inactive)
REMARK    1  A    between atoms: C_2  and  C_4
REMARK    2  A    between atoms: C_4  and  S_5
REMARK    3  A    between atoms: S_5  and  C_6
REMARK    4  A    between atoms: C_9  and  S_10
REMARK    5  A    between atoms: S_10  and  C_11
REMARK    6  A    between atoms: C_11  and  C_12
REMARK                            x       y       z     vdW  Elec       q    Type
REMARK                         _______ _______ _______ _____ _____    ______ ____
ROOT
ATOM      1  C   UNL     1       6.713   4.746  14.942  0.00  0.00    +0.000 A 
ATOM      2  N   UNL     1       7.596   5.577  15.452  0.00  0.00    +0.000 NA
ATOM      3  N   UNL     1       7.378   5.802  16.802  0.00  0.00    +0.000 NA
ATOM      4  C   UNL     1       6.348   5.121  17.254  0.00  0.00    +0.000 A 
ATOM      5  S   UNL     1       5.580   4.140  16.076  0.00  0.00    +0.000 S 
ENDROOT
BRANCH   1   6
ATOM      6  S   UNL     1       6.740   4.312  13.247  0.00  0.00    +0.000 S 
BRANCH   6   7
ATOM      7  C   UNL     1       5.074   3.612  13.075  0.00  0.00    +0.000 C 
BRANCH   7   9
ATOM      8  N   UNL     1       3.946   3.297  10.923  0.00  0.00    +0.000 N 
ATOM      9  C   UNL     1       4.942   2.874  11.759  0.00  0.00    +0.000 C 
ATOM     10  O   UNL     1       5.635   1.907  11.459  0.00  0.00    +0.000 OA
ATOM     11  H   UNL     1       3.895   2.857  10.013  0.00  0.00    +0.000 HD
ATOM     12  H   UNL     1       3.510   4.204  11.035  0.00  0.00    +0.000 HD
ENDBRANCH   7   9
ENDBRANCH   6   7
ENDBRANCH   1   6
BRANCH   4  13
ATOM     13  S   UNL     1       5.800   5.197  18.912  0.00  0.00    +0.000 S 
BRANCH  13  14
ATOM     14  C   UNL     1       4.965   3.590  19.073  0.00  0.00    +0.000 C 
BRANCH  14  15
ATOM     15  C   UNL     1       3.541   3.753  19.555  0.00  0.00    +0.000 A 
ATOM     16  C   UNL     1       2.651   2.668  19.510  0.00  0.00    +0.000 A 
ATOM     17  C   UNL     1       1.329   2.815  19.937  0.00  0.00    +0.000 A 
ATOM     18  C   UNL     1       0.881   4.046  20.409  0.00  0.00    +0.000 A 
ATOM     19  C   UNL     1       1.752   5.134  20.454  0.00  0.00    +0.000 A 
ATOM     20  C   UNL     1       3.074   4.989  20.026  0.00  0.00    +0.000 A 
ENDBRANCH  14  15
ENDBRANCH  13  14
ENDBRANCH   4  13
TORSDOF 6
ENDMDL
MODEL 7
REMARK VINA RESULT:      -6.4      1.161      1.387
REMARK  Name = 
REMARK  6 active torsions:
REMARK  status: ('A' for Active; 'I' for Inactive)
REMARK    1  A    between atoms: C_2  and  C_4
REMARK    2  A    between atoms: C_4  and  S_5
REMARK    3  A    between atoms: S_5  and  C_6
REMARK    4  A    between atoms: C_9  and  S_10
REMARK    5  A    between atoms: S_10  and  C_11
REMARK    6  A    between atoms: C_11  and  C_12
REMARK                            x       y       z     vdW  Elec       q    Type
REMARK                         _______ _______ _______ _____ _____    ______ ____
ROOT
ATOM      1  C   UNL     1       6.874   4.877  13.892  0.00  0.00    +0.000 A 
ATOM      2  N   UNL     1       7.828   5.497  14.553  0.00  0.00    +0.000 NA
ATOM      3  N   UNL     1       7.432   5.839  15.836  0.00  0.00    +0.000 NA
ATOM      4  C   UNL     1       6.201   5.450  16.092  0.00  0.00    +0.000 A 
ATOM      5  S   UNL     1       5.441   4.622  14.797  0.00  0.00    +0.000 S 
ENDROOT
BRANCH   1   6
ATOM      6  S   UNL     1       7.098   4.361  12.235  0.00  0.00    +0.000 S 
BRANCH   6   7
ATOM      7  C   UNL     1       6.031   2.892  12.216  0.00  0.00    +0.000 C 
BRANCH   7   9
ATOM      8  N   UNL     1       5.991   0.597  11.361  0.00  0.00    +0.000 N 
ATOM      9  C   UNL     1       6.672   1.781  11.411  0.00  0.00    +0.000 C 
ATOM     10  O   UNL     1       7.770   1.889  10.873  0.00  0.00    +0.000 OA
ATOM     11  H   UNL     1       6.376  -0.128  10.768  0.00  0.00    +0.000 HD
ATOM     12  H   UNL     1       5.008   0.540  11.600  0.00  0.00    +0.000 HD
ENDBRANCH   7   9
ENDBRANCH   6   7
ENDBRANCH   1   6
BRANCH   4  13
ATOM     13  S   UNL     1       5.399   5.744  17.617  0.00  0.00    +0.000 S 
BRANCH  13  14
ATOM     14  C   UNL     1       5.241   4.049  18.254  0.00  0.00    +0.000 C 
BRANCH  14  15
ATOM     15  C   UNL     1       3.791   3.634  18.365  0.00  0.00    +0.000 A 
ATOM     16  C   UNL     1       3.442   2.461  19.054  0.00  0.00    +0.000 A 
ATOM     17  C   UNL     1       2.105   2.062  19.145  0.00  0.00    +0.000 A 
ATOM     18  C   UNL     1       1.106   2.826  18.548  0.00  0.00    +0.000 A 
ATOM     19  C   UNL     1       1.439   3.990  17.856  0.00  0.00    +0.000 A 
ATOM     20  C   UNL     1       2.774   4.389  17.762  0.00  0.00    +0.000 A 
ENDBRANCH  14  15
ENDBRANCH  13  14
ENDBRANCH   4  13
TORSDOF 6
ENDMDL
MODEL 8
REMARK VINA RESULT:      -6.4      1.548      1.709
REMARK  Name = 
REMARK  6 active torsions:
REMARK  status: ('A' for Active; 'I' for Inactive)
REMARK    1  A    between atoms: C_2  and  C_4
REMARK    2  A    between atoms: C_4  and  S_5
REMARK    3  A    between atoms: S_5  and  C_6
REMARK    4  A    between atoms: C_9  and  S_10
REMARK    5  A    between atoms: S_10  and  C_11
REMARK    6  A    between atoms: C_11  and  C_12
REMARK                            x       y       z     vdW  Elec       q    Type
REMARK                         _______ _______ _______ _____ _____    ______ ____
ROOT
ATOM      1  C   UNL     1       6.779   4.659  14.831  0.00  0.00    +0.000 A 
ATOM      2  N   UNL     1       7.582   5.608  15.260  0.00  0.00    +0.000 NA
ATOM      3  N   UNL     1       7.288   5.988  16.560  0.00  0.00    +0.000 NA
ATOM      4  C   UNL     1       6.284   5.300  17.059  0.00  0.00    +0.000 A 
ATOM      5  S   UNL     1       5.636   4.125  15.991  0.00  0.00    +0.000 S 
ENDROOT
BRANCH   1   6
ATOM      6  S   UNL     1       6.912   4.015  13.208  0.00  0.00    +0.000 S 
BRANCH   6   7
ATOM      7  C   UNL     1       5.154   3.908  12.768  0.00  0.00    +0.000 C 
BRANCH   7   9
ATOM      8  N   UNL     1       5.888   1.873  11.617  0.00  0.00    +0.000 N 
ATOM      9  C   UNL     1       4.937   2.851  11.705  0.00  0.00    +0.000 C 
ATOM     10  O   UNL     1       4.001   2.879  10.911  0.00  0.00    +0.000 OA
ATOM     11  H   UNL     1       5.716   1.125  10.958  0.00  0.00    +0.000 HD
ATOM     12  H   UNL     1       6.538   1.697  12.374  0.00  0.00    +0.000 HD
ENDBRANCH   7   9
ENDBRANCH   6   7
ENDBRANCH   1   6
BRANCH   4  13
ATOM     13  S   UNL     1       5.657   5.549  18.671  0.00  0.00    +0.000 S 
BRANCH  13  14
ATOM     14  C   UNL     1       5.178   3.854  19.119  0.00  0.00    +0.000 C 
BRANCH  14  15
ATOM     15  C   UNL     1       3.743   3.792  19.592  0.00  0.00    +0.000 A 
ATOM     16  C   UNL     1       2.823   4.774  19.191  0.00  0.00    +0.000 A 
ATOM     17  C   UNL     1       1.500   4.733  19.639  0.00  0.00    +0.000 A 
ATOM     18  C   UNL     1       1.083   3.716  20.493  0.00  0.00    +0.000 A 
ATOM     19  C   UNL     1       1.987   2.737  20.903  0.00  0.00    +0.000 A 
ATOM     20  C   UNL     1       3.310   2.777  20.459  0.00  0.00    +0.000 A 
ENDBRANCH  14  15
ENDBRANCH  13  14
ENDBRANCH   4  13
TORSDOF 6
ENDMDL
MODEL 9
REMARK VINA RESULT:      -6.4      4.449      7.409
REMARK  Name = 
REMARK  6 active torsions:
REMARK  status: ('A' for Active; 'I' for Inactive)
REMARK    1  A    between atoms: C_2  and  C_4
REMARK    2  A    between atoms: C_4  and  S_5
REMARK    3  A    between atoms: S_5  and  C_6
REMARK    4  A    between atoms: C_9  and  S_10
REMARK    5  A    between atoms: S_10  and  C_11
REMARK    6  A    between atoms: C_11  and  C_12
REMARK                            x       y       z     vdW  Elec       q    Type
REMARK                         _______ _______ _______ _____ _____    ______ ____
ROOT
ATOM      1  C   UNL     1       3.060   4.696  18.799  0.00  0.00    +0.000 A 
ATOM      2  N   UNL     1       3.271   3.429  18.513  0.00  0.00    +0.000 NA
ATOM      3  N   UNL     1       3.967   3.274  17.325  0.00  0.00    +0.000 NA
ATOM      4  C   UNL     1       4.261   4.431  16.772  0.00  0.00    +0.000 A 
ATOM      5  S   UNL     1       3.732   5.794  17.668  0.00  0.00    +0.000 S 
ENDROOT
BRANCH   1   6
ATOM      6  S   UNL     1       2.175   5.174  20.231  0.00  0.00    +0.000 S 
BRANCH   6   7
ATOM      7  C   UNL     1       1.163   3.689  20.486  0.00  0.00    +0.000 C 
BRANCH   7   9
ATOM      8  N   UNL     1       3.046   2.415  21.397  0.00  0.00    +0.000 N 
ATOM      9  C   UNL     1       1.755   2.824  21.579  0.00  0.00    +0.000 C 
ATOM     10  O   UNL     1       1.115   2.445  22.555  0.00  0.00    +0.000 OA
ATOM     11  H   UNL     1       3.473   1.895  22.154  0.00  0.00    +0.000 HD
ATOM     12  H   UNL     1       3.659   2.874  20.734  0.00  0.00    +0.000 HD
ENDBRANCH   7   9
ENDBRANCH   6   7
ENDBRANCH   1   6
BRANCH   4  13
ATOM     13  S   UNL     1       5.121   4.580  15.258  0.00  0.00    +0.000 S 
BRANCH  13  14
ATOM     14  C   UNL     1       6.825   4.251  15.796  0.00  0.00    +0.000 C 
BRANCH  14  15
ATOM     15  C   UNL     1       7.270   5.234  16.855  0.00  0.00    +0.000 A 
ATOM     16  C   UNL     1       7.647   4.780  18.128  0.00  0.00    +0.000 A 
ATOM     17  C   UNL     1       8.043   5.684  19.118  0.00  0.00    +0.000 A 
ATOM     18  C   UNL     1       8.062   7.050  18.848  0.00  0.00    +0.000 A 
ATOM     19  C   UNL     1       7.685   7.516  17.589  0.00  0.00    +0.000 A 
ATOM     20  C   UNL     1       7.287   6.614  16.599  0.00  0.00    +0.000 A 
ENDBRANCH  14  15
ENDBRANCH  13  14
ENDBRANCH   4  13
TORSDOF 6
ENDMDL
