MODEL 1
REMARK VINA RESULT:      -7.7      0.000      0.000
REMARK  Name = 
REMARK  6 active torsions:
REMARK  status: ('A' for Active; 'I' for Inactive)
REMARK    1  A    between atoms: C_1  and  C_2
REMARK    2  A    between atoms: C_5  and  C_6
REMARK    3  A    between atoms: C_7  and  C_8
REMARK    4  A    between atoms: C_8  and  N_9
REMARK    5  A    between atoms: C_8  and  C_15
REMARK    6  A    between atoms: N_9  and  C_10
REMARK                            x       y       z     vdW  Elec       q    Type
REMARK                         _______ _______ _______ _____ _____    ______ ____
ROOT
ATOM      1  C   UNL     1       3.796   5.625  18.374  0.00  0.00    +0.000 C 
ENDROOT
BRANCH   1   8
ATOM      2  C   UNL     1       5.546   4.024  13.916  0.00  0.00    +0.000 C 
ATOM      3  C   UNL     1       5.827   4.604  15.269  0.00  0.00    +0.000 A 
ATOM      4  C   UNL     1       7.136   4.756  15.719  0.00  0.00    +0.000 A 
ATOM      5  C   UNL     1       7.384   5.101  17.042  0.00  0.00    +0.000 A 
ATOM      6  C   UNL     1       6.328   5.314  17.949  0.00  0.00    +0.000 A 
ATOM      7  C   UNL     1       6.694   5.418  19.406  0.00  0.00    +0.000 C 
ATOM      8  C   UNL     1       4.996   5.286  17.483  0.00  0.00    +0.000 A 
ATOM      9  C   UNL     1       4.771   4.914  16.136  0.00  0.00    +0.000 A 
ENDBRANCH   1   8
BRANCH   1  10
ATOM     10  C   UNL     1       2.980   4.385  18.767  0.00  0.00    +0.000 A 
ATOM     11  C   UNL     1       1.771   4.051  18.142  0.00  0.00    +0.000 A 
ATOM     12  C   UNL     1       1.038   2.947  18.574  0.00  0.00    +0.000 A 
ATOM     13  C   UNL     1       1.542   2.201  19.623  0.00  0.00    +0.000 A 
ATOM     14  N   UNL     1       2.711   2.472  20.247  0.00  0.00    +0.000 NA
ATOM     15  C   UNL     1       3.400   3.550  19.800  0.00  0.00    +0.000 A 
ENDBRANCH   1  10
BRANCH   1  16
ATOM     16  N   UNL     1       2.884   6.631  17.796  0.00  0.00    +0.000 NA
ATOM     17  H   UNL     1       1.982   6.168  17.678  0.00  0.00    +0.000 HD
BRANCH  16  18
ATOM     18  C   UNL     1       2.670   7.871  18.546  0.00  0.00    +0.000 C 
ATOM     19  C   UNL     1       1.729   8.761  17.721  0.00  0.00    +0.000 C 
ATOM     20  C   UNL     1       1.037   9.681  18.709  0.00  0.00    +0.000 C 
ATOM     21  C   UNL     1       1.091   8.980  20.060  0.00  0.00    +0.000 C 
ATOM     22  C   UNL     1       1.964   7.741  19.895  0.00  0.00    +0.000 C 
ENDBRANCH  16  18
ENDBRANCH   1  16
TORSDOF 4
ENDMDL
MODEL 2
REMARK VINA RESULT:      -7.6      0.710      1.078
REMARK  Name = 
REMARK  6 active torsions:
REMARK  status: ('A' for Active; 'I' for Inactive)
REMARK    1  A    between atoms: C_1  and  C_2
REMARK    2  A    between atoms: C_5  and  C_6
REMARK    3  A    between atoms: C_7  and  C_8
REMARK    4  A    between atoms: C_8  and  N_9
REMARK    5  A    between atoms: C_8  and  C_15
REMARK    6  A    between atoms: N_9  and  C_10
REMARK                            x       y       z     vdW  Elec       q    Type
REMARK                         _______ _______ _______ _____ _____    ______ ____
ROOT
ATOM      1  C   UNL     1       3.755   5.570  18.277  0.00  0.00    +0.000 C 
ENDROOT
BRANCH   1   8
ATOM      2  C   UNL     1       5.669   3.983  13.882  0.00  0.00    +0.000 C 
ATOM      3  C   UNL     1       5.900   4.565  15.244  0.00  0.00    +0.000 A 
ATOM      4  C   UNL     1       7.191   4.725  15.739  0.00  0.00    +0.000 A 
ATOM      5  C   UNL     1       7.390   5.070  17.071  0.00  0.00    +0.000 A 
ATOM      6  C   UNL     1       6.302   5.276  17.940  0.00  0.00    +0.000 A 
ATOM      7  C   UNL     1       6.617   5.381  19.409  0.00  0.00    +0.000 C 
ATOM      8  C   UNL     1       4.987   5.239  17.428  0.00  0.00    +0.000 A 
ATOM      9  C   UNL     1       4.812   4.867  16.074  0.00  0.00    +0.000 A 
ENDBRANCH   1   8
BRANCH   1  10
ATOM     10  C   UNL     1       2.880   4.340  18.556  0.00  0.00    +0.000 A 
ATOM     11  C   UNL     1       3.310   3.279  19.365  0.00  0.00    +0.000 A 
ATOM     12  C   UNL     1       2.502   2.157  19.542  0.00  0.00    +0.000 A 
ATOM     13  C   UNL     1       1.277   2.130  18.903  0.00  0.00    +0.000 A 
ATOM     14  N   UNL     1       0.810   3.135  18.126  0.00  0.00    +0.000 NA
ATOM     15  C   UNL     1       1.619   4.212  17.977  0.00  0.00    +0.000 A 
ENDBRANCH   1  10
BRANCH   1  16
ATOM     16  N   UNL     1       2.907   6.639  17.715  0.00  0.00    +0.000 NA
ATOM     17  H   UNL     1       1.994   6.218  17.536  0.00  0.00    +0.000 HD
BRANCH  16  18
ATOM     18  C   UNL     1       2.708   7.848  18.516  0.00  0.00    +0.000 C 
ATOM     19  C   UNL     1       1.757   8.772  17.743  0.00  0.00    +0.000 C 
ATOM     20  C   UNL     1       1.083   9.654  18.778  0.00  0.00    +0.000 C 
ATOM     21  C   UNL     1       1.156   8.898  20.098  0.00  0.00    +0.000 C 
ATOM     22  C   UNL     1       2.023   7.666  19.871  0.00  0.00    +0.000 C 
ENDBRANCH  16  18
ENDBRANCH   1  16
TORSDOF 4
ENDMDL
MODEL 3
REMARK VINA RESULT:      -7.5      1.744      4.669
REMARK  Name = 
REMARK  6 active torsions:
REMARK  status: ('A' for Active; 'I' for Inactive)
REMARK    1  A    between atoms: C_1  and  C_2
REMARK    2  A    between atoms: C_5  and  C_6
REMARK    3  A    between atoms: C_7  and  C_8
REMARK    4  A    between atoms: C_8  and  N_9
REMARK    5  A    between atoms: C_8  and  C_15
REMARK    6  A    between atoms: N_9  and  C_10
REMARK                            x       y       z     vdW  Elec       q    Type
REMARK                         _______ _______ _______ _____ _____    ______ ____
ROOT
ATOM      1  C   UNL     1       3.532   5.903  18.401  0.00  0.00    +0.000 C 
ENDROOT
BRANCH   1   8
ATOM      2  C   UNL     1       1.355   2.649  21.590  0.00  0.00    +0.000 C 
ATOM      3  C   UNL     1       1.818   2.964  20.200  0.00  0.00    +0.000 A 
ATOM      4  C   UNL     1       1.809   1.986  19.210  0.00  0.00    +0.000 A 
ATOM      5  C   UNL     1       2.426   2.225  17.987  0.00  0.00    +0.000 A 
ATOM      6  C   UNL     1       3.061   3.453  17.720  0.00  0.00    +0.000 A 
ATOM      7  C   UNL     1       3.923   3.517  16.486  0.00  0.00    +0.000 C 
ATOM      8  C   UNL     1       2.975   4.499  18.663  0.00  0.00    +0.000 A 
ATOM      9  C   UNL     1       2.358   4.224  19.906  0.00  0.00    +0.000 A 
ENDBRANCH   1   8
BRANCH   1  10
ATOM     10  C   UNL     1       5.066   5.942  18.410  0.00  0.00    +0.000 A 
ATOM     11  C   UNL     1       5.807   6.646  17.450  0.00  0.00    +0.000 A 
ATOM     12  C   UNL     1       7.200   6.604  17.467  0.00  0.00    +0.000 A 
ATOM     13  C   UNL     1       7.817   5.858  18.453  0.00  0.00    +0.000 A 
ATOM     14  N   UNL     1       7.148   5.176  19.411  0.00  0.00    +0.000 NA
ATOM     15  C   UNL     1       5.795   5.240  19.368  0.00  0.00    +0.000 A 
ENDBRANCH   1  10
BRANCH   1  16
ATOM     16  N   UNL     1       3.024   6.933  19.327  0.00  0.00    +0.000 NA
ATOM     17  H   UNL     1       3.816   7.538  19.547  0.00  0.00    +0.000 HD
BRANCH  16  18
ATOM     18  C   UNL     1       1.914   7.774  18.873  0.00  0.00    +0.000 C 
ATOM     19  C   UNL     1       1.415   8.583  20.079  0.00  0.00    +0.000 C 
ATOM     20  C   UNL     1       0.763   9.831  19.515  0.00  0.00    +0.000 C 
ATOM     21  C   UNL     1       1.373  10.050  18.138  0.00  0.00    +0.000 C 
ATOM     22  C   UNL     1       2.245   8.839  17.828  0.00  0.00    +0.000 C 
ENDBRANCH  16  18
ENDBRANCH   1  16
TORSDOF 4
ENDMDL
MODEL 4
REMARK VINA RESULT:      -7.5      1.604      4.698
REMARK  Name = 
REMARK  6 active torsions:
REMARK  status: ('A' for Active; 'I' for Inactive)
REMARK    1  A    between atoms: C_1  and  C_2
REMARK    2  A    between atoms: C_5  and  C_6
REMARK    3  A    between atoms: C_7  and  C_8
REMARK    4  A    between atoms: C_8  and  N_9
REMARK    5  A    between atoms: C_8  and  C_15
REMARK    6  A    between atoms: N_9  and  C_10
REMARK                            x       y       z     vdW  Elec       q    Type
REMARK                         _______ _______ _______ _____ _____    ______ ____
ROOT
ATOM      1  C   UNL     1       2.799   5.991  19.001  0.00  0.00    +0.000 C 
ENDROOT
BRANCH   1   8
ATOM      2  C   UNL     1       7.290   7.591  17.339  0.00  0.00    +0.000 C 
ATOM      3  C   UNL     1       6.267   6.499  17.412  0.00  0.00    +0.000 A 
ATOM      4  C   UNL     1       6.406   5.343  16.649  0.00  0.00    +0.000 A 
ATOM      5  C   UNL     1       5.359   4.432  16.565  0.00  0.00    +0.000 A 
ATOM      6  C   UNL     1       4.149   4.648  17.251  0.00  0.00    +0.000 A 
ATOM      7  C   UNL     1       2.993   3.753  16.889  0.00  0.00    +0.000 C 
ATOM      8  C   UNL     1       4.034   5.750  18.126  0.00  0.00    +0.000 A 
ATOM      9  C   UNL     1       5.106   6.672  18.178  0.00  0.00    +0.000 A 
ENDBRANCH   1   8
BRANCH   1  10
ATOM     10  C   UNL     1       2.280   7.433  18.909  0.00  0.00    +0.000 A 
ATOM     11  C   UNL     1       2.387   8.199  17.739  0.00  0.00    +0.000 A 
ATOM     12  C   UNL     1       1.953   9.523  17.723  0.00  0.00    +0.000 A 
ATOM     13  C   UNL     1       1.417  10.046  18.885  0.00  0.00    +0.000 A 
ATOM     14  N   UNL     1       1.277   9.345  20.033  0.00  0.00    +0.000 NA
ATOM     15  C   UNL     1       1.706   8.059  20.014  0.00  0.00    +0.000 A 
ENDBRANCH   1  10
BRANCH   1  16
ATOM     16  N   UNL     1       2.992   5.645  20.422  0.00  0.00    +0.000 NA
ATOM     17  H   UNL     1       2.612   6.423  20.962  0.00  0.00    +0.000 HD
BRANCH  16  18
ATOM     18  C   UNL     1       2.387   4.405  20.913  0.00  0.00    +0.000 C 
ATOM     19  C   UNL     1       1.014   4.257  20.242  0.00  0.00    +0.000 C 
ATOM     20  C   UNL     1       0.699   2.772  20.238  0.00  0.00    +0.000 C 
ATOM     21  C   UNL     1       2.036   2.049  20.327  0.00  0.00    +0.000 C 
ATOM     22  C   UNL     1       3.110   3.105  20.561  0.00  0.00    +0.000 C 
ENDBRANCH  16  18
ENDBRANCH   1  16
TORSDOF 4
ENDMDL
MODEL 5
REMARK VINA RESULT:      -7.5      1.557      4.724
REMARK  Name = 
REMARK  6 active torsions:
REMARK  status: ('A' for Active; 'I' for Inactive)
REMARK    1  A    between atoms: C_1  and  C_2
REMARK    2  A    between atoms: C_5  and  C_6
REMARK    3  A    between atoms: C_7  and  C_8
REMARK    4  A    between atoms: C_8  and  N_9
REMARK    5  A    between atoms: C_8  and  C_15
REMARK    6  A    between atoms: N_9  and  C_10
REMARK                            x       y       z     vdW  Elec       q    Type
REMARK                         _______ _______ _______ _____ _____    ______ ____
ROOT
ATOM      1  C   UNL     1       2.887   5.983  18.958  0.00  0.00    +0.000 C 
ENDROOT
BRANCH   1   8
ATOM      2  C   UNL     1       7.455   7.494  17.426  0.00  0.00    +0.000 C 
ATOM      3  C   UNL     1       6.411   6.419  17.477  0.00  0.00    +0.000 A 
ATOM      4  C   UNL     1       6.556   5.252  16.731  0.00  0.00    +0.000 A 
ATOM      5  C   UNL     1       5.499   4.357  16.623  0.00  0.00    +0.000 A 
ATOM      6  C   UNL     1       4.271   4.600  17.268  0.00  0.00    +0.000 A 
ATOM      7  C   UNL     1       3.113   3.719  16.877  0.00  0.00    +0.000 C 
ATOM      8  C   UNL     1       4.145   5.713  18.126  0.00  0.00    +0.000 A 
ATOM      9  C   UNL     1       5.230   6.618  18.203  0.00  0.00    +0.000 A 
ENDBRANCH   1   8
BRANCH   1  10
ATOM     10  C   UNL     1       2.396   7.432  18.836  0.00  0.00    +0.000 A 
ATOM     11  C   UNL     1       1.768   8.106  19.893  0.00  0.00    +0.000 A 
ATOM     12  C   UNL     1       1.288   9.403  19.714  0.00  0.00    +0.000 A 
ATOM     13  C   UNL     1       1.454   9.993  18.476  0.00  0.00    +0.000 A 
ATOM     14  N   UNL     1       2.067   9.392  17.430  0.00  0.00    +0.000 NA
ATOM     15  C   UNL     1       2.525   8.133  17.639  0.00  0.00    +0.000 A 
ENDBRANCH   1  10
BRANCH   1  16
ATOM     16  N   UNL     1       3.028   5.648  20.389  0.00  0.00    +0.000 NA
ATOM     17  H   UNL     1       2.652   6.441  20.908  0.00  0.00    +0.000 HD
BRANCH  16  18
ATOM     18  C   UNL     1       2.378   4.429  20.873  0.00  0.00    +0.000 C 
ATOM     19  C   UNL     1       1.014   4.316  20.176  0.00  0.00    +0.000 C 
ATOM     20  C   UNL     1       0.657   2.841  20.173  0.00  0.00    +0.000 C 
ATOM     21  C   UNL     1       1.971   2.081  20.292  0.00  0.00    +0.000 C 
ATOM     22  C   UNL     1       3.070   3.107  20.541  0.00  0.00    +0.000 C 
ENDBRANCH  16  18
ENDBRANCH   1  16
TORSDOF 4
ENDMDL
MODEL 6
REMARK VINA RESULT:      -7.4      1.754      4.784
REMARK  Name = 
REMARK  6 active torsions:
REMARK  status: ('A' for Active; 'I' for Inactive)
REMARK    1  A    between atoms: C_1  and  C_2
REMARK    2  A    between atoms: C_5  and  C_6
REMARK    3  A    between atoms: C_7  and  C_8
REMARK    4  A    between atoms: C_8  and  N_9
REMARK    5  A    between atoms: C_8  and  C_15
REMARK    6  A    between atoms: N_9  and  C_10
REMARK                            x       y       z     vdW  Elec       q    Type
REMARK                         _______ _______ _______ _____ _____    ______ ____
ROOT
ATOM      1  C   UNL     1       3.387   5.966  18.323  0.00  0.00    +0.000 C 
ENDROOT
BRANCH   1   8
ATOM      2  C   UNL     1       1.389   2.666  21.581  0.00  0.00    +0.000 C 
ATOM      3  C   UNL     1       1.836   2.976  20.184  0.00  0.00    +0.000 A 
ATOM      4  C   UNL     1       1.881   1.979  19.215  0.00  0.00    +0.000 A 
ATOM      5  C   UNL     1       2.486   2.225  17.988  0.00  0.00    +0.000 A 
ATOM      6  C   UNL     1       3.052   3.480  17.694  0.00  0.00    +0.000 A 
ATOM      7  C   UNL     1       3.910   3.566  16.459  0.00  0.00    +0.000 C 
ATOM      8  C   UNL     1       2.908   4.540  18.615  0.00  0.00    +0.000 A 
ATOM      9  C   UNL     1       2.306   4.257  19.863  0.00  0.00    +0.000 A 
ENDBRANCH   1   8
BRANCH   1  10
ATOM     10  C   UNL     1       4.914   6.065  18.203  0.00  0.00    +0.000 A 
ATOM     11  C   UNL     1       5.783   5.464  19.125  0.00  0.00    +0.000 A 
ATOM     12  C   UNL     1       7.161   5.631  19.005  0.00  0.00    +0.000 A 
ATOM     13  C   UNL     1       7.635   6.397  17.956  0.00  0.00    +0.000 A 
ATOM     14  N   UNL     1       6.840   6.982  17.031  0.00  0.00    +0.000 NA
ATOM     15  C   UNL     1       5.505   6.797  17.175  0.00  0.00    +0.000 A 
ENDBRANCH   1  10
BRANCH   1  16
ATOM     16  N   UNL     1       2.921   6.969  19.300  0.00  0.00    +0.000 NA
ATOM     17  H   UNL     1       3.737   7.529  19.548  0.00  0.00    +0.000 HD
BRANCH  16  18
ATOM     18  C   UNL     1       1.846   7.874  18.891  0.00  0.00    +0.000 C 
ATOM     19  C   UNL     1       1.394   8.656  20.132  0.00  0.00    +0.000 C 
ATOM     20  C   UNL     1       0.792   9.954  19.624  0.00  0.00    +0.000 C 
ATOM     21  C   UNL     1       1.401  10.200  18.250  0.00  0.00    +0.000 C 
ATOM     22  C   UNL     1       2.215   8.964  17.884  0.00  0.00    +0.000 C 
ENDBRANCH  16  18
ENDBRANCH   1  16
TORSDOF 4
ENDMDL
MODEL 7
REMARK VINA RESULT:      -7.4      1.557      4.527
REMARK  Name = 
REMARK  6 active torsions:
REMARK  status: ('A' for Active; 'I' for Inactive)
REMARK    1  A    between atoms: C_1  and  C_2
REMARK    2  A    between atoms: C_5  and  C_6
REMARK    3  A    between atoms: C_7  and  C_8
REMARK    4  A    between atoms: C_8  and  N_9
REMARK    5  A    between atoms: C_8  and  C_15
REMARK    6  A    between atoms: N_9  and  C_10
REMARK                            x       y       z     vdW  Elec       q    Type
REMARK                         _______ _______ _______ _____ _____    ______ ____
ROOT
ATOM      1  C   UNL     1       3.585   5.597  18.527  0.00  0.00    +0.000 C 
ENDROOT
BRANCH   1   8
ATOM      2  C   UNL     1       7.755   8.293  17.614  0.00  0.00    +0.000 C 
ATOM      3  C   UNL     1       6.978   7.028  17.411  0.00  0.00    +0.000 A 
ATOM      4  C   UNL     1       7.411   6.067  16.500  0.00  0.00    +0.000 A 
ATOM      5  C   UNL     1       6.585   4.999  16.169  0.00  0.00    +0.000 A 
ATOM      6  C   UNL     1       5.310   4.857  16.747  0.00  0.00    +0.000 A 
ATOM      7  C   UNL     1       4.395   3.831  16.132  0.00  0.00    +0.000 C 
ATOM      8  C   UNL     1       4.904   5.751  17.761  0.00  0.00    +0.000 A 
ATOM      9  C   UNL     1       5.754   6.840  18.067  0.00  0.00    +0.000 A 
ENDBRANCH   1   8
BRANCH   1  10
ATOM     10  C   UNL     1       2.811   6.917  18.645  0.00  0.00    +0.000 A 
ATOM     11  C   UNL     1       2.713   7.830  17.587  0.00  0.00    +0.000 A 
ATOM     12  C   UNL     1       2.048   9.042  17.762  0.00  0.00    +0.000 A 
ATOM     13  C   UNL     1       1.492   9.306  19.000  0.00  0.00    +0.000 A 
ATOM     14  N   UNL     1       1.544   8.451  20.047  0.00  0.00    +0.000 NA
ATOM     15  C   UNL     1       2.196   7.281  19.842  0.00  0.00    +0.000 A 
ENDBRANCH   1  10
BRANCH   1  16
ATOM     16  N   UNL     1       3.736   5.011  19.873  0.00  0.00    +0.000 NA
ATOM     17  H   UNL     1       3.342   5.688  20.527  0.00  0.00    +0.000 HD
BRANCH  16  18
ATOM     18  C   UNL     1       3.113   3.710  20.126  0.00  0.00    +0.000 C 
ATOM     19  C   UNL     1       2.240   3.845  21.382  0.00  0.00    +0.000 C 
ATOM     20  C   UNL     1       1.168   2.776  21.273  0.00  0.00    +0.000 C 
ATOM     21  C   UNL     1       1.035   2.451  19.792  0.00  0.00    +0.000 C 
ATOM     22  C   UNL     1       2.146   3.195  19.060  0.00  0.00    +0.000 C 
ENDBRANCH  16  18
ENDBRANCH   1  16
TORSDOF 4
ENDMDL
MODEL 8
REMARK VINA RESULT:      -7.4      2.094      6.513
REMARK  Name = 
REMARK  6 active torsions:
REMARK  status: ('A' for Active; 'I' for Inactive)
REMARK    1  A    between atoms: C_1  and  C_2
REMARK    2  A    between atoms: C_5  and  C_6
REMARK    3  A    between atoms: C_7  and  C_8
REMARK    4  A    between atoms: C_8  and  N_9
REMARK    5  A    between atoms: C_8  and  C_15
REMARK    6  A    between atoms: N_9  and  C_10
REMARK                            x       y       z     vdW  Elec       q    Type
REMARK                         _______ _______ _______ _____ _____    ______ ____
ROOT
ATOM      1  C   UNL     1       5.356   4.596  16.871  0.00  0.00    +0.000 C 
ENDROOT
BRANCH   1   8
ATOM      2  C   UNL     1       2.130   7.144  19.802  0.00  0.00    +0.000 C 
ATOM      3  C   UNL     1       2.443   5.908  19.015  0.00  0.00    +0.000 A 
ATOM      4  C   UNL     1       1.609   4.795  19.080  0.00  0.00    +0.000 A 
ATOM      5  C   UNL     1       2.009   3.589  18.515  0.00  0.00    +0.000 A 
ATOM      6  C   UNL     1       3.249   3.469  17.859  0.00  0.00    +0.000 A 
ATOM      7  C   UNL     1       3.705   2.074  17.520  0.00  0.00    +0.000 C 
ATOM      8  C   UNL     1       4.052   4.615  17.676  0.00  0.00    +0.000 A 
ATOM      9  C   UNL     1       3.631   5.824  18.277  0.00  0.00    +0.000 A 
ENDBRANCH   1   8
BRANCH   1  10
ATOM     10  C   UNL     1       6.398   5.587  17.407  0.00  0.00    +0.000 A 
ATOM     11  C   UNL     1       7.191   5.312  18.530  0.00  0.00    +0.000 A 
ATOM     12  C   UNL     1       8.082   6.268  19.013  0.00  0.00    +0.000 A 
ATOM     13  C   UNL     1       8.159   7.479  18.352  0.00  0.00    +0.000 A 
ATOM     14  N   UNL     1       7.429   7.787  17.256  0.00  0.00    +0.000 NA
ATOM     15  C   UNL     1       6.574   6.834  16.810  0.00  0.00    +0.000 A 
ENDBRANCH   1  10
BRANCH   1  16
ATOM     16  N   UNL     1       5.174   4.834  15.425  0.00  0.00    +0.000 NA
ATOM     17  H   UNL     1       5.357   5.825  15.272  0.00  0.00    +0.000 HD
BRANCH  16  18
ATOM     18  C   UNL     1       6.001   4.062  14.496  0.00  0.00    +0.000 C 
ATOM     19  C   UNL     1       5.098   3.589  13.347  0.00  0.00    +0.000 C 
ATOM     20  C   UNL     1       6.007   3.374  12.151  0.00  0.00    +0.000 C 
ATOM     21  C   UNL     1       7.236   4.241  12.384  0.00  0.00    +0.000 C 
ATOM     22  C   UNL     1       7.126   4.819  13.790  0.00  0.00    +0.000 C 
ENDBRANCH  16  18
ENDBRANCH   1  16
TORSDOF 4
ENDMDL
MODEL 9
REMARK VINA RESULT:      -7.4      1.839      5.823
REMARK  Name = 
REMARK  6 active torsions:
REMARK  status: ('A' for Active; 'I' for Inactive)
REMARK    1  A    between atoms: C_1  and  C_2
REMARK    2  A    between atoms: C_5  and  C_6
REMARK    3  A    between atoms: C_7  and  C_8
REMARK    4  A    between atoms: C_8  and  N_9
REMARK    5  A    between atoms: C_8  and  C_15
REMARK    6  A    between atoms: N_9  and  C_10
REMARK                            x       y       z     vdW  Elec       q    Type
REMARK                         _______ _______ _______ _____ _____    ______ ____
ROOT
ATOM      1  C   UNL     1       3.948   5.258  18.451  0.00  0.00    +0.000 C 
ENDROOT
BRANCH   1   8
ATOM      2  C   UNL     1       2.007   9.900  18.038  0.00  0.00    +0.000 C 
ATOM      3  C   UNL     1       1.984   8.557  18.703  0.00  0.00    +0.000 A 
ATOM      4  C   UNL     1       1.175   8.327  19.812  0.00  0.00    +0.000 A 
ATOM      5  C   UNL     1       1.311   7.152  20.542  0.00  0.00    +0.000 A 
ATOM      6  C   UNL     1       2.252   6.171  20.176  0.00  0.00    +0.000 A 
ATOM      7  C   UNL     1       2.508   5.069  21.171  0.00  0.00    +0.000 C 
ATOM      8  C   UNL     1       2.993   6.330  18.986  0.00  0.00    +0.000 A 
ATOM      9  C   UNL     1       2.851   7.543  18.271  0.00  0.00    +0.000 A 
ENDBRANCH   1   8
BRANCH   1  10
ATOM     10  C   UNL     1       5.359   5.800  18.183  0.00  0.00    +0.000 A 
ATOM     11  C   UNL     1       6.432   5.571  19.056  0.00  0.00    +0.000 A 
ATOM     12  C   UNL     1       7.681   6.133  18.798  0.00  0.00    +0.000 A 
ATOM     13  C   UNL     1       7.823   6.912  17.665  0.00  0.00    +0.000 A 
ATOM     14  N   UNL     1       6.824   7.150  16.784  0.00  0.00    +0.000 NA
ATOM     15  C   UNL     1       5.623   6.585  17.062  0.00  0.00    +0.000 A 
ENDBRANCH   1  10
BRANCH   1  16
ATOM     16  N   UNL     1       3.464   4.573  17.236  0.00  0.00    +0.000 NA
ATOM     17  H   UNL     1       4.294   4.285  16.718  0.00  0.00    +0.000 HD
BRANCH  16  18
ATOM     18  C   UNL     1       2.599   3.404  17.409  0.00  0.00    +0.000 C 
ATOM     19  C   UNL     1       3.197   2.541  18.530  0.00  0.00    +0.000 C 
ATOM     20  C   UNL     1       2.045   1.742  19.113  0.00  0.00    +0.000 C 
ATOM     21  C   UNL     1       0.777   2.522  18.793  0.00  0.00    +0.000 C 
ATOM     22  C   UNL     1       1.169   3.674  17.876  0.00  0.00    +0.000 C 
ENDBRANCH  16  18
ENDBRANCH   1  16
TORSDOF 4
ENDMDL
