MODEL 1
REMARK VINA RESULT:      -8.2      0.000      0.000
REMARK  Name = 
REMARK  7 active torsions:
REMARK  status: ('A' for Active; 'I' for Inactive)
REMARK    1  A    between atoms: C_1  and  C_2
REMARK    2  A    between atoms: C_2  and  C_3
REMARK    3  A    between atoms: C_3  and  O_4
REMARK    4  A    between atoms: O_4  and  C_5
REMARK    5  A    between atoms: C_10  and  O_11
REMARK    6  A    between atoms: O_11  and  C_12
REMARK    7  A    between atoms: C_18  and  C_19
REMARK                            x       y       z     vdW  Elec       q    Type
REMARK                         _______ _______ _______ _____ _____    ______ ____
ROOT
ATOM      1  C   UNL     1       2.923   4.682  20.093  0.00  0.00    +0.000 C 
ATOM      2  O   UNL     1       2.195   4.892  21.053  0.00  0.00    +0.000 OA
ATOM      3  N   UNL     1       3.084   5.643  19.082  0.00  0.00    +0.000 N 
ATOM      4  C   UNL     1       3.887   5.638  17.920  0.00  0.00    +0.000 A 
ATOM      5  C   UNL     1       4.702   4.636  17.354  0.00  0.00    +0.000 A 
ATOM      6  C   UNL     1       5.420   4.901  16.178  0.00  0.00    +0.000 A 
ATOM      7  C   UNL     1       5.345   6.153  15.575  0.00  0.00    +0.000 A 
ATOM      8  C   UNL     1       4.542   7.160  16.124  0.00  0.00    +0.000 A 
ATOM      9  C   UNL     1       3.806   6.892  17.289  0.00  0.00    +0.000 A 
ATOM     10  C   UNL     1       2.914   7.616  18.090  0.00  0.00    +0.000 A 
ATOM     11  O   UNL     1       2.374   8.862  18.104  0.00  0.00    +0.000 OA
ATOM     12  C   UNL     1       1.637   8.921  19.263  0.00  0.00    +0.000 A 
ATOM     13  C   UNL     1       1.618   7.697  19.910  0.00  0.00    +0.000 A 
ATOM     14  C   UNL     1       2.486   6.893  19.136  0.00  0.00    +0.000 A 
ENDROOT
BRANCH  12  15
ATOM     15  C   UNL     1       0.953  10.153  19.636  0.00  0.00    +0.000 C 
ATOM     16  O   UNL     1       0.476  10.887  18.769  0.00  0.00    +0.000 OA
ATOM     17  N   UNL     1       0.798  10.468  20.989  0.00  0.00    +0.000 N 
ATOM     18  C   UNL     1       1.142   9.621  22.138  0.00  0.00    +0.000 C 
ATOM     19  C   UNL     1      -0.042   9.501  23.107  0.00  0.00    +0.000 C 
ATOM     20  O   UNL     1      -0.546  10.788  23.489  0.00  0.00    +0.000 OA
ATOM     21  C   UNL     1      -0.979  11.521  22.332  0.00  0.00    +0.000 C 
ATOM     22  C   UNL     1       0.186  11.745  21.364  0.00  0.00    +0.000 C 
ENDBRANCH  12  15
BRANCH   6  23
ATOM     23  O   UNL     1       6.161   3.840  15.730  0.00  0.00    +0.000 OA
ATOM     24  C   UNL     1       6.389   3.753  14.328  0.00  0.00    +0.000 C 
ENDBRANCH   6  23
BRANCH   1  25
ATOM     25  O   UNL     1       3.742   3.625  19.895  0.00  0.00    +0.000 OA
BRANCH  25  26
ATOM     26  C   UNL     1       3.100   2.344  19.829  0.00  0.00    +0.000 C 
BRANCH  26  28
ATOM     27  C   UNL     1       0.774   2.285  18.820  0.00  0.00    +0.000 C 
ATOM     28  C   UNL     1       2.269   2.182  18.562  0.00  0.00    +0.000 C 
ENDBRANCH  26  28
ENDBRANCH  25  26
ENDBRANCH   1  25
TORSDOF 5
ENDMDL
MODEL 2
REMARK VINA RESULT:      -8.1      1.407      3.825
REMARK  Name = 
REMARK  7 active torsions:
REMARK  status: ('A' for Active; 'I' for Inactive)
REMARK    1  A    between atoms: C_1  and  C_2
REMARK    2  A    between atoms: C_2  and  C_3
REMARK    3  A    between atoms: C_3  and  O_4
REMARK    4  A    between atoms: O_4  and  C_5
REMARK    5  A    between atoms: C_10  and  O_11
REMARK    6  A    between atoms: O_11  and  C_12
REMARK    7  A    between atoms: C_18  and  C_19
REMARK                            x       y       z     vdW  Elec       q    Type
REMARK                         _______ _______ _______ _____ _____    ______ ____
ROOT
ATOM      1  C   UNL     1       4.636   5.963  16.990  0.00  0.00    +0.000 C 
ATOM      2  O   UNL     1       4.630   7.003  16.346  0.00  0.00    +0.000 OA
ATOM      3  N   UNL     1       3.891   5.840  18.174  0.00  0.00    +0.000 N 
ATOM      4  C   UNL     1       3.717   4.744  19.047  0.00  0.00    +0.000 A 
ATOM      5  C   UNL     1       4.307   3.464  19.067  0.00  0.00    +0.000 A 
ATOM      6  C   UNL     1       3.940   2.539  20.057  0.00  0.00    +0.000 A 
ATOM      7  C   UNL     1       2.982   2.873  21.010  0.00  0.00    +0.000 A 
ATOM      8  C   UNL     1       2.383   4.139  21.004  0.00  0.00    +0.000 A 
ATOM      9  C   UNL     1       2.764   5.073  20.029  0.00  0.00    +0.000 A 
ATOM     10  C   UNL     1       2.412   6.395  19.726  0.00  0.00    +0.000 A 
ATOM     11  O   UNL     1       1.573   7.340  20.222  0.00  0.00    +0.000 OA
ATOM     12  C   UNL     1       1.669   8.399  19.351  0.00  0.00    +0.000 A 
ATOM     13  C   UNL     1       2.639   8.172  18.389  0.00  0.00    +0.000 A 
ATOM     14  C   UNL     1       3.067   6.850  18.648  0.00  0.00    +0.000 A 
ENDROOT
BRANCH  12  15
ATOM     15  C   UNL     1       0.849   9.588  19.547  0.00  0.00    +0.000 C 
ATOM     16  O   UNL     1       0.228  10.078  18.602  0.00  0.00    +0.000 OA
ATOM     17  N   UNL     1       0.732  10.137  20.828  0.00  0.00    +0.000 N 
ATOM     18  C   UNL     1       1.254   9.575  22.080  0.00  0.00    +0.000 C 
ATOM     19  C   UNL     1       0.156   9.503  23.150  0.00  0.00    +0.000 C 
ATOM     20  O   UNL     1      -0.493  10.769  23.329  0.00  0.00    +0.000 OA
ATOM     21  C   UNL     1      -1.087  11.208  22.097  0.00  0.00    +0.000 C 
ATOM     22  C   UNL     1      -0.022  11.379  21.011  0.00  0.00    +0.000 C 
ENDBRANCH  12  15
BRANCH   6  23
ATOM     23  O   UNL     1       4.597   1.341  19.968  0.00  0.00    +0.000 OA
ATOM     24  C   UNL     1       5.354   0.931  21.101  0.00  0.00    +0.000 C 
ENDBRANCH   6  23
BRANCH   1  25
ATOM     25  O   UNL     1       5.213   4.787  16.653  0.00  0.00    +0.000 OA
BRANCH  25  26
ATOM     26  C   UNL     1       6.631   4.829  16.439  0.00  0.00    +0.000 C 
BRANCH  26  28
ATOM     27  C   UNL     1       5.907   4.031  14.142  0.00  0.00    +0.000 C 
ATOM     28  C   UNL     1       6.994   4.706  14.964  0.00  0.00    +0.000 C 
ENDBRANCH  26  28
ENDBRANCH  25  26
ENDBRANCH   1  25
TORSDOF 5
ENDMDL
MODEL 3
REMARK VINA RESULT:      -8.1      1.550      3.792
REMARK  Name = 
REMARK  7 active torsions:
REMARK  status: ('A' for Active; 'I' for Inactive)
REMARK    1  A    between atoms: C_1  and  C_2
REMARK    2  A    between atoms: C_2  and  C_3
REMARK    3  A    between atoms: C_3  and  O_4
REMARK    4  A    between atoms: O_4  and  C_5
REMARK    5  A    between atoms: C_10  and  O_11
REMARK    6  A    between atoms: O_11  and  C_12
REMARK    7  A    between atoms: C_18  and  C_19
REMARK                            x       y       z     vdW  Elec       q    Type
REMARK                         _______ _______ _______ _____ _____    ______ ____
ROOT
ATOM      1  C   UNL     1       4.590   6.129  16.891  0.00  0.00    +0.000 C 
ATOM      2  O   UNL     1       4.568   7.172  16.255  0.00  0.00    +0.000 OA
ATOM      3  N   UNL     1       3.857   5.992  18.082  0.00  0.00    +0.000 N 
ATOM      4  C   UNL     1       3.701   4.889  18.950  0.00  0.00    +0.000 A 
ATOM      5  C   UNL     1       4.302   3.614  18.957  0.00  0.00    +0.000 A 
ATOM      6  C   UNL     1       3.952   2.681  19.944  0.00  0.00    +0.000 A 
ATOM      7  C   UNL     1       3.001   3.000  20.908  0.00  0.00    +0.000 A 
ATOM      8  C   UNL     1       2.391   4.261  20.916  0.00  0.00    +0.000 A 
ATOM      9  C   UNL     1       2.755   5.204  19.942  0.00  0.00    +0.000 A 
ATOM     10  C   UNL     1       2.389   6.525  19.652  0.00  0.00    +0.000 A 
ATOM     11  O   UNL     1       1.546   7.459  20.161  0.00  0.00    +0.000 OA
ATOM     12  C   UNL     1       1.625   8.524  19.296  0.00  0.00    +0.000 A 
ATOM     13  C   UNL     1       2.587   8.311  18.324  0.00  0.00    +0.000 A 
ATOM     14  C   UNL     1       3.029   6.992  18.570  0.00  0.00    +0.000 A 
ENDROOT
BRANCH  12  15
ATOM     15  C   UNL     1       0.796   9.705  19.507  0.00  0.00    +0.000 C 
ATOM     16  O   UNL     1       0.180  10.209  18.566  0.00  0.00    +0.000 OA
ATOM     17  N   UNL     1       0.665  10.229  20.797  0.00  0.00    +0.000 N 
ATOM     18  C   UNL     1       1.180   9.647  22.043  0.00  0.00    +0.000 C 
ATOM     19  C   UNL     1       0.073   9.549  23.101  0.00  0.00    +0.000 C 
ATOM     20  O   UNL     1      -0.585  10.807  23.299  0.00  0.00    +0.000 OA
ATOM     21  C   UNL     1      -1.171  11.266  22.070  0.00  0.00    +0.000 C 
ATOM     22  C   UNL     1      -0.098  11.464  20.996  0.00  0.00    +0.000 C 
ENDBRANCH  12  15
BRANCH   6  23
ATOM     23  O   UNL     1       4.619   1.488  19.842  0.00  0.00    +0.000 OA
ATOM     24  C   UNL     1       5.255   0.998  21.016  0.00  0.00    +0.000 C 
ENDBRANCH   6  23
BRANCH   1  25
ATOM     25  O   UNL     1       5.173   4.960  16.541  0.00  0.00    +0.000 OA
BRANCH  25  26
ATOM     26  C   UNL     1       6.567   5.035  16.213  0.00  0.00    +0.000 C 
BRANCH  26  28
ATOM     27  C   UNL     1       7.615   5.577  18.458  0.00  0.00    +0.000 C 
ATOM     28  C   UNL     1       7.454   4.546  17.351  0.00  0.00    +0.000 C 
ENDBRANCH  26  28
ENDBRANCH  25  26
ENDBRANCH   1  25
TORSDOF 5
ENDMDL
MODEL 4
REMARK VINA RESULT:      -7.9      1.337      1.967
REMARK  Name = 
REMARK  7 active torsions:
REMARK  status: ('A' for Active; 'I' for Inactive)
REMARK    1  A    between atoms: C_1  and  C_2
REMARK    2  A    between atoms: C_2  and  C_3
REMARK    3  A    between atoms: C_3  and  O_4
REMARK    4  A    between atoms: O_4  and  C_5
REMARK    5  A    between atoms: C_10  and  O_11
REMARK    6  A    between atoms: O_11  and  C_12
REMARK    7  A    between atoms: C_18  and  C_19
REMARK                            x       y       z     vdW  Elec       q    Type
REMARK                         _______ _______ _______ _____ _____    ______ ____
ROOT
ATOM      1  C   UNL     1       2.771   4.555  20.362  0.00  0.00    +0.000 C 
ATOM      2  O   UNL     1       2.079   4.656  21.364  0.00  0.00    +0.000 OA
ATOM      3  N   UNL     1       2.885   5.618  19.450  0.00  0.00    +0.000 N 
ATOM      4  C   UNL     1       3.643   5.744  18.266  0.00  0.00    +0.000 A 
ATOM      5  C   UNL     1       4.446   4.818  17.569  0.00  0.00    +0.000 A 
ATOM      6  C   UNL     1       5.115   5.212  16.401  0.00  0.00    +0.000 A 
ATOM      7  C   UNL     1       5.006   6.519  15.934  0.00  0.00    +0.000 A 
ATOM      8  C   UNL     1       4.215   7.453  16.615  0.00  0.00    +0.000 A 
ATOM      9  C   UNL     1       3.527   7.056  17.772  0.00  0.00    +0.000 A 
ATOM     10  C   UNL     1       2.659   7.681  18.676  0.00  0.00    +0.000 A 
ATOM     11  O   UNL     1       2.109   8.911  18.839  0.00  0.00    +0.000 OA
ATOM     12  C   UNL     1       1.416   8.841  20.025  0.00  0.00    +0.000 A 
ATOM     13  C   UNL     1       1.433   7.556  20.541  0.00  0.00    +0.000 A 
ATOM     14  C   UNL     1       2.278   6.848  19.657  0.00  0.00    +0.000 A 
ENDROOT
BRANCH  12  15
ATOM     15  C   UNL     1       0.735  10.018  20.549  0.00  0.00    +0.000 C 
ATOM     16  O   UNL     1       1.243  10.679  21.456  0.00  0.00    +0.000 OA
ATOM     17  N   UNL     1      -0.476  10.421  19.977  0.00  0.00    +0.000 N 
ATOM     18  C   UNL     1      -1.120   9.857  18.784  0.00  0.00    +0.000 C 
ATOM     19  C   UNL     1      -1.484  10.962  17.782  0.00  0.00    +0.000 C 
ATOM     20  O   UNL     1      -2.255  12.002  18.398  0.00  0.00    +0.000 OA
ATOM     21  C   UNL     1      -1.523  12.596  19.483  0.00  0.00    +0.000 C 
ATOM     22  C   UNL     1      -1.203  11.553  20.557  0.00  0.00    +0.000 C 
ENDBRANCH  12  15
BRANCH   6  23
ATOM     23  O   UNL     1       5.849   4.213  15.818  0.00  0.00    +0.000 OA
ATOM     24  C   UNL     1       5.927   4.210  14.397  0.00  0.00    +0.000 C 
ENDBRANCH   6  23
BRANCH   1  25
ATOM     25  O   UNL     1       3.593   3.535  20.025  0.00  0.00    +0.000 OA
BRANCH  25  26
ATOM     26  C   UNL     1       2.957   2.266  19.823  0.00  0.00    +0.000 C 
BRANCH  26  28
ATOM     27  C   UNL     1       0.638   2.295  18.795  0.00  0.00    +0.000 C 
ATOM     28  C   UNL     1       2.136   2.231  18.539  0.00  0.00    +0.000 C 
ENDBRANCH  26  28
ENDBRANCH  25  26
ENDBRANCH   1  25
TORSDOF 5
ENDMDL
MODEL 5
REMARK VINA RESULT:      -7.8      2.101      8.505
REMARK  Name = 
REMARK  7 active torsions:
REMARK  status: ('A' for Active; 'I' for Inactive)
REMARK    1  A    between atoms: C_1  and  C_2
REMARK    2  A    between atoms: C_2  and  C_3
REMARK    3  A    between atoms: C_3  and  O_4
REMARK    4  A    between atoms: O_4  and  C_5
REMARK    5  A    between atoms: C_10  and  O_11
REMARK    6  A    between atoms: O_11  and  C_12
REMARK    7  A    between atoms: C_18  and  C_19
REMARK                            x       y       z     vdW  Elec       q    Type
REMARK                         _______ _______ _______ _____ _____    ______ ____
ROOT
ATOM      1  C   UNL     1       1.524  10.854  18.333  0.00  0.00    +0.000 C 
ATOM      2  O   UNL     1       2.210  10.542  17.370  0.00  0.00    +0.000 OA
ATOM      3  N   UNL     1       1.255   9.934  19.359  0.00  0.00    +0.000 N 
ATOM      4  C   UNL     1       0.534  10.078  20.565  0.00  0.00    +0.000 A 
ATOM      5  C   UNL     1      -0.224  11.151  21.077  0.00  0.00    +0.000 A 
ATOM      6  C   UNL     1      -0.838  11.036  22.333  0.00  0.00    +0.000 A 
ATOM      7  C   UNL     1      -0.690   9.875  23.085  0.00  0.00    +0.000 A 
ATOM      8  C   UNL     1       0.060   8.800  22.594  0.00  0.00    +0.000 A 
ATOM      9  C   UNL     1       0.659   8.903  21.329  0.00  0.00    +0.000 A 
ATOM     10  C   UNL     1       1.440   8.061  20.527  0.00  0.00    +0.000 A 
ATOM     11  O   UNL     1       1.955   6.807  20.606  0.00  0.00    +0.000 OA
ATOM     12  C   UNL     1       2.720   6.661  19.473  0.00  0.00    +0.000 A 
ATOM     13  C   UNL     1       2.596   7.759  18.638  0.00  0.00    +0.000 A 
ATOM     14  C   UNL     1       1.789   8.654  19.375  0.00  0.00    +0.000 A 
ENDROOT
BRANCH  12  15
ATOM     15  C   UNL     1       3.479   5.436  19.252  0.00  0.00    +0.000 C 
ATOM     16  O   UNL     1       4.646   5.348  19.639  0.00  0.00    +0.000 OA
ATOM     17  N   UNL     1       2.854   4.343  18.644  0.00  0.00    +0.000 N 
ATOM     18  C   UNL     1       1.433   4.222  18.293  0.00  0.00    +0.000 C 
ATOM     19  C   UNL     1       0.840   2.918  18.847  0.00  0.00    +0.000 C 
ATOM     20  O   UNL     1       1.615   1.776  18.458  0.00  0.00    +0.000 OA
ATOM     21  C   UNL     1       2.965   1.899  18.934  0.00  0.00    +0.000 C 
ATOM     22  C   UNL     1       3.638   3.142  18.345  0.00  0.00    +0.000 C 
ENDBRANCH  12  15
BRANCH   6  23
ATOM     23  O   UNL     1      -1.552  12.145  22.705  0.00  0.00    +0.000 OA
ATOM     24  C   UNL     1      -2.739  11.930  23.458  0.00  0.00    +0.000 C 
ENDBRANCH   6  23
BRANCH   1  25
ATOM     25  O   UNL     1       1.035  12.078  18.636  0.00  0.00    +0.000 OA
BRANCH  25  26
ATOM     26  C   UNL     1       1.843  13.190  18.226  0.00  0.00    +0.000 C 
BRANCH  26  28
ATOM     27  C   UNL     1       2.527  13.569  20.639  0.00  0.00    +0.000 C 
ATOM     28  C   UNL     1       2.039  14.204  19.346  0.00  0.00    +0.000 C 
ENDBRANCH  26  28
ENDBRANCH  25  26
ENDBRANCH   1  25
TORSDOF 5
ENDMDL
MODEL 6
REMARK VINA RESULT:      -7.7      1.657      4.095
REMARK  Name = 
REMARK  7 active torsions:
REMARK  status: ('A' for Active; 'I' for Inactive)
REMARK    1  A    between atoms: C_1  and  C_2
REMARK    2  A    between atoms: C_2  and  C_3
REMARK    3  A    between atoms: C_3  and  O_4
REMARK    4  A    between atoms: O_4  and  C_5
REMARK    5  A    between atoms: C_10  and  O_11
REMARK    6  A    between atoms: O_11  and  C_12
REMARK    7  A    between atoms: C_18  and  C_19
REMARK                            x       y       z     vdW  Elec       q    Type
REMARK                         _______ _______ _______ _____ _____    ______ ____
ROOT
ATOM      1  C   UNL     1       3.690   6.654  17.704  0.00  0.00    +0.000 C 
ATOM      2  O   UNL     1       3.834   7.836  17.431  0.00  0.00    +0.000 OA
ATOM      3  N   UNL     1       2.937   6.255  18.821  0.00  0.00    +0.000 N 
ATOM      4  C   UNL     1       2.607   4.970  19.303  0.00  0.00    +0.000 A 
ATOM      5  C   UNL     1       3.005   3.684  18.881  0.00  0.00    +0.000 A 
ATOM      6  C   UNL     1       2.509   2.548  19.538  0.00  0.00    +0.000 A 
ATOM      7  C   UNL     1       1.612   2.681  20.594  0.00  0.00    +0.000 A 
ATOM      8  C   UNL     1       1.204   3.950  21.025  0.00  0.00    +0.000 A 
ATOM      9  C   UNL     1       1.715   5.089  20.384  0.00  0.00    +0.000 A 
ATOM     10  C   UNL     1       1.559   6.472  20.541  0.00  0.00    +0.000 A 
ATOM     11  O   UNL     1       0.867   7.310  21.355  0.00  0.00    +0.000 OA
ATOM     12  C   UNL     1       1.115   8.571  20.868  0.00  0.00    +0.000 A 
ATOM     13  C   UNL     1       2.039   8.539  19.837  0.00  0.00    +0.000 A 
ATOM     14  C   UNL     1       2.271   7.159  19.635  0.00  0.00    +0.000 A 
ENDROOT
BRANCH  12  15
ATOM     15  C   UNL     1       0.477   9.732  21.476  0.00  0.00    +0.000 C 
ATOM     16  O   UNL     1       0.809  10.105  22.603  0.00  0.00    +0.000 OA
ATOM     17  N   UNL     1      -0.476  10.450  20.748  0.00  0.00    +0.000 N 
ATOM     18  C   UNL     1      -0.848  10.250  19.341  0.00  0.00    +0.000 C 
ATOM     19  C   UNL     1      -0.788  11.572  18.564  0.00  0.00    +0.000 C 
ATOM     20  O   UNL     1      -1.554  12.600  19.207  0.00  0.00    +0.000 OA
ATOM     21  C   UNL     1      -1.065  12.833  20.537  0.00  0.00    +0.000 C 
ATOM     22  C   UNL     1      -1.178  11.565  21.388  0.00  0.00    +0.000 C 
ENDBRANCH  12  15
BRANCH   6  23
ATOM     23  O   UNL     1       2.984   1.365  19.036  0.00  0.00    +0.000 OA
ATOM     24  C   UNL     1       3.838   1.439  17.901  0.00  0.00    +0.000 C 
ENDBRANCH   6  23
BRANCH   1  25
ATOM     25  O   UNL     1       4.088   5.584  16.979  0.00  0.00    +0.000 OA
BRANCH  25  26
ATOM     26  C   UNL     1       5.340   5.729  16.293  0.00  0.00    +0.000 C 
BRANCH  26  28
ATOM     27  C   UNL     1       5.960   4.156  14.402  0.00  0.00    +0.000 C 
ATOM     28  C   UNL     1       5.943   4.384  15.906  0.00  0.00    +0.000 C 
ENDBRANCH  26  28
ENDBRANCH  25  26
ENDBRANCH   1  25
TORSDOF 5
ENDMDL
MODEL 7
REMARK VINA RESULT:      -7.7      2.052      8.343
REMARK  Name = 
REMARK  7 active torsions:
REMARK  status: ('A' for Active; 'I' for Inactive)
REMARK    1  A    between atoms: C_1  and  C_2
REMARK    2  A    between atoms: C_2  and  C_3
REMARK    3  A    between atoms: C_3  and  O_4
REMARK    4  A    between atoms: O_4  and  C_5
REMARK    5  A    between atoms: C_10  and  O_11
REMARK    6  A    between atoms: O_11  and  C_12
REMARK    7  A    between atoms: C_18  and  C_19
REMARK                            x       y       z     vdW  Elec       q    Type
REMARK                         _______ _______ _______ _____ _____    ______ ____
ROOT
ATOM      1  C   UNL     1       1.349  10.947  18.527  0.00  0.00    +0.000 C 
ATOM      2  O   UNL     1       1.997  10.698  17.520  0.00  0.00    +0.000 OA
ATOM      3  N   UNL     1       1.154   9.975  19.521  0.00  0.00    +0.000 N 
ATOM      4  C   UNL     1       0.486  10.044  20.764  0.00  0.00    +0.000 A 
ATOM      5  C   UNL     1      -0.276  11.070  21.358  0.00  0.00    +0.000 A 
ATOM      6  C   UNL     1      -0.828  10.883  22.634  0.00  0.00    +0.000 A 
ATOM      7  C   UNL     1      -0.613   9.694  23.325  0.00  0.00    +0.000 A 
ATOM      8  C   UNL     1       0.143   8.664  22.752  0.00  0.00    +0.000 A 
ATOM      9  C   UNL     1       0.679   8.840  21.467  0.00  0.00    +0.000 A 
ATOM     10  C   UNL     1       1.445   8.059  20.593  0.00  0.00    +0.000 A 
ATOM     11  O   UNL     1       1.998   6.819  20.591  0.00  0.00    +0.000 OA
ATOM     12  C   UNL     1       2.713   6.745  19.420  0.00  0.00    +0.000 A 
ATOM     13  C   UNL     1       2.520   7.874  18.642  0.00  0.00    +0.000 A 
ATOM     14  C   UNL     1       1.723   8.712  19.455  0.00  0.00    +0.000 A 
ENDROOT
BRANCH  12  15
ATOM     15  C   UNL     1       3.494   5.554  19.109  0.00  0.00    +0.000 C 
ATOM     16  O   UNL     1       4.684   5.491  19.423  0.00  0.00    +0.000 OA
ATOM     17  N   UNL     1       2.867   4.464  18.498  0.00  0.00    +0.000 N 
ATOM     18  C   UNL     1       1.432   4.309  18.226  0.00  0.00    +0.000 C 
ATOM     19  C   UNL     1       0.913   2.968  18.764  0.00  0.00    +0.000 C 
ATOM     20  O   UNL     1       1.698   1.866  18.288  0.00  0.00    +0.000 OA
ATOM     21  C   UNL     1       3.069   2.016  18.688  0.00  0.00    +0.000 C 
ATOM     22  C   UNL     1       3.668   3.301  18.109  0.00  0.00    +0.000 C 
ENDBRANCH  12  15
BRANCH   6  23
ATOM     23  O   UNL     1      -1.554  11.952  23.088  0.00  0.00    +0.000 OA
ATOM     24  C   UNL     1      -2.613  12.415  22.259  0.00  0.00    +0.000 C 
ENDBRANCH   6  23
BRANCH   1  25
ATOM     25  O   UNL     1       0.841  12.142  18.907  0.00  0.00    +0.000 OA
BRANCH  25  26
ATOM     26  C   UNL     1      -0.155  12.698  18.039  0.00  0.00    +0.000 C 
BRANCH  26  28
ATOM     27  C   UNL     1      -2.141  11.267  17.375  0.00  0.00    +0.000 C 
ATOM     28  C   UNL     1      -1.560  12.228  18.399  0.00  0.00    +0.000 C 
ENDBRANCH  26  28
ENDBRANCH  25  26
ENDBRANCH   1  25
TORSDOF 5
ENDMDL
MODEL 8
REMARK VINA RESULT:      -7.6      1.784      4.219
REMARK  Name = 
REMARK  7 active torsions:
REMARK  status: ('A' for Active; 'I' for Inactive)
REMARK    1  A    between atoms: C_1  and  C_2
REMARK    2  A    between atoms: C_2  and  C_3
REMARK    3  A    between atoms: C_3  and  O_4
REMARK    4  A    between atoms: O_4  and  C_5
REMARK    5  A    between atoms: C_10  and  O_11
REMARK    6  A    between atoms: O_11  and  C_12
REMARK    7  A    between atoms: C_18  and  C_19
REMARK                            x       y       z     vdW  Elec       q    Type
REMARK                         _______ _______ _______ _____ _____    ______ ____
ROOT
ATOM      1  C   UNL     1       3.641   6.940  17.681  0.00  0.00    +0.000 C 
ATOM      2  O   UNL     1       3.662   8.117  17.352  0.00  0.00    +0.000 OA
ATOM      3  N   UNL     1       2.968   6.524  18.842  0.00  0.00    +0.000 N 
ATOM      4  C   UNL     1       2.779   5.237  19.391  0.00  0.00    +0.000 A 
ATOM      5  C   UNL     1       3.283   3.976  19.009  0.00  0.00    +0.000 A 
ATOM      6  C   UNL     1       2.921   2.830  19.733  0.00  0.00    +0.000 A 
ATOM      7  C   UNL     1       2.052   2.927  20.815  0.00  0.00    +0.000 A 
ATOM      8  C   UNL     1       1.540   4.171  21.208  0.00  0.00    +0.000 A 
ATOM      9  C   UNL     1       1.917   5.322  20.499  0.00  0.00    +0.000 A 
ATOM     10  C   UNL     1       1.635   6.690  20.603  0.00  0.00    +0.000 A 
ATOM     11  O   UNL     1       0.895   7.496  21.406  0.00  0.00    +0.000 OA
ATOM     12  C   UNL     1       1.004   8.751  20.856  0.00  0.00    +0.000 A 
ATOM     13  C   UNL     1       1.892   8.758  19.793  0.00  0.00    +0.000 A 
ATOM     14  C   UNL     1       2.247   7.398  19.641  0.00  0.00    +0.000 A 
ENDROOT
BRANCH  12  15
ATOM     15  C   UNL     1       0.280   9.874  21.438  0.00  0.00    +0.000 C 
ATOM     16  O   UNL     1       0.514  10.235  22.593  0.00  0.00    +0.000 OA
ATOM     17  N   UNL     1      -0.646  10.571  20.657  0.00  0.00    +0.000 N 
ATOM     18  C   UNL     1      -0.908  10.387  19.223  0.00  0.00    +0.000 C 
ATOM     19  C   UNL     1      -0.844  11.727  18.477  0.00  0.00    +0.000 C 
ATOM     20  O   UNL     1      -1.693  12.712  19.082  0.00  0.00    +0.000 OA
ATOM     21  C   UNL     1      -1.310  12.934  20.448  0.00  0.00    +0.000 C 
ATOM     22  C   UNL     1      -1.435  11.645  21.265  0.00  0.00    +0.000 C 
ENDBRANCH  12  15
BRANCH   6  23
ATOM     23  O   UNL     1       3.489   1.675  19.264  0.00  0.00    +0.000 OA
ATOM     24  C   UNL     1       3.728   1.592  17.864  0.00  0.00    +0.000 C 
ENDBRANCH   6  23
BRANCH   1  25
ATOM     25  O   UNL     1       4.115   5.880  16.987  0.00  0.00    +0.000 OA
BRANCH  25  26
ATOM     26  C   UNL     1       5.432   6.033  16.441  0.00  0.00    +0.000 C 
BRANCH  26  28
ATOM     27  C   UNL     1       7.435   7.191  17.482  0.00  0.00    +0.000 C 
ATOM     28  C   UNL     1       6.510   5.984  17.517  0.00  0.00    +0.000 C 
ENDBRANCH  26  28
ENDBRANCH  25  26
ENDBRANCH   1  25
TORSDOF 5
ENDMDL
MODEL 9
REMARK VINA RESULT:      -7.6      2.289      4.256
REMARK  Name = 
REMARK  7 active torsions:
REMARK  status: ('A' for Active; 'I' for Inactive)
REMARK    1  A    between atoms: C_1  and  C_2
REMARK    2  A    between atoms: C_2  and  C_3
REMARK    3  A    between atoms: C_3  and  O_4
REMARK    4  A    between atoms: O_4  and  C_5
REMARK    5  A    between atoms: C_10  and  O_11
REMARK    6  A    between atoms: O_11  and  C_12
REMARK    7  A    between atoms: C_18  and  C_19
REMARK                            x       y       z     vdW  Elec       q    Type
REMARK                         _______ _______ _______ _____ _____    ______ ____
ROOT
ATOM      1  C   UNL     1       4.692   6.306  16.554  0.00  0.00    +0.000 C 
ATOM      2  O   UNL     1       4.869   7.274  15.829  0.00  0.00    +0.000 OA
ATOM      3  N   UNL     1       3.873   6.394  17.692  0.00  0.00    +0.000 N 
ATOM      4  C   UNL     1       3.497   5.417  18.639  0.00  0.00    +0.000 A 
ATOM      5  C   UNL     1       3.897   4.074  18.804  0.00  0.00    +0.000 A 
ATOM      6  C   UNL     1       3.348   3.303  19.839  0.00  0.00    +0.000 A 
ATOM      7  C   UNL     1       2.397   3.850  20.695  0.00  0.00    +0.000 A 
ATOM      8  C   UNL     1       1.986   5.181  20.546  0.00  0.00    +0.000 A 
ATOM      9  C   UNL     1       2.549   5.962  19.524  0.00  0.00    +0.000 A 
ATOM     10  C   UNL     1       2.407   7.286  19.091  0.00  0.00    +0.000 A 
ATOM     11  O   UNL     1       1.684   8.378  19.451  0.00  0.00    +0.000 OA
ATOM     12  C   UNL     1       1.979   9.331  18.505  0.00  0.00    +0.000 A 
ATOM     13  C   UNL     1       2.957   8.886  17.631  0.00  0.00    +0.000 A 
ATOM     14  C   UNL     1       3.178   7.547  18.025  0.00  0.00    +0.000 A 
ENDROOT
BRANCH  12  15
ATOM     15  C   UNL     1       1.327  10.634  18.547  0.00  0.00    +0.000 C 
ATOM     16  O   UNL     1       1.992  11.666  18.445  0.00  0.00    +0.000 OA
ATOM     17  N   UNL     1      -0.066  10.701  18.651  0.00  0.00    +0.000 N 
ATOM     18  C   UNL     1      -1.010   9.577  18.599  0.00  0.00    +0.000 C 
ATOM     19  C   UNL     1      -2.121   9.841  17.573  0.00  0.00    +0.000 C 
ATOM     20  O   UNL     1      -2.762  11.104  17.799  0.00  0.00    +0.000 OA
ATOM     21  C   UNL     1      -1.807  12.173  17.718  0.00  0.00    +0.000 C 
ATOM     22  C   UNL     1      -0.715  12.008  18.779  0.00  0.00    +0.000 C 
ENDBRANCH  12  15
BRANCH   6  23
ATOM     23  O   UNL     1       3.831   2.022  19.893  0.00  0.00    +0.000 OA
ATOM     24  C   UNL     1       3.731   1.241  18.709  0.00  0.00    +0.000 C 
ENDBRANCH   6  23
BRANCH   1  25
ATOM     25  O   UNL     1       5.113   5.037  16.354  0.00  0.00    +0.000 OA
BRANCH  25  26
ATOM     26  C   UNL     1       6.515   4.879  16.097  0.00  0.00    +0.000 C 
BRANCH  26  28
ATOM     27  C   UNL     1       7.551   5.806  18.219  0.00  0.00    +0.000 C 
ATOM     28  C   UNL     1       7.301   4.572  17.366  0.00  0.00    +0.000 C 
ENDBRANCH  26  28
ENDBRANCH  25  26
ENDBRANCH   1  25
TORSDOF 5
ENDMDL
