MODEL 1
REMARK VINA RESULT:      -9.1      0.000      0.000
REMARK  Name = 
REMARK  6 active torsions:
REMARK  status: ('A' for Active; 'I' for Inactive)
REMARK    1  A    between atoms: C_2  and  C_17
REMARK    2  A    between atoms: N_3  and  C_4
REMARK    3  A    between atoms: C_8  and  O_9
REMARK    4  A    between atoms: O_9  and  C_10
REMARK    5  A    between atoms: C_17  and  C_18
REMARK    6  A    between atoms: C_17  and  C_24
REMARK                            x       y       z     vdW  Elec       q    Type
REMARK                         _______ _______ _______ _____ _____    ______ ____
ROOT
ATOM      1  O   UNL     1       2.823   7.133  19.489  0.00  0.00    +0.000 OA
ATOM      2  C   UNL     1       2.986   7.168  18.264  0.00  0.00    +0.000 C 
ATOM      3  N   UNL     1       2.532   8.190  17.436  0.00  0.00    +0.000 N 
ATOM      4  H   UNL     1       2.579   8.042  16.436  0.00  0.00    +0.000 HD
ENDROOT
BRANCH   3   5
ATOM      5  C   UNL     1       1.863   9.360  17.864  0.00  0.00    +0.000 A 
ATOM      6  C   UNL     1       2.515  10.582  18.059  0.00  0.00    +0.000 A 
ATOM      7  C   UNL     1       1.820  11.702  18.526  0.00  0.00    +0.000 A 
ATOM      8  C   UNL     1       0.465  11.604  18.821  0.00  0.00    +0.000 A 
ATOM      9  C   UNL     1      -0.199  10.392  18.638  0.00  0.00    +0.000 A 
ATOM     10  C   UNL     1       0.489   9.289  18.110  0.00  0.00    +0.000 A 
BRANCH   9  11
ATOM     11  O   UNL     1      -1.543  10.381  18.941  0.00  0.00    +0.000 OA
BRANCH  11  12
ATOM     12  C   UNL     1      -2.449  10.589  17.911  0.00  0.00    +0.000 A 
ATOM     13  C   UNL     1      -3.551  11.386  18.184  0.00  0.00    +0.000 A 
ATOM     14  N   UNL     1      -4.477  11.698  17.242  0.00  0.00    +0.000 NA
ATOM     15  C   UNL     1      -4.255  11.161  16.020  0.00  0.00    +0.000 A 
ATOM     16  C   UNL     1      -3.174  10.340  15.755  0.00  0.00    +0.000 A 
ATOM     17  N   UNL     1      -2.253  10.029  16.693  0.00  0.00    +0.000 NA
ENDBRANCH  11  12
ENDBRANCH   9  11
ENDBRANCH   3   5
BRANCH   2  18
ATOM     18  C   UNL     1       3.735   6.031  17.523  0.00  0.00    +0.000 C 
BRANCH  18  19
ATOM     19  C   UNL     1       5.218   6.124  17.886  0.00  0.00    +0.000 A 
ATOM     20  C   UNL     1       5.737   5.426  18.991  0.00  0.00    +0.000 A 
ATOM     21  C   UNL     1       7.069   5.587  19.373  0.00  0.00    +0.000 A 
ATOM     22  C   UNL     1       7.902   6.437  18.651  0.00  0.00    +0.000 A 
ATOM     23  C   UNL     1       7.414   7.101  17.527  0.00  0.00    +0.000 A 
ATOM     24  C   UNL     1       6.081   6.941  17.140  0.00  0.00    +0.000 A 
ENDBRANCH  18  19
BRANCH  18  25
ATOM     25  C   UNL     1       3.089   4.650  17.723  0.00  0.00    +0.000 A 
ATOM     26  C   UNL     1       3.833   3.474  17.504  0.00  0.00    +0.000 A 
ATOM     27  C   UNL     1       3.284   2.211  17.745  0.00  0.00    +0.000 A 
ATOM     28  C   UNL     1       1.983   2.098  18.224  0.00  0.00    +0.000 A 
ATOM     29  C   UNL     1       1.232   3.244  18.457  0.00  0.00    +0.000 A 
ATOM     30  C   UNL     1       1.781   4.507  18.219  0.00  0.00    +0.000 A 
ENDBRANCH  18  25
ENDBRANCH   2  18
TORSDOF 6
ENDMDL
MODEL 2
REMARK VINA RESULT:      -9.1      0.918      1.561
REMARK  Name = 
REMARK  6 active torsions:
REMARK  status: ('A' for Active; 'I' for Inactive)
REMARK    1  A    between atoms: C_2  and  C_17
REMARK    2  A    between atoms: N_3  and  C_4
REMARK    3  A    between atoms: C_8  and  O_9
REMARK    4  A    between atoms: O_9  and  C_10
REMARK    5  A    between atoms: C_17  and  C_18
REMARK    6  A    between atoms: C_17  and  C_24
REMARK                            x       y       z     vdW  Elec       q    Type
REMARK                         _______ _______ _______ _____ _____    ______ ____
ROOT
ATOM      1  O   UNL     1       2.286   7.614  19.894  0.00  0.00    +0.000 OA
ATOM      2  C   UNL     1       2.381   7.479  18.670  0.00  0.00    +0.000 C 
ATOM      3  N   UNL     1       2.030   8.452  17.738  0.00  0.00    +0.000 N 
ATOM      4  H   UNL     1       1.998   8.181  16.763  0.00  0.00    +0.000 HD
ENDROOT
BRANCH   3   5
ATOM      5  C   UNL     1       1.563   9.751  18.042  0.00  0.00    +0.000 A 
ATOM      6  C   UNL     1       2.380  10.885  17.997  0.00  0.00    +0.000 A 
ATOM      7  C   UNL     1       1.884  12.144  18.349  0.00  0.00    +0.000 A 
ATOM      8  C   UNL     1       0.566  12.278  18.769  0.00  0.00    +0.000 A 
ATOM      9  C   UNL     1      -0.262  11.156  18.826  0.00  0.00    +0.000 A 
ATOM     10  C   UNL     1       0.224   9.906  18.412  0.00  0.00    +0.000 A 
BRANCH   9  11
ATOM     11  O   UNL     1      -1.557  11.374  19.240  0.00  0.00    +0.000 OA
BRANCH  11  12
ATOM     12  C   UNL     1      -2.559  11.383  18.281  0.00  0.00    +0.000 A 
ATOM     13  C   UNL     1      -3.831  11.757  18.691  0.00  0.00    +0.000 A 
ATOM     14  N   UNL     1      -4.877  11.848  17.831  0.00  0.00    +0.000 NA
ATOM     15  C   UNL     1      -4.594  11.531  16.547  0.00  0.00    +0.000 A 
ATOM     16  C   UNL     1      -3.334  11.126  16.143  0.00  0.00    +0.000 A 
ATOM     17  N   UNL     1      -2.293  11.035  16.998  0.00  0.00    +0.000 NA
ENDBRANCH  11  12
ENDBRANCH   9  11
ENDBRANCH   3   5
BRANCH   2  18
ATOM     18  C   UNL     1       2.915   6.163  18.047  0.00  0.00    +0.000 C 
BRANCH  18  19
ATOM     19  C   UNL     1       4.443   6.185  18.127  0.00  0.00    +0.000 A 
ATOM     20  C   UNL     1       5.205   6.919  17.200  0.00  0.00    +0.000 A 
ATOM     21  C   UNL     1       6.598   6.861  17.221  0.00  0.00    +0.000 A 
ATOM     22  C   UNL     1       7.248   6.080  18.171  0.00  0.00    +0.000 A 
ATOM     23  C   UNL     1       6.508   5.382  19.125  0.00  0.00    +0.000 A 
ATOM     24  C   UNL     1       5.112   5.439  19.109  0.00  0.00    +0.000 A 
ENDBRANCH  18  19
BRANCH  18  25
ATOM     25  C   UNL     1       2.240   4.905  18.620  0.00  0.00    +0.000 A 
ATOM     26  C   UNL     1       1.741   4.897  19.937  0.00  0.00    +0.000 A 
ATOM     27  C   UNL     1       1.067   3.786  20.452  0.00  0.00    +0.000 A 
ATOM     28  C   UNL     1       0.864   2.664  19.655  0.00  0.00    +0.000 A 
ATOM     29  C   UNL     1       1.339   2.652  18.347  0.00  0.00    +0.000 A 
ATOM     30  C   UNL     1       2.011   3.763  17.832  0.00  0.00    +0.000 A 
ENDBRANCH  18  25
ENDBRANCH   2  18
TORSDOF 6
ENDMDL
MODEL 3
REMARK VINA RESULT:      -9.0      2.310      3.051
REMARK  Name = 
REMARK  6 active torsions:
REMARK  status: ('A' for Active; 'I' for Inactive)
REMARK    1  A    between atoms: C_2  and  C_17
REMARK    2  A    between atoms: N_3  and  C_4
REMARK    3  A    between atoms: C_8  and  O_9
REMARK    4  A    between atoms: O_9  and  C_10
REMARK    5  A    between atoms: C_17  and  C_18
REMARK    6  A    between atoms: C_17  and  C_24
REMARK                            x       y       z     vdW  Elec       q    Type
REMARK                         _______ _______ _______ _____ _____    ______ ____
ROOT
ATOM      1  O   UNL     1       2.481   7.628  19.906  0.00  0.00    +0.000 OA
ATOM      2  C   UNL     1       2.451   7.460  18.682  0.00  0.00    +0.000 C 
ATOM      3  N   UNL     1       2.021   8.415  17.765  0.00  0.00    +0.000 N 
ATOM      4  H   UNL     1       1.888   8.120  16.805  0.00  0.00    +0.000 HD
ENDROOT
BRANCH   3   5
ATOM      5  C   UNL     1       1.601   9.728  18.079  0.00  0.00    +0.000 A 
ATOM      6  C   UNL     1       2.427  10.847  17.935  0.00  0.00    +0.000 A 
ATOM      7  C   UNL     1       1.984  12.121  18.300  0.00  0.00    +0.000 A 
ATOM      8  C   UNL     1       0.710  12.286  18.834  0.00  0.00    +0.000 A 
ATOM      9  C   UNL     1      -0.125  11.180  18.990  0.00  0.00    +0.000 A 
ATOM     10  C   UNL     1       0.303   9.913  18.563  0.00  0.00    +0.000 A 
BRANCH   9  11
ATOM     11  O   UNL     1      -1.375  11.428  19.513  0.00  0.00    +0.000 OA
BRANCH  11  12
ATOM     12  C   UNL     1      -1.456  11.999  20.775  0.00  0.00    +0.000 A 
ATOM     13  C   UNL     1      -0.843  11.323  21.821  0.00  0.00    +0.000 A 
ATOM     14  N   UNL     1      -0.816  11.809  23.087  0.00  0.00    +0.000 NA
ATOM     15  C   UNL     1      -1.446  12.995  23.260  0.00  0.00    +0.000 A 
ATOM     16  C   UNL     1      -2.085  13.653  22.225  0.00  0.00    +0.000 A 
ATOM     17  N   UNL     1      -2.112  13.169  20.964  0.00  0.00    +0.000 NA
ENDBRANCH  11  12
ENDBRANCH   9  11
ENDBRANCH   3   5
BRANCH   2  18
ATOM     18  C   UNL     1       2.904   6.122  18.045  0.00  0.00    +0.000 C 
BRANCH  18  19
ATOM     19  C   UNL     1       4.434   6.078  18.068  0.00  0.00    +0.000 A 
ATOM     20  C   UNL     1       5.121   5.354  19.058  0.00  0.00    +0.000 A 
ATOM     21  C   UNL     1       6.513   5.393  19.130  0.00  0.00    +0.000 A 
ATOM     22  C   UNL     1       7.237   6.146  18.211  0.00  0.00    +0.000 A 
ATOM     23  C   UNL     1       6.572   6.834  17.197  0.00  0.00    +0.000 A 
ATOM     24  C   UNL     1       5.178   6.796  17.120  0.00  0.00    +0.000 A 
ENDBRANCH  18  19
BRANCH  18  25
ATOM     25  C   UNL     1       2.198   4.895  18.646  0.00  0.00    +0.000 A 
ATOM     26  C   UNL     1       1.782   4.897  19.992  0.00  0.00    +0.000 A 
ATOM     27  C   UNL     1       1.080   3.817  20.537  0.00  0.00    +0.000 A 
ATOM     28  C   UNL     1       0.767   2.719  19.744  0.00  0.00    +0.000 A 
ATOM     29  C   UNL     1       1.159   2.698  18.409  0.00  0.00    +0.000 A 
ATOM     30  C   UNL     1       1.858   3.777  17.863  0.00  0.00    +0.000 A 
ENDBRANCH  18  25
ENDBRANCH   2  18
TORSDOF 6
ENDMDL
MODEL 4
REMARK VINA RESULT:      -9.0      0.656      1.578
REMARK  Name = 
REMARK  6 active torsions:
REMARK  status: ('A' for Active; 'I' for Inactive)
REMARK    1  A    between atoms: C_2  and  C_17
REMARK    2  A    between atoms: N_3  and  C_4
REMARK    3  A    between atoms: C_8  and  O_9
REMARK    4  A    between atoms: O_9  and  C_10
REMARK    5  A    between atoms: C_17  and  C_18
REMARK    6  A    between atoms: C_17  and  C_24
REMARK                            x       y       z     vdW  Elec       q    Type
REMARK                         _______ _______ _______ _____ _____    ______ ____
ROOT
ATOM      1  O   UNL     1       2.473   7.257  19.670  0.00  0.00    +0.000 OA
ATOM      2  C   UNL     1       2.671   7.246  18.450  0.00  0.00    +0.000 C 
ATOM      3  N   UNL     1       2.305   8.271  17.582  0.00  0.00    +0.000 N 
ATOM      4  H   UNL     1       2.371   8.091  16.588  0.00  0.00    +0.000 HD
ENDROOT
BRANCH   3   5
ATOM      5  C   UNL     1       1.700   9.491  17.958  0.00  0.00    +0.000 A 
ATOM      6  C   UNL     1       2.412  10.689  18.084  0.00  0.00    +0.000 A 
ATOM      7  C   UNL     1       1.779  11.862  18.502  0.00  0.00    +0.000 A 
ATOM      8  C   UNL     1       0.425  11.845  18.819  0.00  0.00    +0.000 A 
ATOM      9  C   UNL     1      -0.299  10.659  18.706  0.00  0.00    +0.000 A 
ATOM     10  C   UNL     1       0.328   9.499  18.225  0.00  0.00    +0.000 A 
BRANCH   9  11
ATOM     11  O   UNL     1      -1.637  10.728  19.025  0.00  0.00    +0.000 OA
BRANCH  11  12
ATOM     12  C   UNL     1      -2.549  10.906  17.995  0.00  0.00    +0.000 A 
ATOM     13  C   UNL     1      -2.227  10.365  16.759  0.00  0.00    +0.000 A 
ATOM     14  N   UNL     1      -3.063  10.435  15.692  0.00  0.00    +0.000 NA
ATOM     15  C   UNL     1      -4.228  11.086  15.918  0.00  0.00    +0.000 A 
ATOM     16  C   UNL     1      -4.536  11.654  17.141  0.00  0.00    +0.000 A 
ATOM     17  N   UNL     1      -3.704  11.585  18.203  0.00  0.00    +0.000 NA
ENDBRANCH  11  12
ENDBRANCH   9  11
ENDBRANCH   3   5
BRANCH   2  18
ATOM     18  C   UNL     1       3.368   6.045  17.762  0.00  0.00    +0.000 C 
BRANCH  18  19
ATOM     19  C   UNL     1       4.871   6.150  18.028  0.00  0.00    +0.000 A 
ATOM     20  C   UNL     1       5.705   6.903  17.182  0.00  0.00    +0.000 A 
ATOM     21  C   UNL     1       7.085   6.921  17.375  0.00  0.00    +0.000 A 
ATOM     22  C   UNL     1       7.651   6.195  18.420  0.00  0.00    +0.000 A 
ATOM     23  C   UNL     1       6.834   5.480  19.294  0.00  0.00    +0.000 A 
ATOM     24  C   UNL     1       5.450   5.461  19.105  0.00  0.00    +0.000 A 
ENDBRANCH  18  19
BRANCH  18  25
ATOM     25  C   UNL     1       2.727   4.691  18.112  0.00  0.00    +0.000 A 
ATOM     26  C   UNL     1       1.762   4.599  19.133  0.00  0.00    +0.000 A 
ATOM     27  C   UNL     1       1.121   3.390  19.420  0.00  0.00    +0.000 A 
ATOM     28  C   UNL     1       1.421   2.251  18.682  0.00  0.00    +0.000 A 
ATOM     29  C   UNL     1       2.363   2.319  17.661  0.00  0.00    +0.000 A 
ATOM     30  C   UNL     1       3.003   3.527  17.372  0.00  0.00    +0.000 A 
ENDBRANCH  18  25
ENDBRANCH   2  18
TORSDOF 6
ENDMDL
MODEL 5
REMARK VINA RESULT:      -9.0      2.334      3.146
REMARK  Name = 
REMARK  6 active torsions:
REMARK  status: ('A' for Active; 'I' for Inactive)
REMARK    1  A    between atoms: C_2  and  C_17
REMARK    2  A    between atoms: N_3  and  C_4
REMARK    3  A    between atoms: C_8  and  O_9
REMARK    4  A    between atoms: O_9  and  C_10
REMARK    5  A    between atoms: C_17  and  C_18
REMARK    6  A    between atoms: C_17  and  C_24
REMARK                            x       y       z     vdW  Elec       q    Type
REMARK                         _______ _______ _______ _____ _____    ______ ____
ROOT
ATOM      1  O   UNL     1       2.332   7.710  19.924  0.00  0.00    +0.000 OA
ATOM      2  C   UNL     1       2.355   7.551  18.699  0.00  0.00    +0.000 C 
ATOM      3  N   UNL     1       1.990   8.521  17.770  0.00  0.00    +0.000 N 
ATOM      4  H   UNL     1       1.894   8.235  16.803  0.00  0.00    +0.000 HD
ENDROOT
BRANCH   3   5
ATOM      5  C   UNL     1       1.586   9.841  18.074  0.00  0.00    +0.000 A 
ATOM      6  C   UNL     1       2.429  10.948  17.929  0.00  0.00    +0.000 A 
ATOM      7  C   UNL     1       2.001  12.230  18.285  0.00  0.00    +0.000 A 
ATOM      8  C   UNL     1       0.726  12.415  18.808  0.00  0.00    +0.000 A 
ATOM      9  C   UNL     1      -0.125  11.322  18.965  0.00  0.00    +0.000 A 
ATOM     10  C   UNL     1       0.288  10.047  18.548  0.00  0.00    +0.000 A 
BRANCH   9  11
ATOM     11  O   UNL     1      -1.375  11.591  19.478  0.00  0.00    +0.000 OA
BRANCH  11  12
ATOM     12  C   UNL     1      -1.458  12.122  20.757  0.00  0.00    +0.000 A 
ATOM     13  C   UNL     1      -0.827  11.427  21.778  0.00  0.00    +0.000 A 
ATOM     14  N   UNL     1      -0.801  11.875  23.059  0.00  0.00    +0.000 NA
ATOM     15  C   UNL     1      -1.451  13.043  23.271  0.00  0.00    +0.000 A 
ATOM     16  C   UNL     1      -2.108  13.721  22.260  0.00  0.00    +0.000 A 
ATOM     17  N   UNL     1      -2.134  13.274  20.985  0.00  0.00    +0.000 NA
ENDBRANCH  11  12
ENDBRANCH   9  11
ENDBRANCH   3   5
BRANCH   2  18
ATOM     18  C   UNL     1       2.806   6.206  18.074  0.00  0.00    +0.000 C 
BRANCH  18  19
ATOM     19  C   UNL     1       4.335   6.154  18.112  0.00  0.00    +0.000 A 
ATOM     20  C   UNL     1       5.105   6.818  17.140  0.00  0.00    +0.000 A 
ATOM     21  C   UNL     1       6.494   6.691  17.124  0.00  0.00    +0.000 A 
ATOM     22  C   UNL     1       7.132   5.909  18.082  0.00  0.00    +0.000 A 
ATOM     23  C   UNL     1       6.386   5.281  19.079  0.00  0.00    +0.000 A 
ATOM     24  C   UNL     1       4.995   5.407  19.099  0.00  0.00    +0.000 A 
ENDBRANCH  18  19
BRANCH  18  25
ATOM     25  C   UNL     1       2.087   4.987  18.676  0.00  0.00    +0.000 A 
ATOM     26  C   UNL     1       1.873   3.829  17.904  0.00  0.00    +0.000 A 
ATOM     27  C   UNL     1       1.281   2.688  18.453  0.00  0.00    +0.000 A 
ATOM     28  C   UNL     1       0.904   2.676  19.792  0.00  0.00    +0.000 A 
ATOM     29  C   UNL     1       1.114   3.804  20.578  0.00  0.00    +0.000 A 
ATOM     30  C   UNL     1       1.708   4.944  20.030  0.00  0.00    +0.000 A 
ENDBRANCH  18  25
ENDBRANCH   2  18
TORSDOF 6
ENDMDL
MODEL 6
REMARK VINA RESULT:      -8.9      1.772      3.977
REMARK  Name = 
REMARK  6 active torsions:
REMARK  status: ('A' for Active; 'I' for Inactive)
REMARK    1  A    between atoms: C_2  and  C_17
REMARK    2  A    between atoms: N_3  and  C_4
REMARK    3  A    between atoms: C_8  and  O_9
REMARK    4  A    between atoms: O_9  and  C_10
REMARK    5  A    between atoms: C_17  and  C_18
REMARK    6  A    between atoms: C_17  and  C_24
REMARK                            x       y       z     vdW  Elec       q    Type
REMARK                         _______ _______ _______ _____ _____    ______ ____
ROOT
ATOM      1  O   UNL     1       2.173   7.367  18.376  0.00  0.00    +0.000 OA
ATOM      2  C   UNL     1       2.525   6.902  19.464  0.00  0.00    +0.000 C 
ATOM      3  N   UNL     1       2.165   7.428  20.702  0.00  0.00    +0.000 N 
ATOM      4  H   UNL     1       2.636   7.066  21.522  0.00  0.00    +0.000 HD
ENDROOT
BRANCH   3   5
ATOM      5  C   UNL     1       1.311   8.535  20.908  0.00  0.00    +0.000 A 
ATOM      6  C   UNL     1       0.733   8.831  22.146  0.00  0.00    +0.000 A 
ATOM      7  C   UNL     1      -0.142   9.912  22.293  0.00  0.00    +0.000 A 
ATOM      8  C   UNL     1      -0.462  10.699  21.192  0.00  0.00    +0.000 A 
ATOM      9  C   UNL     1       0.101  10.415  19.948  0.00  0.00    +0.000 A 
ATOM     10  C   UNL     1       1.027   9.367  19.821  0.00  0.00    +0.000 A 
BRANCH   9  11
ATOM     11  O   UNL     1      -0.256  11.249  18.912  0.00  0.00    +0.000 OA
BRANCH  11  12
ATOM     12  C   UNL     1      -1.434  10.981  18.231  0.00  0.00    +0.000 A 
ATOM     13  C   UNL     1      -2.539  11.761  18.539  0.00  0.00    +0.000 A 
ATOM     14  N   UNL     1      -3.730  11.623  17.904  0.00  0.00    +0.000 NA
ATOM     15  C   UNL     1      -3.767  10.655  16.959  0.00  0.00    +0.000 A 
ATOM     16  C   UNL     1      -2.675   9.854  16.674  0.00  0.00    +0.000 A 
ATOM     17  N   UNL     1      -1.490   9.993  17.306  0.00  0.00    +0.000 NA
ENDBRANCH  11  12
ENDBRANCH   9  11
ENDBRANCH   3   5
BRANCH   2  18
ATOM     18  C   UNL     1       3.433   5.648  19.544  0.00  0.00    +0.000 C 
BRANCH  18  19
ATOM     19  C   UNL     1       2.583   4.423  19.201  0.00  0.00    +0.000 A 
ATOM     20  C   UNL     1       1.436   4.106  19.951  0.00  0.00    +0.000 A 
ATOM     21  C   UNL     1       0.718   2.939  19.694  0.00  0.00    +0.000 A 
ATOM     22  C   UNL     1       1.129   2.078  18.680  0.00  0.00    +0.000 A 
ATOM     23  C   UNL     1       2.238   2.401  17.899  0.00  0.00    +0.000 A 
ATOM     24  C   UNL     1       2.959   3.570  18.152  0.00  0.00    +0.000 A 
ENDBRANCH  18  19
BRANCH  18  25
ATOM     25  C   UNL     1       4.738   5.793  18.742  0.00  0.00    +0.000 A 
ATOM     26  C   UNL     1       4.748   6.474  17.509  0.00  0.00    +0.000 A 
ATOM     27  C   UNL     1       5.936   6.674  16.799  0.00  0.00    +0.000 A 
ATOM     28  C   UNL     1       7.141   6.208  17.315  0.00  0.00    +0.000 A 
ATOM     29  C   UNL     1       7.158   5.542  18.535  0.00  0.00    +0.000 A 
ATOM     30  C   UNL     1       5.972   5.344  19.246  0.00  0.00    +0.000 A 
ENDBRANCH  18  25
ENDBRANCH   2  18
TORSDOF 6
ENDMDL
MODEL 7
REMARK VINA RESULT:      -8.8      2.049      3.891
REMARK  Name = 
REMARK  6 active torsions:
REMARK  status: ('A' for Active; 'I' for Inactive)
REMARK    1  A    between atoms: C_2  and  C_17
REMARK    2  A    between atoms: N_3  and  C_4
REMARK    3  A    between atoms: C_8  and  O_9
REMARK    4  A    between atoms: O_9  and  C_10
REMARK    5  A    between atoms: C_17  and  C_18
REMARK    6  A    between atoms: C_17  and  C_24
REMARK                            x       y       z     vdW  Elec       q    Type
REMARK                         _______ _______ _______ _____ _____    ______ ____
ROOT
ATOM      1  O   UNL     1       2.001   7.664  18.222  0.00  0.00    +0.000 OA
ATOM      2  C   UNL     1       2.391   7.143  19.273  0.00  0.00    +0.000 C 
ATOM      3  N   UNL     1       2.077   7.607  20.548  0.00  0.00    +0.000 N 
ATOM      4  H   UNL     1       2.575   7.203  21.331  0.00  0.00    +0.000 HD
ENDROOT
BRANCH   3   5
ATOM      5  C   UNL     1       1.235   8.704  20.840  0.00  0.00    +0.000 A 
ATOM      6  C   UNL     1       0.773   8.987  22.129  0.00  0.00    +0.000 A 
ATOM      7  C   UNL     1      -0.095  10.058  22.363  0.00  0.00    +0.000 A 
ATOM      8  C   UNL     1      -0.526  10.847  21.302  0.00  0.00    +0.000 A 
ATOM      9  C   UNL     1      -0.080  10.575  20.009  0.00  0.00    +0.000 A 
ATOM     10  C   UNL     1       0.840   9.538  19.790  0.00  0.00    +0.000 A 
BRANCH   9  11
ATOM     11  O   UNL     1      -0.542  11.410  19.016  0.00  0.00    +0.000 OA
BRANCH  11  12
ATOM     12  C   UNL     1      -1.826  11.206  18.533  0.00  0.00    +0.000 A 
ATOM     13  C   UNL     1      -2.003  10.195  17.599  0.00  0.00    +0.000 A 
ATOM     14  N   UNL     1      -3.220   9.874  17.093  0.00  0.00    +0.000 NA
ATOM     15  C   UNL     1      -4.249  10.623  17.554  0.00  0.00    +0.000 A 
ATOM     16  C   UNL     1      -4.069  11.653  18.461  0.00  0.00    +0.000 A 
ATOM     17  N   UNL     1      -2.857  11.972  18.964  0.00  0.00    +0.000 NA
ENDBRANCH  11  12
ENDBRANCH   9  11
ENDBRANCH   3   5
BRANCH   2  18
ATOM     18  C   UNL     1       3.296   5.885  19.257  0.00  0.00    +0.000 C 
BRANCH  18  19
ATOM     19  C   UNL     1       2.474   4.701  19.769  0.00  0.00    +0.000 A 
ATOM     20  C   UNL     1       2.724   4.142  21.035  0.00  0.00    +0.000 A 
ATOM     21  C   UNL     1       2.036   3.005  21.460  0.00  0.00    +0.000 A 
ATOM     22  C   UNL     1       1.084   2.419  20.631  0.00  0.00    +0.000 A 
ATOM     23  C   UNL     1       0.793   2.988  19.392  0.00  0.00    +0.000 A 
ATOM     24  C   UNL     1       1.479   4.127  18.964  0.00  0.00    +0.000 A 
ENDBRANCH  18  19
BRANCH  18  25
ATOM     25  C   UNL     1       4.003   5.666  17.909  0.00  0.00    +0.000 A 
ATOM     26  C   UNL     1       4.593   6.747  17.225  0.00  0.00    +0.000 A 
ATOM     27  C   UNL     1       5.297   6.556  16.033  0.00  0.00    +0.000 A 
ATOM     28  C   UNL     1       5.439   5.276  15.505  0.00  0.00    +0.000 A 
ATOM     29  C   UNL     1       4.874   4.191  16.167  0.00  0.00    +0.000 A 
ATOM     30  C   UNL     1       4.172   4.382  17.360  0.00  0.00    +0.000 A 
ENDBRANCH  18  25
ENDBRANCH   2  18
TORSDOF 6
ENDMDL
MODEL 8
REMARK VINA RESULT:      -8.8      1.938      3.738
REMARK  Name = 
REMARK  6 active torsions:
REMARK  status: ('A' for Active; 'I' for Inactive)
REMARK    1  A    between atoms: C_2  and  C_17
REMARK    2  A    between atoms: N_3  and  C_4
REMARK    3  A    between atoms: C_8  and  O_9
REMARK    4  A    between atoms: O_9  and  C_10
REMARK    5  A    between atoms: C_17  and  C_18
REMARK    6  A    between atoms: C_17  and  C_24
REMARK                            x       y       z     vdW  Elec       q    Type
REMARK                         _______ _______ _______ _____ _____    ______ ____
ROOT
ATOM      1  O   UNL     1       2.022   7.519  18.091  0.00  0.00    +0.000 OA
ATOM      2  C   UNL     1       2.437   7.012  19.138  0.00  0.00    +0.000 C 
ATOM      3  N   UNL     1       2.148   7.486  20.415  0.00  0.00    +0.000 N 
ATOM      4  H   UNL     1       2.665   7.094  21.192  0.00  0.00    +0.000 HD
ENDROOT
BRANCH   3   5
ATOM      5  C   UNL     1       1.304   8.581  20.714  0.00  0.00    +0.000 A 
ATOM      6  C   UNL     1       0.803   8.829  21.995  0.00  0.00    +0.000 A 
ATOM      7  C   UNL     1      -0.064   9.899  22.235  0.00  0.00    +0.000 A 
ATOM      8  C   UNL     1      -0.455  10.723  21.185  0.00  0.00    +0.000 A 
ATOM      9  C   UNL     1       0.030  10.487  19.900  0.00  0.00    +0.000 A 
ATOM     10  C   UNL     1       0.950   9.450  19.677  0.00  0.00    +0.000 A 
BRANCH   9  11
ATOM     11  O   UNL     1      -0.394  11.355  18.918  0.00  0.00    +0.000 OA
BRANCH  11  12
ATOM     12  C   UNL     1      -1.550  11.041  18.220  0.00  0.00    +0.000 A 
ATOM     13  C   UNL     1      -2.693  11.768  18.519  0.00  0.00    +0.000 A 
ATOM     14  N   UNL     1      -3.868  11.581  17.867  0.00  0.00    +0.000 NA
ATOM     15  C   UNL     1      -3.849  10.621  16.913  0.00  0.00    +0.000 A 
ATOM     16  C   UNL     1      -2.719   9.874  16.636  0.00  0.00    +0.000 A 
ATOM     17  N   UNL     1      -1.549  10.060  17.285  0.00  0.00    +0.000 NA
ENDBRANCH  11  12
ENDBRANCH   9  11
ENDBRANCH   3   5
BRANCH   2  18
ATOM     18  C   UNL     1       3.351   5.760  19.116  0.00  0.00    +0.000 C 
BRANCH  18  19
ATOM     19  C   UNL     1       2.502   4.544  19.495  0.00  0.00    +0.000 A 
ATOM     20  C   UNL     1       2.667   3.907  20.738  0.00  0.00    +0.000 A 
ATOM     21  C   UNL     1       1.957   2.746  21.042  0.00  0.00    +0.000 A 
ATOM     22  C   UNL     1       1.068   2.211  20.114  0.00  0.00    +0.000 A 
ATOM     23  C   UNL     1       0.860   2.856  18.896  0.00  0.00    +0.000 A 
ATOM     24  C   UNL     1       1.568   4.021  18.589  0.00  0.00    +0.000 A 
ENDBRANCH  18  19
BRANCH  18  25
ATOM     25  C   UNL     1       4.158   5.623  17.814  0.00  0.00    +0.000 A 
ATOM     26  C   UNL     1       4.394   4.354  17.248  0.00  0.00    +0.000 A 
ATOM     27  C   UNL     1       5.068   4.215  16.031  0.00  0.00    +0.000 A 
ATOM     28  C   UNL     1       5.507   5.343  15.346  0.00  0.00    +0.000 A 
ATOM     29  C   UNL     1       5.277   6.607  15.879  0.00  0.00    +0.000 A 
ATOM     30  C   UNL     1       4.602   6.747  17.094  0.00  0.00    +0.000 A 
ENDBRANCH  18  25
ENDBRANCH   2  18
TORSDOF 6
ENDMDL
MODEL 9
REMARK VINA RESULT:      -8.7      1.900      4.155
REMARK  Name = 
REMARK  6 active torsions:
REMARK  status: ('A' for Active; 'I' for Inactive)
REMARK    1  A    between atoms: C_2  and  C_17
REMARK    2  A    between atoms: N_3  and  C_4
REMARK    3  A    between atoms: C_8  and  O_9
REMARK    4  A    between atoms: O_9  and  C_10
REMARK    5  A    between atoms: C_17  and  C_18
REMARK    6  A    between atoms: C_17  and  C_24
REMARK                            x       y       z     vdW  Elec       q    Type
REMARK                         _______ _______ _______ _____ _____    ______ ____
ROOT
ATOM      1  O   UNL     1       2.259   7.618  18.485  0.00  0.00    +0.000 OA
ATOM      2  C   UNL     1       2.521   7.094  19.573  0.00  0.00    +0.000 C 
ATOM      3  N   UNL     1       2.069   7.561  20.804  0.00  0.00    +0.000 N 
ATOM      4  H   UNL     1       2.470   7.152  21.639  0.00  0.00    +0.000 HD
ENDROOT
BRANCH   3   5
ATOM      5  C   UNL     1       1.210   8.667  21.000  0.00  0.00    +0.000 A 
ATOM      6  C   UNL     1       0.643   8.981  22.238  0.00  0.00    +0.000 A 
ATOM      7  C   UNL     1      -0.236  10.059  22.375  0.00  0.00    +0.000 A 
ATOM      8  C   UNL     1      -0.572  10.825  21.264  0.00  0.00    +0.000 A 
ATOM      9  C   UNL     1      -0.021  10.522  20.019  0.00  0.00    +0.000 A 
ATOM     10  C   UNL     1       0.910   9.478  19.901  0.00  0.00    +0.000 A 
BRANCH   9  11
ATOM     11  O   UNL     1      -0.394  11.335  18.972  0.00  0.00    +0.000 OA
BRANCH  11  12
ATOM     12  C   UNL     1      -1.637  11.130  18.393  0.00  0.00    +0.000 A 
ATOM     13  C   UNL     1      -1.741  10.118  17.449  0.00  0.00    +0.000 A 
ATOM     14  N   UNL     1      -2.917   9.795  16.853  0.00  0.00    +0.000 NA
ATOM     15  C   UNL     1      -3.978  10.544  17.234  0.00  0.00    +0.000 A 
ATOM     16  C   UNL     1      -3.869  11.574  18.150  0.00  0.00    +0.000 A 
ATOM     17  N   UNL     1      -2.699  11.895  18.744  0.00  0.00    +0.000 NA
ENDBRANCH  11  12
ENDBRANCH   9  11
ENDBRANCH   3   5
BRANCH   2  18
ATOM     18  C   UNL     1       3.409   5.827  19.659  0.00  0.00    +0.000 C 
BRANCH  18  19
ATOM     19  C   UNL     1       2.498   4.600  19.568  0.00  0.00    +0.000 A 
ATOM     20  C   UNL     1       2.109   4.079  18.321  0.00  0.00    +0.000 A 
ATOM     21  C   UNL     1       1.205   3.020  18.243  0.00  0.00    +0.000 A 
ATOM     22  C   UNL     1       0.687   2.461  19.407  0.00  0.00    +0.000 A 
ATOM     23  C   UNL     1       1.098   2.937  20.652  0.00  0.00    +0.000 A 
ATOM     24  C   UNL     1       2.004   3.996  20.734  0.00  0.00    +0.000 A 
ENDBRANCH  18  19
BRANCH  18  25
ATOM     25  C   UNL     1       4.590   5.847  18.674  0.00  0.00    +0.000 A 
ATOM     26  C   UNL     1       4.468   6.482  17.423  0.00  0.00    +0.000 A 
ATOM     27  C   UNL     1       5.551   6.569  16.543  0.00  0.00    +0.000 A 
ATOM     28  C   UNL     1       6.784   6.034  16.902  0.00  0.00    +0.000 A 
ATOM     29  C   UNL     1       6.933   5.412  18.136  0.00  0.00    +0.000 A 
ATOM     30  C   UNL     1       5.851   5.327  19.017  0.00  0.00    +0.000 A 
ENDBRANCH  18  25
ENDBRANCH   2  18
TORSDOF 6
ENDMDL
