MODEL 1
REMARK VINA RESULT:      -8.5      0.000      0.000
REMARK  Name = 
REMARK  5 active torsions:
REMARK  status: ('A' for Active; 'I' for Inactive)
REMARK    1  A    between atoms: C_1  and  C_2
REMARK    2  A    between atoms: C_5  and  C_6
REMARK    3  A    between atoms: N_10  and  C_11
REMARK    4  A    between atoms: C_11  and  C_12
REMARK    5  A    between atoms: C_17  and  N_18
REMARK                            x       y       z     vdW  Elec       q    Type
REMARK                         _______ _______ _______ _____ _____    ______ ____
ROOT
ATOM      1  C   UNL     1       2.459   7.885  19.204  0.00  0.00    +0.000 C 
ATOM      2  C   UNL     1       2.667   7.335  17.800  0.00  0.00    +0.000 C 
ATOM      3  C   UNL     1       3.911   6.494  17.709  0.00  0.00    +0.000 C 
ATOM      4  O   UNL     1       4.950   6.999  17.272  0.00  0.00    +0.000 OA
ATOM      5  N   UNL     1       3.830   5.157  18.091  0.00  0.00    +0.000 N 
ATOM      6  C   UNL     1       2.650   4.570  18.658  0.00  0.00    +0.000 A 
ATOM      7  C   UNL     1       2.168   3.357  18.132  0.00  0.00    +0.000 A 
ATOM      8  C   UNL     1       1.019   2.747  18.644  0.00  0.00    +0.000 A 
ATOM      9  C   UNL     1       0.335   3.333  19.701  0.00  0.00    +0.000 A 
ATOM     10  C   UNL     1       0.791   4.537  20.236  0.00  0.00    +0.000 A 
ATOM     11  C   UNL     1       1.932   5.173  19.713  0.00  0.00    +0.000 A 
ATOM     12  S   UNL     1       2.457   6.655  20.566  0.00  0.00    +0.000 S 
ENDROOT
BRANCH   1  17
ATOM     13  C   UNL     1      -2.121  11.506  19.466  0.00  0.00    +0.000 C 
ATOM     14  C   UNL     1      -0.978  10.539  19.377  0.00  0.00    +0.000 A 
ATOM     15  C   UNL     1      -0.411  10.206  18.145  0.00  0.00    +0.000 A 
ATOM     16  C   UNL     1       0.672   9.327  18.079  0.00  0.00    +0.000 A 
ATOM     17  C   UNL     1       1.218   8.766  19.244  0.00  0.00    +0.000 A 
ATOM     18  C   UNL     1       0.629   9.088  20.477  0.00  0.00    +0.000 A 
ATOM     19  C   UNL     1      -0.456   9.967  20.542  0.00  0.00    +0.000 A 
ENDBRANCH   1  17
BRANCH   5  20
ATOM     20  C   UNL     1       5.012   4.309  17.846  0.00  0.00    +0.000 C 
BRANCH  20  21
ATOM     21  C   UNL     1       5.590   4.384  16.439  0.00  0.00    +0.000 A 
ATOM     22  C   UNL     1       4.865   3.981  15.306  0.00  0.00    +0.000 A 
ATOM     23  C   UNL     1       5.427   4.022  14.023  0.00  0.00    +0.000 A 
ATOM     24  C   UNL     1       6.727   4.482  13.831  0.00  0.00    +0.000 A 
ATOM     25  C   UNL     1       7.489   4.865  14.930  0.00  0.00    +0.000 A 
ATOM     26  C   UNL     1       6.924   4.781  16.211  0.00  0.00    +0.000 A 
BRANCH  26  27
ATOM     27  N   UNL     1       7.815   5.038  17.333  0.00  0.00    +0.000 N 
ATOM     28  O   UNL     1       8.409   4.064  17.806  0.00  0.00    +0.000 OA
ATOM     29  O   UNL     1       7.899   6.206  17.726  0.00  0.00    +0.000 OA
ENDBRANCH  26  27
ENDBRANCH  20  21
ENDBRANCH   5  20
TORSDOF 4
ENDMDL
MODEL 2
REMARK VINA RESULT:      -8.2      0.197      1.083
REMARK  Name = 
REMARK  5 active torsions:
REMARK  status: ('A' for Active; 'I' for Inactive)
REMARK    1  A    between atoms: C_1  and  C_2
REMARK    2  A    between atoms: C_5  and  C_6
REMARK    3  A    between atoms: N_10  and  C_11
REMARK    4  A    between atoms: C_11  and  C_12
REMARK    5  A    between atoms: C_17  and  N_18
REMARK                            x       y       z     vdW  Elec       q    Type
REMARK                         _______ _______ _______ _____ _____    ______ ____
ROOT
ATOM      1  C   UNL     1       2.478   8.029  19.098  0.00  0.00    +0.000 C 
ATOM      2  C   UNL     1       2.679   7.425  17.715  0.00  0.00    +0.000 C 
ATOM      3  C   UNL     1       3.918   6.575  17.652  0.00  0.00    +0.000 C 
ATOM      4  O   UNL     1       4.958   7.059  17.193  0.00  0.00    +0.000 OA
ATOM      5  N   UNL     1       3.832   5.254  18.083  0.00  0.00    +0.000 N 
ATOM      6  C   UNL     1       2.652   4.695  18.675  0.00  0.00    +0.000 A 
ATOM      7  C   UNL     1       2.162   3.465  18.196  0.00  0.00    +0.000 A 
ATOM      8  C   UNL     1       1.012   2.881  18.734  0.00  0.00    +0.000 A 
ATOM      9  C   UNL     1       0.334   3.508  19.771  0.00  0.00    +0.000 A 
ATOM     10  C   UNL     1       0.798   4.729  20.259  0.00  0.00    +0.000 A 
ATOM     11  C   UNL     1       1.940   5.340  19.710  0.00  0.00    +0.000 A 
ATOM     12  S   UNL     1       2.475   6.850  20.505  0.00  0.00    +0.000 S 
ENDROOT
BRANCH   1  17
ATOM     13  C   UNL     1      -2.443  11.181  19.050  0.00  0.00    +0.000 C 
ATOM     14  C   UNL     1      -1.154  10.416  19.082  0.00  0.00    +0.000 A 
ATOM     15  C   UNL     1      -0.590  10.005  20.293  0.00  0.00    +0.000 A 
ATOM     16  C   UNL     1       0.596   9.267  20.307  0.00  0.00    +0.000 A 
ATOM     17  C   UNL     1       1.241   8.916  19.110  0.00  0.00    +0.000 A 
ATOM     18  C   UNL     1       0.681   9.351  17.899  0.00  0.00    +0.000 A 
ATOM     19  C   UNL     1      -0.505  10.091  17.886  0.00  0.00    +0.000 A 
ENDBRANCH   1  17
BRANCH   5  20
ATOM     20  C   UNL     1       5.009   4.392  17.866  0.00  0.00    +0.000 C 
BRANCH  20  21
ATOM     21  C   UNL     1       5.590   4.421  16.458  0.00  0.00    +0.000 A 
ATOM     22  C   UNL     1       4.855   4.008  15.335  0.00  0.00    +0.000 A 
ATOM     23  C   UNL     1       5.418   4.005  14.051  0.00  0.00    +0.000 A 
ATOM     24  C   UNL     1       6.729   4.430  13.850  0.00  0.00    +0.000 A 
ATOM     25  C   UNL     1       7.499   4.820  14.940  0.00  0.00    +0.000 A 
ATOM     26  C   UNL     1       6.933   4.780  16.222  0.00  0.00    +0.000 A 
BRANCH  26  27
ATOM     27  N   UNL     1       7.829   5.043  17.338  0.00  0.00    +0.000 N 
ATOM     28  O   UNL     1       7.908   6.214  17.723  0.00  0.00    +0.000 OA
ATOM     29  O   UNL     1       8.442   4.078  17.805  0.00  0.00    +0.000 OA
ENDBRANCH  26  27
ENDBRANCH  20  21
ENDBRANCH   5  20
TORSDOF 4
ENDMDL
MODEL 3
REMARK VINA RESULT:      -8.1      4.460      9.301
REMARK  Name = 
REMARK  5 active torsions:
REMARK  status: ('A' for Active; 'I' for Inactive)
REMARK    1  A    between atoms: C_1  and  C_2
REMARK    2  A    between atoms: C_5  and  C_6
REMARK    3  A    between atoms: N_10  and  C_11
REMARK    4  A    between atoms: C_11  and  C_12
REMARK    5  A    between atoms: C_17  and  N_18
REMARK                            x       y       z     vdW  Elec       q    Type
REMARK                         _______ _______ _______ _____ _____    ______ ____
ROOT
ATOM      1  C   UNL     1       2.020   7.712  20.103  0.00  0.00    +0.000 C 
ATOM      2  C   UNL     1       0.985   8.074  21.159  0.00  0.00    +0.000 C 
ATOM      3  C   UNL     1       1.137   9.497  21.624  0.00  0.00    +0.000 C 
ATOM      4  O   UNL     1       1.753   9.726  22.670  0.00  0.00    +0.000 OA
ATOM      5  N   UNL     1       0.541  10.503  20.869  0.00  0.00    +0.000 N 
ATOM      6  C   UNL     1      -0.123  10.262  19.621  0.00  0.00    +0.000 A 
ATOM      7  C   UNL     1      -1.409  10.797  19.415  0.00  0.00    +0.000 A 
ATOM      8  C   UNL     1      -2.102  10.585  18.220  0.00  0.00    +0.000 A 
ATOM      9  C   UNL     1      -1.518   9.844  17.200  0.00  0.00    +0.000 A 
ATOM     10  C   UNL     1      -0.248   9.301  17.383  0.00  0.00    +0.000 A 
ATOM     11  C   UNL     1       0.450   9.485  18.590  0.00  0.00    +0.000 A 
ATOM     12  S   UNL     1       2.109   8.819  18.642  0.00  0.00    +0.000 S 
ENDROOT
BRANCH   1  17
ATOM     13  C   UNL     1       1.095   2.162  18.521  0.00  0.00    +0.000 C 
ATOM     14  C   UNL     1       1.385   3.577  18.923  0.00  0.00    +0.000 A 
ATOM     15  C   UNL     1       1.846   4.510  17.990  0.00  0.00    +0.000 A 
ATOM     16  C   UNL     1       2.086   5.832  18.371  0.00  0.00    +0.000 A 
ATOM     17  C   UNL     1       1.862   6.255  19.691  0.00  0.00    +0.000 A 
ATOM     18  C   UNL     1       1.420   5.307  20.627  0.00  0.00    +0.000 A 
ATOM     19  C   UNL     1       1.182   3.984  20.246  0.00  0.00    +0.000 A 
ENDBRANCH   1  17
BRANCH   5  20
ATOM     20  C   UNL     1       0.564  11.870  21.422  0.00  0.00    +0.000 C 
BRANCH  20  21
ATOM     21  C   UNL     1      -0.727  12.327  22.090  0.00  0.00    +0.000 A 
ATOM     22  C   UNL     1      -1.477  11.486  22.928  0.00  0.00    +0.000 A 
ATOM     23  C   UNL     1      -2.682  11.910  23.504  0.00  0.00    +0.000 A 
ATOM     24  C   UNL     1      -3.167  13.194  23.271  0.00  0.00    +0.000 A 
ATOM     25  C   UNL     1      -2.469  14.049  22.425  0.00  0.00    +0.000 A 
ATOM     26  C   UNL     1      -1.284  13.595  21.826  0.00  0.00    +0.000 A 
BRANCH  26  27
ATOM     27  N   UNL     1      -0.683  14.467  20.829  0.00  0.00    +0.000 N 
ATOM     28  O   UNL     1       0.140  15.293  21.236  0.00  0.00    +0.000 OA
ATOM     29  O   UNL     1      -1.049  14.318  19.659  0.00  0.00    +0.000 OA
ENDBRANCH  26  27
ENDBRANCH  20  21
ENDBRANCH   5  20
TORSDOF 4
ENDMDL
MODEL 4
REMARK VINA RESULT:      -8.0      4.395      9.387
REMARK  Name = 
REMARK  5 active torsions:
REMARK  status: ('A' for Active; 'I' for Inactive)
REMARK    1  A    between atoms: C_1  and  C_2
REMARK    2  A    between atoms: C_5  and  C_6
REMARK    3  A    between atoms: N_10  and  C_11
REMARK    4  A    between atoms: C_11  and  C_12
REMARK    5  A    between atoms: C_17  and  N_18
REMARK                            x       y       z     vdW  Elec       q    Type
REMARK                         _______ _______ _______ _____ _____    ______ ____
ROOT
ATOM      1  C   UNL     1       2.004   7.769  20.070  0.00  0.00    +0.000 C 
ATOM      2  C   UNL     1       0.972   8.105  21.137  0.00  0.00    +0.000 C 
ATOM      3  C   UNL     1       1.123   9.517  21.634  0.00  0.00    +0.000 C 
ATOM      4  O   UNL     1       1.742   9.724  22.683  0.00  0.00    +0.000 OA
ATOM      5  N   UNL     1       0.522  10.539  20.903  0.00  0.00    +0.000 N 
ATOM      6  C   UNL     1      -0.146  10.324  19.652  0.00  0.00    +0.000 A 
ATOM      7  C   UNL     1      -1.433  10.861  19.462  0.00  0.00    +0.000 A 
ATOM      8  C   UNL     1      -2.129  10.674  18.265  0.00  0.00    +0.000 A 
ATOM      9  C   UNL     1      -1.548   9.957  17.227  0.00  0.00    +0.000 A 
ATOM     10  C   UNL     1      -0.275   9.413  17.393  0.00  0.00    +0.000 A 
ATOM     11  C   UNL     1       0.426   9.572  18.603  0.00  0.00    +0.000 A 
ATOM     12  S   UNL     1       2.087   8.909  18.634  0.00  0.00    +0.000 S 
ENDROOT
BRANCH   1  17
ATOM     13  C   UNL     1       1.726   2.182  18.376  0.00  0.00    +0.000 C 
ATOM     14  C   UNL     1       1.743   3.617  18.811  0.00  0.00    +0.000 A 
ATOM     15  C   UNL     1       1.398   3.978  20.117  0.00  0.00    +0.000 A 
ATOM     16  C   UNL     1       1.446   5.314  20.518  0.00  0.00    +0.000 A 
ATOM     17  C   UNL     1       1.848   6.321  19.626  0.00  0.00    +0.000 A 
ATOM     18  C   UNL     1       2.172   5.954  18.310  0.00  0.00    +0.000 A 
ATOM     19  C   UNL     1       2.122   4.617  17.909  0.00  0.00    +0.000 A 
ENDBRANCH   1  17
BRANCH   5  20
ATOM     20  C   UNL     1       0.543  11.893  21.487  0.00  0.00    +0.000 C 
BRANCH  20  21
ATOM     21  C   UNL     1      -0.756  12.343  22.143  0.00  0.00    +0.000 A 
ATOM     22  C   UNL     1      -1.521  11.491  22.955  0.00  0.00    +0.000 A 
ATOM     23  C   UNL     1      -2.733  11.910  23.520  0.00  0.00    +0.000 A 
ATOM     24  C   UNL     1      -3.211  13.199  23.301  0.00  0.00    +0.000 A 
ATOM     25  C   UNL     1      -2.497  14.065  22.480  0.00  0.00    +0.000 A 
ATOM     26  C   UNL     1      -1.305  13.618  21.892  0.00  0.00    +0.000 A 
BRANCH  26  27
ATOM     27  N   UNL     1      -0.686  14.504  20.918  0.00  0.00    +0.000 N 
ATOM     28  O   UNL     1      -1.073  14.402  19.749  0.00  0.00    +0.000 OA
ATOM     29  O   UNL     1       0.179  15.280  21.335  0.00  0.00    +0.000 OA
ENDBRANCH  26  27
ENDBRANCH  20  21
ENDBRANCH   5  20
TORSDOF 4
ENDMDL
MODEL 5
REMARK VINA RESULT:      -7.9      4.538      8.757
REMARK  Name = 
REMARK  5 active torsions:
REMARK  status: ('A' for Active; 'I' for Inactive)
REMARK    1  A    between atoms: C_1  and  C_2
REMARK    2  A    between atoms: C_5  and  C_6
REMARK    3  A    between atoms: N_10  and  C_11
REMARK    4  A    between atoms: C_11  and  C_12
REMARK    5  A    between atoms: C_17  and  N_18
REMARK                            x       y       z     vdW  Elec       q    Type
REMARK                         _______ _______ _______ _____ _____    ______ ____
ROOT
ATOM      1  C   UNL     1       2.004   7.864  20.046  0.00  0.00    +0.000 C 
ATOM      2  C   UNL     1       0.957   8.178  21.106  0.00  0.00    +0.000 C 
ATOM      3  C   UNL     1       1.047   9.604  21.573  0.00  0.00    +0.000 C 
ATOM      4  O   UNL     1       1.655   9.859  22.618  0.00  0.00    +0.000 OA
ATOM      5  N   UNL     1       0.404  10.584  20.821  0.00  0.00    +0.000 N 
ATOM      6  C   UNL     1      -0.252  10.316  19.575  0.00  0.00    +0.000 A 
ATOM      7  C   UNL     1      -1.561  10.793  19.373  0.00  0.00    +0.000 A 
ATOM      8  C   UNL     1      -2.247  10.553  18.180  0.00  0.00    +0.000 A 
ATOM      9  C   UNL     1      -1.634   9.841  17.157  0.00  0.00    +0.000 A 
ATOM     10  C   UNL     1      -0.339   9.355  17.335  0.00  0.00    +0.000 A 
ATOM     11  C   UNL     1       0.353   9.568  18.541  0.00  0.00    +0.000 A 
ATOM     12  S   UNL     1       2.040   8.977  18.587  0.00  0.00    +0.000 S 
ENDROOT
BRANCH   1  17
ATOM     13  C   UNL     1       1.323   2.280  18.457  0.00  0.00    +0.000 C 
ATOM     14  C   UNL     1       1.552   3.707  18.860  0.00  0.00    +0.000 A 
ATOM     15  C   UNL     1       1.960   4.662  17.926  0.00  0.00    +0.000 A 
ATOM     16  C   UNL     1       2.141   5.993  18.308  0.00  0.00    +0.000 A 
ATOM     17  C   UNL     1       1.910   6.401  19.631  0.00  0.00    +0.000 A 
ATOM     18  C   UNL     1       1.522   5.432  20.569  0.00  0.00    +0.000 A 
ATOM     19  C   UNL     1       1.343   4.100  20.186  0.00  0.00    +0.000 A 
ENDBRANCH   1  17
BRANCH   5  20
ATOM     20  C   UNL     1       0.367  11.950  21.378  0.00  0.00    +0.000 C 
BRANCH  20  21
ATOM     21  C   UNL     1       0.866  13.049  20.447  0.00  0.00    +0.000 A 
ATOM     22  C   UNL     1       2.129  12.998  19.836  0.00  0.00    +0.000 A 
ATOM     23  C   UNL     1       2.587  14.036  19.012  0.00  0.00    +0.000 A 
ATOM     24  C   UNL     1       1.788  15.150  18.764  0.00  0.00    +0.000 A 
ATOM     25  C   UNL     1       0.542  15.251  19.373  0.00  0.00    +0.000 A 
ATOM     26  C   UNL     1       0.116  14.222  20.224  0.00  0.00    +0.000 A 
BRANCH  26  27
ATOM     27  N   UNL     1      -1.119  14.453  20.958  0.00  0.00    +0.000 N 
ATOM     28  O   UNL     1      -1.015  14.986  22.068  0.00  0.00    +0.000 OA
ATOM     29  O   UNL     1      -2.170  14.093  20.417  0.00  0.00    +0.000 OA
ENDBRANCH  26  27
ENDBRANCH  20  21
ENDBRANCH   5  20
TORSDOF 4
ENDMDL
MODEL 6
REMARK VINA RESULT:      -7.8      4.534      8.809
REMARK  Name = 
REMARK  5 active torsions:
REMARK  status: ('A' for Active; 'I' for Inactive)
REMARK    1  A    between atoms: C_1  and  C_2
REMARK    2  A    between atoms: C_5  and  C_6
REMARK    3  A    between atoms: N_10  and  C_11
REMARK    4  A    between atoms: C_11  and  C_12
REMARK    5  A    between atoms: C_17  and  N_18
REMARK                            x       y       z     vdW  Elec       q    Type
REMARK                         _______ _______ _______ _____ _____    ______ ____
ROOT
ATOM      1  C   UNL     1       1.972   7.846  19.991  0.00  0.00    +0.000 C 
ATOM      2  C   UNL     1       0.938   8.159  21.064  0.00  0.00    +0.000 C 
ATOM      3  C   UNL     1       1.045   9.581  21.543  0.00  0.00    +0.000 C 
ATOM      4  O   UNL     1       1.665   9.822  22.584  0.00  0.00    +0.000 OA
ATOM      5  N   UNL     1       0.403  10.573  20.805  0.00  0.00    +0.000 N 
ATOM      6  C   UNL     1      -0.268  10.321  19.563  0.00  0.00    +0.000 A 
ATOM      7  C   UNL     1      -1.574  10.811  19.378  0.00  0.00    +0.000 A 
ATOM      8  C   UNL     1      -2.274  10.587  18.189  0.00  0.00    +0.000 A 
ATOM      9  C   UNL     1      -1.677   9.878  17.155  0.00  0.00    +0.000 A 
ATOM     10  C   UNL     1      -0.385   9.380  17.316  0.00  0.00    +0.000 A 
ATOM     11  C   UNL     1       0.321   9.577  18.517  0.00  0.00    +0.000 A 
ATOM     12  S   UNL     1       2.003   8.971  18.542  0.00  0.00    +0.000 S 
ENDROOT
BRANCH   1  17
ATOM     13  C   UNL     1       1.870   2.234  18.362  0.00  0.00    +0.000 C 
ATOM     14  C   UNL     1       1.842   3.673  18.782  0.00  0.00    +0.000 A 
ATOM     15  C   UNL     1       1.508   4.035  20.090  0.00  0.00    +0.000 A 
ATOM     16  C   UNL     1       1.514   5.377  20.476  0.00  0.00    +0.000 A 
ATOM     17  C   UNL     1       1.862   6.388  19.565  0.00  0.00    +0.000 A 
ATOM     18  C   UNL     1       2.174   6.019  18.248  0.00  0.00    +0.000 A 
ATOM     19  C   UNL     1       2.167   4.676  17.862  0.00  0.00    +0.000 A 
ENDBRANCH   1  17
BRANCH   5  20
ATOM     20  C   UNL     1       0.383  11.935  21.373  0.00  0.00    +0.000 C 
BRANCH  20  21
ATOM     21  C   UNL     1       0.888  13.036  20.450  0.00  0.00    +0.000 A 
ATOM     22  C   UNL     1       2.152  12.982  19.839  0.00  0.00    +0.000 A 
ATOM     23  C   UNL     1       2.616  14.023  19.023  0.00  0.00    +0.000 A 
ATOM     24  C   UNL     1       1.823  15.142  18.780  0.00  0.00    +0.000 A 
ATOM     25  C   UNL     1       0.577  15.246  19.388  0.00  0.00    +0.000 A 
ATOM     26  C   UNL     1       0.144  14.214  20.233  0.00  0.00    +0.000 A 
BRANCH  26  27
ATOM     27  N   UNL     1      -1.090  14.448  20.966  0.00  0.00    +0.000 N 
ATOM     28  O   UNL     1      -2.141  14.114  20.408  0.00  0.00    +0.000 OA
ATOM     29  O   UNL     1      -0.990  14.967  22.083  0.00  0.00    +0.000 OA
ENDBRANCH  26  27
ENDBRANCH  20  21
ENDBRANCH   5  20
TORSDOF 4
ENDMDL
MODEL 7
REMARK VINA RESULT:      -7.6      8.495     11.505
REMARK  Name = 
REMARK  5 active torsions:
REMARK  status: ('A' for Active; 'I' for Inactive)
REMARK    1  A    between atoms: C_1  and  C_2
REMARK    2  A    between atoms: C_5  and  C_6
REMARK    3  A    between atoms: N_10  and  C_11
REMARK    4  A    between atoms: C_11  and  C_12
REMARK    5  A    between atoms: C_17  and  N_18
REMARK                            x       y       z     vdW  Elec       q    Type
REMARK                         _______ _______ _______ _____ _____    ______ ____
ROOT
ATOM      1  C   UNL     1      -0.608  14.078  19.321  0.00  0.00    +0.000 C 
ATOM      2  C   UNL     1      -0.809  14.631  20.726  0.00  0.00    +0.000 C 
ATOM      3  C   UNL     1      -2.237  14.497  21.179  0.00  0.00    +0.000 C 
ATOM      4  O   UNL     1      -2.995  15.468  21.081  0.00  0.00    +0.000 OA
ATOM      5  N   UNL     1      -2.640  13.283  21.730  0.00  0.00    +0.000 N 
ATOM      6  C   UNL     1      -1.793  12.128  21.795  0.00  0.00    +0.000 A 
ATOM      7  C   UNL     1      -1.669  11.437  23.015  0.00  0.00    +0.000 A 
ATOM      8  C   UNL     1      -0.851  10.310  23.133  0.00  0.00    +0.000 A 
ATOM      9  C   UNL     1      -0.149   9.842  22.030  0.00  0.00    +0.000 A 
ATOM     10  C   UNL     1      -0.254  10.512  20.812  0.00  0.00    +0.000 A 
ATOM     11  C   UNL     1      -1.054  11.663  20.686  0.00  0.00    +0.000 A 
ATOM     12  S   UNL     1      -1.172  12.354  19.041  0.00  0.00    +0.000 S 
ENDROOT
BRANCH   1  17
ATOM     13  C   UNL     1       5.013  14.885  17.940  0.00  0.00    +0.000 C 
ATOM     14  C   UNL     1       3.561  14.665  18.243  0.00  0.00    +0.000 A 
ATOM     15  C   UNL     1       3.022  13.376  18.284  0.00  0.00    +0.000 A 
ATOM     16  C   UNL     1       1.674  13.183  18.596  0.00  0.00    +0.000 A 
ATOM     17  C   UNL     1       0.837  14.273  18.882  0.00  0.00    +0.000 A 
ATOM     18  C   UNL     1       1.380  15.565  18.817  0.00  0.00    +0.000 A 
ATOM     19  C   UNL     1       2.728  15.758  18.503  0.00  0.00    +0.000 A 
ENDBRANCH   1  17
BRANCH   5  20
ATOM     20  C   UNL     1      -3.994  13.220  22.314  0.00  0.00    +0.000 C 
BRANCH  20  21
ATOM     21  C   UNL     1      -5.083  12.698  21.385  0.00  0.00    +0.000 A 
ATOM     22  C   UNL     1      -4.866  12.498  20.012  0.00  0.00    +0.000 A 
ATOM     23  C   UNL     1      -5.891  12.053  19.166  0.00  0.00    +0.000 A 
ATOM     24  C   UNL     1      -7.160  11.780  19.670  0.00  0.00    +0.000 A 
ATOM     25  C   UNL     1      -7.423  11.991  21.019  0.00  0.00    +0.000 A 
ATOM     26  C   UNL     1      -6.397  12.473  21.844  0.00  0.00    +0.000 A 
BRANCH  26  27
ATOM     27  N   UNL     1      -6.769  12.828  23.205  0.00  0.00    +0.000 N 
ATOM     28  O   UNL     1      -6.644  11.948  24.064  0.00  0.00    +0.000 OA
ATOM     29  O   UNL     1      -7.187  13.975  23.392  0.00  0.00    +0.000 OA
ENDBRANCH  26  27
ENDBRANCH  20  21
ENDBRANCH   5  20
TORSDOF 4
ENDMDL
MODEL 8
REMARK VINA RESULT:      -7.6      5.098     10.151
REMARK  Name = 
REMARK  5 active torsions:
REMARK  status: ('A' for Active; 'I' for Inactive)
REMARK    1  A    between atoms: C_1  and  C_2
REMARK    2  A    between atoms: C_5  and  C_6
REMARK    3  A    between atoms: N_10  and  C_11
REMARK    4  A    between atoms: C_11  and  C_12
REMARK    5  A    between atoms: C_17  and  N_18
REMARK                            x       y       z     vdW  Elec       q    Type
REMARK                         _______ _______ _______ _____ _____    ______ ____
ROOT
ATOM      1  C   UNL     1       1.261   9.627  19.850  0.00  0.00    +0.000 C 
ATOM      2  C   UNL     1       0.175   9.778  20.906  0.00  0.00    +0.000 C 
ATOM      3  C   UNL     1      -0.162  11.221  21.160  0.00  0.00    +0.000 C 
ATOM      4  O   UNL     1       0.349  11.799  22.124  0.00  0.00    +0.000 OA
ATOM      5  N   UNL     1      -1.072  11.843  20.309  0.00  0.00    +0.000 N 
ATOM      6  C   UNL     1      -1.627  11.208  19.149  0.00  0.00    +0.000 A 
ATOM      7  C   UNL     1      -3.019  11.243  18.949  0.00  0.00    +0.000 A 
ATOM      8  C   UNL     1      -3.611  10.633  17.839  0.00  0.00    +0.000 A 
ATOM      9  C   UNL     1      -2.819   9.986  16.899  0.00  0.00    +0.000 A 
ATOM     10  C   UNL     1      -1.438   9.934  17.078  0.00  0.00    +0.000 A 
ATOM     11  C   UNL     1      -0.833  10.522  18.204  0.00  0.00    +0.000 A 
ATOM     12  S   UNL     1       0.954  10.467  18.247  0.00  0.00    +0.000 S 
ENDROOT
BRANCH   1  17
ATOM     13  C   UNL     1       2.890   4.060  19.138  0.00  0.00    +0.000 C 
ATOM     14  C   UNL     1       2.420   5.473  19.317  0.00  0.00    +0.000 A 
ATOM     15  C   UNL     1       1.830   5.888  20.514  0.00  0.00    +0.000 A 
ATOM     16  C   UNL     1       1.423   7.214  20.679  0.00  0.00    +0.000 A 
ATOM     17  C   UNL     1       1.604   8.157  19.654  0.00  0.00    +0.000 A 
ATOM     18  C   UNL     1       2.178   7.727  18.448  0.00  0.00    +0.000 A 
ATOM     19  C   UNL     1       2.583   6.400  18.283  0.00  0.00    +0.000 A 
ENDBRANCH   1  17
BRANCH   5  20
ATOM     20  C   UNL     1      -1.511  13.206  20.665  0.00  0.00    +0.000 C 
BRANCH  20  21
ATOM     21  C   UNL     1      -2.259  13.328  21.987  0.00  0.00    +0.000 A 
ATOM     22  C   UNL     1      -3.384  12.544  22.287  0.00  0.00    +0.000 A 
ATOM     23  C   UNL     1      -4.082  12.696  23.493  0.00  0.00    +0.000 A 
ATOM     24  C   UNL     1      -3.667  13.627  24.441  0.00  0.00    +0.000 A 
ATOM     25  C   UNL     1      -2.574  14.443  24.170  0.00  0.00    +0.000 A 
ATOM     26  C   UNL     1      -1.910  14.304  22.943  0.00  0.00    +0.000 A 
BRANCH  26  27
ATOM     27  N   UNL     1      -0.879  15.287  22.645  0.00  0.00    +0.000 N 
ATOM     28  O   UNL     1       0.269  15.019  23.017  0.00  0.00    +0.000 OA
ATOM     29  O   UNL     1      -1.234  16.311  22.054  0.00  0.00    +0.000 OA
ENDBRANCH  26  27
ENDBRANCH  20  21
ENDBRANCH   5  20
TORSDOF 4
ENDMDL
MODEL 9
REMARK VINA RESULT:      -7.6      5.955     11.319
REMARK  Name = 
REMARK  5 active torsions:
REMARK  status: ('A' for Active; 'I' for Inactive)
REMARK    1  A    between atoms: C_1  and  C_2
REMARK    2  A    between atoms: C_5  and  C_6
REMARK    3  A    between atoms: N_10  and  C_11
REMARK    4  A    between atoms: C_11  and  C_12
REMARK    5  A    between atoms: C_17  and  N_18
REMARK                            x       y       z     vdW  Elec       q    Type
REMARK                         _______ _______ _______ _____ _____    ______ ____
ROOT
ATOM      1  C   UNL     1       0.673  11.014  20.159  0.00  0.00    +0.000 C 
ATOM      2  C   UNL     1      -0.378  10.766  21.233  0.00  0.00    +0.000 C 
ATOM      3  C   UNL     1      -0.895  12.052  21.815  0.00  0.00    +0.000 C 
ATOM      4  O   UNL     1      -0.427  12.462  22.882  0.00  0.00    +0.000 OA
ATOM      5  N   UNL     1      -1.916  12.717  21.139  0.00  0.00    +0.000 N 
ATOM      6  C   UNL     1      -2.428  12.289  19.870  0.00  0.00    +0.000 A 
ATOM      7  C   UNL     1      -3.820  12.173  19.697  0.00  0.00    +0.000 A 
ATOM      8  C   UNL     1      -4.369  11.754  18.482  0.00  0.00    +0.000 A 
ATOM      9  C   UNL     1      -3.538  11.454  17.410  0.00  0.00    +0.000 A 
ATOM     10  C   UNL     1      -2.156  11.559  17.559  0.00  0.00    +0.000 A 
ATOM     11  C   UNL     1      -1.589  11.955  18.784  0.00  0.00    +0.000 A 
ATOM     12  S   UNL     1       0.189  12.143  18.796  0.00  0.00    +0.000 S 
ENDROOT
BRANCH   1  17
ATOM     13  C   UNL     1       3.001   6.062  18.107  0.00  0.00    +0.000 C 
ATOM     14  C   UNL     1       2.356   7.307  18.637  0.00  0.00    +0.000 A 
ATOM     15  C   UNL     1       1.988   7.411  19.982  0.00  0.00    +0.000 A 
ATOM     16  C   UNL     1       1.415   8.587  20.470  0.00  0.00    +0.000 A 
ATOM     17  C   UNL     1       1.203   9.689  19.627  0.00  0.00    +0.000 A 
ATOM     18  C   UNL     1       1.555   9.570  18.274  0.00  0.00    +0.000 A 
ATOM     19  C   UNL     1       2.127   8.393  17.786  0.00  0.00    +0.000 A 
ENDBRANCH   1  17
BRANCH   5  20
ATOM     20  C   UNL     1      -2.519  13.888  21.804  0.00  0.00    +0.000 C 
BRANCH  20  21
ATOM     21  C   UNL     1      -3.722  13.589  22.690  0.00  0.00    +0.000 A 
ATOM     22  C   UNL     1      -3.716  12.554  23.639  0.00  0.00    +0.000 A 
ATOM     23  C   UNL     1      -4.845  12.268  24.420  0.00  0.00    +0.000 A 
ATOM     24  C   UNL     1      -6.010  13.020  24.285  0.00  0.00    +0.000 A 
ATOM     25  C   UNL     1      -6.065  14.036  23.338  0.00  0.00    +0.000 A 
ATOM     26  C   UNL     1      -4.940  14.283  22.538  0.00  0.00    +0.000 A 
BRANCH  26  27
ATOM     27  N   UNL     1      -5.106  15.244  21.459  0.00  0.00    +0.000 N 
ATOM     28  O   UNL     1      -4.693  16.390  21.665  0.00  0.00    +0.000 OA
ATOM     29  O   UNL     1      -5.653  14.841  20.427  0.00  0.00    +0.000 OA
ENDBRANCH  26  27
ENDBRANCH  20  21
ENDBRANCH   5  20
TORSDOF 4
ENDMDL
