MODEL 1
REMARK VINA RESULT:      -8.0      0.000      0.000
REMARK  Name = 
REMARK  2 active torsions:
REMARK  status: ('A' for Active; 'I' for Inactive)
REMARK    1  A    between atoms: C_5  and  C_6
REMARK    2  A    between atoms: N_26  and  C_27
REMARK                            x       y       z     vdW  Elec       q    Type
REMARK                         _______ _______ _______ _____ _____    ______ ____
ROOT
ATOM      1  C   UNL     1      -2.214  13.457  22.200  0.00  0.00    +0.000 A 
ATOM      2  C   UNL     1      -1.239  12.626  21.774  0.00  0.00    +0.000 A 
ATOM      3  N   UNL     1      -1.453  11.884  20.639  0.00  0.00    +0.000 N 
ATOM      4  C   UNL     1      -0.671  10.992  19.963  0.00  0.00    +0.000 A 
ATOM      5  C   UNL     1      -1.422  10.610  18.873  0.00  0.00    +0.000 A 
ATOM      6  N   UNL     1      -2.640  11.233  18.854  0.00  0.00    +0.000 NA
ATOM      7  C   UNL     1      -2.637  11.977  19.948  0.00  0.00    +0.000 A 
ATOM      8  C   UNL     1      -3.672  12.893  20.437  0.00  0.00    +0.000 A 
ATOM      9  N   UNL     1      -4.901  13.052  19.806  0.00  0.00    +0.000 N 
ATOM     10  C   UNL     1      -5.586  11.982  19.074  0.00  0.00    +0.000 C 
ATOM     11  C   UNL     1      -6.001  12.491  17.689  0.00  0.00    +0.000 C 
ATOM     12  O   UNL     1      -6.821  13.670  17.795  0.00  0.00    +0.000 OA
ATOM     13  C   UNL     1      -6.110  14.714  18.485  0.00  0.00    +0.000 C 
ATOM     14  C   UNL     1      -5.692  14.281  19.901  0.00  0.00    +0.000 C 
ATOM     15  N   UNL     1      -3.415  13.613  21.515  0.00  0.00    +0.000 NA
ATOM     16  C   UNL     1      -0.935   9.633  17.875  0.00  0.00    +0.000 C 
ATOM     17  C   UNL     1       0.594   9.483  18.024  0.00  0.00    +0.000 C 
ATOM     18  N   UNL     1       1.024   9.384  19.444  0.00  0.00    +0.000 N 
ATOM     19  C   UNL     1       1.707   8.335  20.038  0.00  0.00    +0.000 C 
ATOM     20  O   UNL     1       2.053   8.353  21.218  0.00  0.00    +0.000 OA
ATOM     21  N   UNL     1       1.946   7.258  19.226  0.00  0.00    +0.000 N 
ATOM     22  C   UNL     1       0.699  10.541  20.298  0.00  0.00    +0.000 C 
ATOM     23  H   UNL     1       2.161   7.508  18.276  0.00  0.00    +0.000 HD
ENDROOT
BRANCH   1  28
ATOM     24  N   UNL     1      -1.241  16.289  26.912  0.00  0.00    +0.000 N 
ATOM     25  C   UNL     1      -1.496  15.639  25.725  0.00  0.00    +0.000 A 
ATOM     26  N   UNL     1      -0.560  15.666  24.775  0.00  0.00    +0.000 NA
ATOM     27  C   UNL     1      -0.827  14.977  23.638  0.00  0.00    +0.000 A 
ATOM     28  C   UNL     1      -1.986  14.258  23.415  0.00  0.00    +0.000 A 
ATOM     29  C   UNL     1      -2.900  14.377  24.448  0.00  0.00    +0.000 A 
ATOM     30  N   UNL     1      -2.684  15.046  25.601  0.00  0.00    +0.000 NA
ATOM     31  H   UNL     1      -0.562  17.026  26.760  0.00  0.00    +0.000 HD
ATOM     32  H   UNL     1      -2.112  16.541  27.356  0.00  0.00    +0.000 HD
ENDBRANCH   1  28
BRANCH  21  33
ATOM     33  C   UNL     1       2.628   6.044  19.689  0.00  0.00    +0.000 C 
ATOM     34  C   UNL     1       1.826   4.756  19.440  0.00  0.00    +0.000 C 
ATOM     35  C   UNL     1       1.609   4.503  17.950  0.00  0.00    +0.000 C 
ATOM     36  C   UNL     1       2.934   4.448  17.193  0.00  0.00    +0.000 C 
ATOM     37  C   UNL     1       3.820   5.659  17.475  0.00  0.00    +0.000 C 
ATOM     38  C   UNL     1       3.985   5.920  18.975  0.00  0.00    +0.000 C 
ENDBRANCH  21  33
TORSDOF 2
ENDMDL
MODEL 2
REMARK VINA RESULT:      -7.4      3.295     11.065
REMARK  Name = 
REMARK  2 active torsions:
REMARK  status: ('A' for Active; 'I' for Inactive)
REMARK    1  A    between atoms: C_5  and  C_6
REMARK    2  A    between atoms: N_26  and  C_27
REMARK                            x       y       z     vdW  Elec       q    Type
REMARK                         _______ _______ _______ _____ _____    ______ ____
ROOT
ATOM      1  C   UNL     1       4.112   5.850  17.874  0.00  0.00    +0.000 A 
ATOM      2  C   UNL     1       3.576   7.043  18.202  0.00  0.00    +0.000 A 
ATOM      3  N   UNL     1       2.640   7.094  19.206  0.00  0.00    +0.000 N 
ATOM      4  C   UNL     1       1.947   8.127  19.767  0.00  0.00    +0.000 A 
ATOM      5  C   UNL     1       1.187   7.553  20.761  0.00  0.00    +0.000 A 
ATOM      6  N   UNL     1       1.385   6.202  20.832  0.00  0.00    +0.000 NA
ATOM      7  C   UNL     1       2.249   5.951  19.863  0.00  0.00    +0.000 A 
ATOM      8  C   UNL     1       2.856   4.672  19.482  0.00  0.00    +0.000 A 
ATOM      9  N   UNL     1       2.522   3.467  20.088  0.00  0.00    +0.000 N 
ATOM     10  C   UNL     1       1.192   3.166  20.629  0.00  0.00    +0.000 C 
ATOM     11  C   UNL     1       1.328   2.634  22.060  0.00  0.00    +0.000 C 
ATOM     12  O   UNL     1       2.190   1.482  22.104  0.00  0.00    +0.000 OA
ATOM     13  C   UNL     1       3.497   1.816  21.603  0.00  0.00    +0.000 C 
ATOM     14  C   UNL     1       3.439   2.327  20.152  0.00  0.00    +0.000 C 
ATOM     15  N   UNL     1       3.776   4.672  18.533  0.00  0.00    +0.000 NA
ATOM     16  C   UNL     1       0.272   8.340  21.617  0.00  0.00    +0.000 C 
ATOM     17  C   UNL     1       0.636   9.835  21.499  0.00  0.00    +0.000 C 
ATOM     18  N   UNL     1       0.895  10.252  20.095  0.00  0.00    +0.000 N 
ATOM     19  C   UNL     1       0.218  11.222  19.374  0.00  0.00    +0.000 C 
ATOM     20  O   UNL     1       0.523  11.526  18.223  0.00  0.00    +0.000 OA
ATOM     21  N   UNL     1      -0.840  11.802  20.024  0.00  0.00    +0.000 N 
ATOM     22  C   UNL     1       2.007   9.565  19.414  0.00  0.00    +0.000 C 
ATOM     23  H   UNL     1      -0.683  11.942  21.007  0.00  0.00    +0.000 HD
ENDROOT
BRANCH   1  28
ATOM     24  N   UNL     1       8.003   5.409  13.894  0.00  0.00    +0.000 N 
ATOM     25  C   UNL     1       7.023   5.563  14.849  0.00  0.00    +0.000 A 
ATOM     26  N   UNL     1       5.803   5.092  14.585  0.00  0.00    +0.000 NA
ATOM     27  C   UNL     1       4.876   5.221  15.566  0.00  0.00    +0.000 A 
ATOM     28  C   UNL     1       5.120   5.794  16.800  0.00  0.00    +0.000 A 
ATOM     29  C   UNL     1       6.401   6.307  16.912  0.00  0.00    +0.000 A 
ATOM     30  N   UNL     1       7.362   6.203  15.969  0.00  0.00    +0.000 NA
ATOM     31  H   UNL     1       7.578   5.324  12.978  0.00  0.00    +0.000 HD
ATOM     32  H   UNL     1       8.712   6.118  14.015  0.00  0.00    +0.000 HD
ENDBRANCH   1  28
BRANCH  21  33
ATOM     33  C   UNL     1      -1.692  12.825  19.407  0.00  0.00    +0.000 C 
ATOM     34  C   UNL     1      -3.183  12.670  19.749  0.00  0.00    +0.000 C 
ATOM     35  C   UNL     1      -3.442  12.837  21.244  0.00  0.00    +0.000 C 
ATOM     36  C   UNL     1      -2.925  14.180  21.755  0.00  0.00    +0.000 C 
ATOM     37  C   UNL     1      -1.472  14.436  21.364  0.00  0.00    +0.000 C 
ATOM     38  C   UNL     1      -1.228  14.218  19.868  0.00  0.00    +0.000 C 
ENDBRANCH  21  33
TORSDOF 2
ENDMDL
MODEL 3
REMARK VINA RESULT:      -7.0      3.729     11.573
REMARK  Name = 
REMARK  2 active torsions:
REMARK  status: ('A' for Active; 'I' for Inactive)
REMARK    1  A    between atoms: C_5  and  C_6
REMARK    2  A    between atoms: N_26  and  C_27
REMARK                            x       y       z     vdW  Elec       q    Type
REMARK                         _______ _______ _______ _____ _____    ______ ____
ROOT
ATOM      1  C   UNL     1       4.571   5.201  17.207  0.00  0.00    +0.000 A 
ATOM      2  C   UNL     1       3.981   6.385  17.471  0.00  0.00    +0.000 A 
ATOM      3  N   UNL     1       3.153   6.482  18.563  0.00  0.00    +0.000 N 
ATOM      4  C   UNL     1       2.445   7.523  19.090  0.00  0.00    +0.000 A 
ATOM      5  C   UNL     1       1.839   7.011  20.216  0.00  0.00    +0.000 A 
ATOM      6  N   UNL     1       2.146   5.691  20.400  0.00  0.00    +0.000 NA
ATOM      7  C   UNL     1       2.922   5.394  19.371  0.00  0.00    +0.000 A 
ATOM      8  C   UNL     1       3.583   4.124  19.056  0.00  0.00    +0.000 A 
ATOM      9  N   UNL     1       3.407   2.972  19.813  0.00  0.00    +0.000 N 
ATOM     10  C   UNL     1       2.167   2.646  20.526  0.00  0.00    +0.000 C 
ATOM     11  C   UNL     1       2.491   2.281  21.979  0.00  0.00    +0.000 C 
ATOM     12  O   UNL     1       3.439   1.200  22.043  0.00  0.00    +0.000 OA
ATOM     13  C   UNL     1       4.658   1.563  21.368  0.00  0.00    +0.000 C 
ATOM     14  C   UNL     1       4.410   1.909  19.889  0.00  0.00    +0.000 C 
ATOM     15  N   UNL     1       4.397   4.081  18.015  0.00  0.00    +0.000 NA
ATOM     16  C   UNL     1       0.960   7.825  21.084  0.00  0.00    +0.000 C 
ATOM     17  C   UNL     1       1.193   9.319  20.776  0.00  0.00    +0.000 C 
ATOM     18  N   UNL     1       1.272   9.597  19.318  0.00  0.00    +0.000 N 
ATOM     19  C   UNL     1       0.451  10.437  18.582  0.00  0.00    +0.000 C 
ATOM     20  O   UNL     1       0.612  10.633  17.379  0.00  0.00    +0.000 OA
ATOM     21  N   UNL     1      -0.575  11.013  19.284  0.00  0.00    +0.000 N 
ATOM     22  C   UNL     1       2.357   8.914  18.589  0.00  0.00    +0.000 C 
ATOM     23  H   UNL     1      -0.328  11.269  20.224  0.00  0.00    +0.000 HD
ENDROOT
BRANCH   1  28
ATOM     24  N   UNL     1       7.862   5.023  12.700  0.00  0.00    +0.000 N 
ATOM     25  C   UNL     1       7.078   5.022  13.832  0.00  0.00    +0.000 A 
ATOM     26  N   UNL     1       7.561   5.593  14.938  0.00  0.00    +0.000 NA
ATOM     27  C   UNL     1       6.744   5.613  16.019  0.00  0.00    +0.000 A 
ATOM     28  C   UNL     1       5.463   5.094  16.039  0.00  0.00    +0.000 A 
ATOM     29  C   UNL     1       5.117   4.467  14.854  0.00  0.00    +0.000 A 
ATOM     30  N   UNL     1       5.891   4.420  13.748  0.00  0.00    +0.000 NA
ATOM     31  H   UNL     1       8.839   5.094  12.961  0.00  0.00    +0.000 HD
ATOM     32  H   UNL     1       7.594   4.257  12.100  0.00  0.00    +0.000 HD
ENDBRANCH   1  28
BRANCH  21  33
ATOM     33  C   UNL     1      -1.562  11.905  18.666  0.00  0.00    +0.000 C 
ATOM     34  C   UNL     1      -2.809  12.138  19.536  0.00  0.00    +0.000 C 
ATOM     35  C   UNL     1      -2.461  12.836  20.848  0.00  0.00    +0.000 C 
ATOM     36  C   UNL     1      -1.740  14.160  20.604  0.00  0.00    +0.000 C 
ATOM     37  C   UNL     1      -0.543  14.010  19.667  0.00  0.00    +0.000 C 
ATOM     38  C   UNL     1      -0.906  13.267  18.378  0.00  0.00    +0.000 C 
ENDBRANCH  21  33
TORSDOF 2
ENDMDL
MODEL 4
REMARK VINA RESULT:      -7.0      5.108      8.054
REMARK  Name = 
REMARK  2 active torsions:
REMARK  status: ('A' for Active; 'I' for Inactive)
REMARK    1  A    between atoms: C_5  and  C_6
REMARK    2  A    between atoms: N_26  and  C_27
REMARK                            x       y       z     vdW  Elec       q    Type
REMARK                         _______ _______ _______ _____ _____    ______ ____
ROOT
ATOM      1  C   UNL     1      -1.871  12.327  18.942  0.00  0.00    +0.000 A 
ATOM      2  C   UNL     1      -0.549  12.583  18.872  0.00  0.00    +0.000 A 
ATOM      3  N   UNL     1       0.055  13.234  19.920  0.00  0.00    +0.000 N 
ATOM      4  C   UNL     1       1.347  13.608  20.148  0.00  0.00    +0.000 A 
ATOM      5  C   UNL     1       1.339  14.187  21.398  0.00  0.00    +0.000 A 
ATOM      6  N   UNL     1       0.086  14.184  21.948  0.00  0.00    +0.000 NA
ATOM      7  C   UNL     1      -0.672  13.624  21.020  0.00  0.00    +0.000 A 
ATOM      8  C   UNL     1      -2.106  13.326  21.064  0.00  0.00    +0.000 A 
ATOM      9  N   UNL     1      -2.921  13.684  22.132  0.00  0.00    +0.000 N 
ATOM     10  C   UNL     1      -2.705  14.876  22.958  0.00  0.00    +0.000 C 
ATOM     11  C   UNL     1      -2.731  14.485  24.440  0.00  0.00    +0.000 C 
ATOM     12  O   UNL     1      -3.963  13.821  24.779  0.00  0.00    +0.000 OA
ATOM     13  C   UNL     1      -4.129  12.637  23.979  0.00  0.00    +0.000 C 
ATOM     14  C   UNL     1      -4.147  12.961  22.475  0.00  0.00    +0.000 C 
ATOM     15  N   UNL     1      -2.642  12.669  20.049  0.00  0.00    +0.000 NA
ATOM     16  C   UNL     1       2.558  14.741  22.025  0.00  0.00    +0.000 C 
ATOM     17  C   UNL     1       3.797  14.195  21.285  0.00  0.00    +0.000 C 
ATOM     18  N   UNL     1       3.636  14.218  19.806  0.00  0.00    +0.000 N 
ATOM     19  C   UNL     1       4.428  14.894  18.891  0.00  0.00    +0.000 C 
ATOM     20  O   UNL     1       4.240  14.829  17.678  0.00  0.00    +0.000 OA
ATOM     21  N   UNL     1       5.421  15.666  19.434  0.00  0.00    +0.000 N 
ATOM     22  C   UNL     1       2.522  13.418  19.266  0.00  0.00    +0.000 C 
ATOM     23  H   UNL     1       5.849  15.260  20.248  0.00  0.00    +0.000 HD
ENDROOT
BRANCH   1  28
ATOM     24  N   UNL     1      -4.265   9.859  14.543  0.00  0.00    +0.000 N 
ATOM     25  C   UNL     1      -3.683  10.420  15.658  0.00  0.00    +0.000 A 
ATOM     26  N   UNL     1      -2.401  10.145  15.908  0.00  0.00    +0.000 NA
ATOM     27  C   UNL     1      -1.849  10.751  16.987  0.00  0.00    +0.000 A 
ATOM     28  C   UNL     1      -2.521  11.624  17.821  0.00  0.00    +0.000 A 
ATOM     29  C   UNL     1      -3.859  11.761  17.493  0.00  0.00    +0.000 A 
ATOM     30  N   UNL     1      -4.458  11.183  16.429  0.00  0.00    +0.000 NA
ATOM     31  H   UNL     1      -3.774   9.009  14.291  0.00  0.00    +0.000 HD
ATOM     32  H   UNL     1      -5.265   9.798  14.675  0.00  0.00    +0.000 HD
ENDBRANCH   1  28
BRANCH  21  33
ATOM     33  C   UNL     1       6.337  16.476  18.623  0.00  0.00    +0.000 C 
ATOM     34  C   UNL     1       7.031  17.596  19.415  0.00  0.00    +0.000 C 
ATOM     35  C   UNL     1       7.924  17.038  20.520  0.00  0.00    +0.000 C 
ATOM     36  C   UNL     1       8.964  16.069  19.964  0.00  0.00    +0.000 C 
ATOM     37  C   UNL     1       8.344  14.984  19.087  0.00  0.00    +0.000 C 
ATOM     38  C   UNL     1       7.417  15.565  18.015  0.00  0.00    +0.000 C 
ENDBRANCH  21  33
TORSDOF 2
ENDMDL
MODEL 5
REMARK VINA RESULT:      -6.9      4.389      5.676
REMARK  Name = 
REMARK  2 active torsions:
REMARK  status: ('A' for Active; 'I' for Inactive)
REMARK    1  A    between atoms: C_5  and  C_6
REMARK    2  A    between atoms: N_26  and  C_27
REMARK                            x       y       z     vdW  Elec       q    Type
REMARK                         _______ _______ _______ _____ _____    ______ ____
ROOT
ATOM      1  C   UNL     1       3.113  14.541  19.184  0.00  0.00    +0.000 A 
ATOM      2  C   UNL     1       3.121  13.283  18.696  0.00  0.00    +0.000 A 
ATOM      3  N   UNL     1       2.023  12.485  18.908  0.00  0.00    +0.000 N 
ATOM      4  C   UNL     1       1.730  11.207  18.531  0.00  0.00    +0.000 A 
ATOM      5  C   UNL     1       0.458  10.975  19.005  0.00  0.00    +0.000 A 
ATOM      6  N   UNL     1      -0.042  12.065  19.663  0.00  0.00    +0.000 NA
ATOM      7  C   UNL     1       0.937  12.952  19.608  0.00  0.00    +0.000 A 
ATOM      8  C   UNL     1       0.962  14.325  20.121  0.00  0.00    +0.000 A 
ATOM      9  N   UNL     1      -0.088  14.882  20.842  0.00  0.00    +0.000 N 
ATOM     10  C   UNL     1      -0.973  14.111  21.721  0.00  0.00    +0.000 C 
ATOM     11  C   UNL     1      -2.435  14.423  21.382  0.00  0.00    +0.000 C 
ATOM     12  O   UNL     1      -2.697  15.836  21.472  0.00  0.00    +0.000 OA
ATOM     13  C   UNL     1      -1.841  16.563  20.572  0.00  0.00    +0.000 C 
ATOM     14  C   UNL     1      -0.352  16.322  20.880  0.00  0.00    +0.000 C 
ATOM     15  N   UNL     1       2.023  15.071  19.868  0.00  0.00    +0.000 NA
ATOM     16  C   UNL     1      -0.239   9.685  18.814  0.00  0.00    +0.000 C 
ATOM     17  C   UNL     1       0.476   8.888  17.702  0.00  0.00    +0.000 C 
ATOM     18  N   UNL     1       1.957   8.929  17.831  0.00  0.00    +0.000 N 
ATOM     19  C   UNL     1       2.811   7.850  17.993  0.00  0.00    +0.000 C 
ATOM     20  O   UNL     1       4.032   7.975  18.058  0.00  0.00    +0.000 OA
ATOM     21  N   UNL     1       2.197   6.630  18.108  0.00  0.00    +0.000 N 
ATOM     22  C   UNL     1       2.573  10.266  17.757  0.00  0.00    +0.000 C 
ATOM     23  H   UNL     1       1.386   6.529  17.524  0.00  0.00    +0.000 HD
ENDROOT
BRANCH   1  28
ATOM     24  N   UNL     1       7.651  17.730  18.543  0.00  0.00    +0.000 N 
ATOM     25  C   UNL     1       6.518  16.953  18.647  0.00  0.00    +0.000 A 
ATOM     26  N   UNL     1       6.575  15.692  18.215  0.00  0.00    +0.000 NA
ATOM     27  C   UNL     1       5.456  14.943  18.376  0.00  0.00    +0.000 A 
ATOM     28  C   UNL     1       4.287  15.401  18.954  0.00  0.00    +0.000 A 
ATOM     29  C   UNL     1       4.341  16.744  19.287  0.00  0.00    +0.000 A 
ATOM     30  N   UNL     1       5.429  17.533  19.152  0.00  0.00    +0.000 NA
ATOM     31  H   UNL     1       8.241  17.376  17.799  0.00  0.00    +0.000 HD
ATOM     32  H   UNL     1       7.393  18.706  18.509  0.00  0.00    +0.000 HD
ENDBRANCH   1  28
BRANCH  21  33
ATOM     33  C   UNL     1       2.937   5.381  18.317  0.00  0.00    +0.000 C 
ATOM     34  C   UNL     1       3.194   5.059  19.798  0.00  0.00    +0.000 C 
ATOM     35  C   UNL     1       1.891   4.840  20.564  0.00  0.00    +0.000 C 
ATOM     36  C   UNL     1       1.047   3.738  19.928  0.00  0.00    +0.000 C 
ATOM     37  C   UNL     1       0.836   3.952  18.431  0.00  0.00    +0.000 C 
ATOM     38  C   UNL     1       2.151   4.214  17.693  0.00  0.00    +0.000 C 
ENDBRANCH  21  33
TORSDOF 2
ENDMDL
MODEL 6
REMARK VINA RESULT:      -6.8      7.798     11.538
REMARK  Name = 
REMARK  2 active torsions:
REMARK  status: ('A' for Active; 'I' for Inactive)
REMARK    1  A    between atoms: C_5  and  C_6
REMARK    2  A    between atoms: N_26  and  C_27
REMARK                            x       y       z     vdW  Elec       q    Type
REMARK                         _______ _______ _______ _____ _____    ______ ____
ROOT
ATOM      1  C   UNL     1       8.351  14.870  19.526  0.00  0.00    +0.000 A 
ATOM      2  C   UNL     1       7.041  14.656  19.284  0.00  0.00    +0.000 A 
ATOM      3  N   UNL     1       6.121  15.058  20.220  0.00  0.00    +0.000 N 
ATOM      4  C   UNL     1       4.758  14.999  20.254  0.00  0.00    +0.000 A 
ATOM      5  C   UNL     1       4.402  15.602  21.440  0.00  0.00    +0.000 A 
ATOM      6  N   UNL     1       5.497  16.029  22.139  0.00  0.00    +0.000 NA
ATOM      7  C   UNL     1       6.522  15.663  21.388  0.00  0.00    +0.000 A 
ATOM      8  C   UNL     1       7.953  15.884  21.616  0.00  0.00    +0.000 A 
ATOM      9  N   UNL     1       8.451  16.485  22.766  0.00  0.00    +0.000 N 
ATOM     10  C   UNL     1       7.818  16.374  24.084  0.00  0.00    +0.000 C 
ATOM     11  C   UNL     1       7.658  17.769  24.697  0.00  0.00    +0.000 C 
ATOM     12  O   UNL     1       8.924  18.450  24.773  0.00  0.00    +0.000 OA
ATOM     13  C   UNL     1       9.503  18.578  23.462  0.00  0.00    +0.000 C 
ATOM     14  C   UNL     1       9.725  17.206  22.799  0.00  0.00    +0.000 C 
ATOM     15  N   UNL     1       8.804  15.511  20.675  0.00  0.00    +0.000 NA
ATOM     16  C   UNL     1       2.993  15.740  21.870  0.00  0.00    +0.000 C 
ATOM     17  C   UNL     1       2.072  15.512  20.653  0.00  0.00    +0.000 C 
ATOM     18  N   UNL     1       2.494  14.351  19.825  0.00  0.00    +0.000 N 
ATOM     19  C   UNL     1       1.752  13.215  19.540  0.00  0.00    +0.000 C 
ATOM     20  O   UNL     1       2.172  12.315  18.815  0.00  0.00    +0.000 OA
ATOM     21  N   UNL     1       0.526  13.150  20.147  0.00  0.00    +0.000 N 
ATOM     22  C   UNL     1       3.842  14.436  19.235  0.00  0.00    +0.000 C 
ATOM     23  H   UNL     1       0.059  14.037  20.211  0.00  0.00    +0.000 HD
ENDROOT
BRANCH   1  28
ATOM     24  N   UNL     1      12.265  13.208  15.908  0.00  0.00    +0.000 N 
ATOM     25  C   UNL     1      11.262  13.620  16.758  0.00  0.00    +0.000 A 
ATOM     26  N   UNL     1      10.420  12.700  17.234  0.00  0.00    +0.000 NA
ATOM     27  C   UNL     1       9.475  13.133  18.104  0.00  0.00    +0.000 A 
ATOM     28  C   UNL     1       9.341  14.444  18.521  0.00  0.00    +0.000 A 
ATOM     29  C   UNL     1      10.227  15.303  17.894  0.00  0.00    +0.000 A 
ATOM     30  N   UNL     1      11.189  14.924  17.024  0.00  0.00    +0.000 NA
ATOM     31  H   UNL     1      11.991  12.349  15.446  0.00  0.00    +0.000 HD
ATOM     32  H   UNL     1      12.554  13.980  15.324  0.00  0.00    +0.000 HD
ENDBRANCH   1  28
BRANCH  21  33
ATOM     33  C   UNL     1      -0.384  12.010  19.987  0.00  0.00    +0.000 C 
ATOM     34  C   UNL     1      -0.314  11.001  21.145  0.00  0.00    +0.000 C 
ATOM     35  C   UNL     1      -0.748  11.628  22.468  0.00  0.00    +0.000 C 
ATOM     36  C   UNL     1      -2.153  12.219  22.374  0.00  0.00    +0.000 C 
ATOM     37  C   UNL     1      -2.313  13.160  21.182  0.00  0.00    +0.000 C 
ATOM     38  C   UNL     1      -1.829  12.526  19.875  0.00  0.00    +0.000 C 
ENDBRANCH  21  33
TORSDOF 2
ENDMDL
MODEL 7
REMARK VINA RESULT:      -6.7      4.409      6.374
REMARK  Name = 
REMARK  2 active torsions:
REMARK  status: ('A' for Active; 'I' for Inactive)
REMARK    1  A    between atoms: C_5  and  C_6
REMARK    2  A    between atoms: N_26  and  C_27
REMARK                            x       y       z     vdW  Elec       q    Type
REMARK                         _______ _______ _______ _____ _____    ______ ____
ROOT
ATOM      1  C   UNL     1      -3.446  13.029  20.927  0.00  0.00    +0.000 A 
ATOM      2  C   UNL     1      -2.251  13.639  21.068  0.00  0.00    +0.000 A 
ATOM      3  N   UNL     1      -1.277  13.409  20.127  0.00  0.00    +0.000 N 
ATOM      4  C   UNL     1      -0.005  13.883  19.986  0.00  0.00    +0.000 A 
ATOM      5  C   UNL     1       0.460  13.321  18.818  0.00  0.00    +0.000 A 
ATOM      6  N   UNL     1      -0.479  12.516  18.235  0.00  0.00    +0.000 NA
ATOM      7  C   UNL     1      -1.509  12.570  19.063  0.00  0.00    +0.000 A 
ATOM      8  C   UNL     1      -2.821  11.928  18.940  0.00  0.00    +0.000 A 
ATOM      9  N   UNL     1      -3.145  11.063  17.901  0.00  0.00    +0.000 N 
ATOM     10  C   UNL     1      -2.175  10.188  17.235  0.00  0.00    +0.000 C 
ATOM     11  C   UNL     1      -2.284  10.361  15.717  0.00  0.00    +0.000 C 
ATOM     12  O   UNL     1      -3.626  10.107  15.262  0.00  0.00    +0.000 OA
ATOM     13  C   UNL     1      -4.550  11.005  15.903  0.00  0.00    +0.000 C 
ATOM     14  C   UNL     1      -4.518  10.858  17.435  0.00  0.00    +0.000 C 
ATOM     15  N   UNL     1      -3.741  12.200  19.849  0.00  0.00    +0.000 NA
ATOM     16  C   UNL     1       1.822  13.576  18.301  0.00  0.00    +0.000 C 
ATOM     17  C   UNL     1       2.402  14.821  19.004  0.00  0.00    +0.000 C 
ATOM     18  N   UNL     1       2.142  14.824  20.469  0.00  0.00    +0.000 N 
ATOM     19  C   UNL     1       3.085  14.847  21.484  0.00  0.00    +0.000 C 
ATOM     20  O   UNL     1       2.778  14.881  22.673  0.00  0.00    +0.000 OA
ATOM     21  N   UNL     1       4.391  14.799  21.070  0.00  0.00    +0.000 N 
ATOM     22  C   UNL     1       0.724  14.820  20.872  0.00  0.00    +0.000 C 
ATOM     23  H   UNL     1       4.566  15.315  20.226  0.00  0.00    +0.000 HD
ENDROOT
BRANCH   1  28
ATOM     24  N   UNL     1      -7.526  14.135  24.575  0.00  0.00    +0.000 N 
ATOM     25  C   UNL     1      -6.503  13.820  23.709  0.00  0.00    +0.000 A 
ATOM     26  N   UNL     1      -6.695  12.826  22.839  0.00  0.00    +0.000 NA
ATOM     27  C   UNL     1      -5.684  12.574  21.971  0.00  0.00    +0.000 A 
ATOM     28  C   UNL     1      -4.495  13.277  21.933  0.00  0.00    +0.000 A 
ATOM     29  C   UNL     1      -4.398  14.227  22.935  0.00  0.00    +0.000 A 
ATOM     30  N   UNL     1      -5.374  14.520  23.822  0.00  0.00    +0.000 NA
ATOM     31  H   UNL     1      -8.122  13.326  24.710  0.00  0.00    +0.000 HD
ATOM     32  H   UNL     1      -7.149  14.579  25.400  0.00  0.00    +0.000 HD
ENDBRANCH   1  28
BRANCH  21  33
ATOM     33  C   UNL     1       5.523  14.784  22.002  0.00  0.00    +0.000 C 
ATOM     34  C   UNL     1       6.791  14.139  21.418  0.00  0.00    +0.000 C 
ATOM     35  C   UNL     1       7.321  14.919  20.218  0.00  0.00    +0.000 C 
ATOM     36  C   UNL     1       7.594  16.378  20.575  0.00  0.00    +0.000 C 
ATOM     37  C   UNL     1       6.399  17.050  21.249  0.00  0.00    +0.000 C 
ATOM     38  C   UNL     1       5.857  16.226  22.420  0.00  0.00    +0.000 C 
ENDBRANCH  21  33
TORSDOF 2
ENDMDL
MODEL 8
REMARK VINA RESULT:      -6.6      5.072      6.298
REMARK  Name = 
REMARK  2 active torsions:
REMARK  status: ('A' for Active; 'I' for Inactive)
REMARK    1  A    between atoms: C_5  and  C_6
REMARK    2  A    between atoms: N_26  and  C_27
REMARK                            x       y       z     vdW  Elec       q    Type
REMARK                         _______ _______ _______ _____ _____    ______ ____
ROOT
ATOM      1  C   UNL     1      -1.929  14.288  21.239  0.00  0.00    +0.000 A 
ATOM      2  C   UNL     1      -0.685  14.762  21.018  0.00  0.00    +0.000 A 
ATOM      3  N   UNL     1       0.081  14.176  20.040  0.00  0.00    +0.000 N 
ATOM      4  C   UNL     1       1.339  14.437  19.579  0.00  0.00    +0.000 A 
ATOM      5  C   UNL     1       1.540  13.536  18.557  0.00  0.00    +0.000 A 
ATOM      6  N   UNL     1       0.452  12.729  18.373  0.00  0.00    +0.000 NA
ATOM      7  C   UNL     1      -0.403  13.124  19.301  0.00  0.00    +0.000 A 
ATOM      8  C   UNL     1      -1.761  12.638  19.565  0.00  0.00    +0.000 A 
ATOM      9  N   UNL     1      -2.333  11.579  18.871  0.00  0.00    +0.000 N 
ATOM     10  C   UNL     1      -1.570  10.448  18.334  0.00  0.00    +0.000 C 
ATOM     11  C   UNL     1      -1.939  10.230  16.862  0.00  0.00    +0.000 C 
ATOM     12  O   UNL     1      -3.357  10.033  16.708  0.00  0.00    +0.000 OA
ATOM     13  C   UNL     1      -4.078  11.174  17.209  0.00  0.00    +0.000 C 
ATOM     14  C   UNL     1      -3.779  11.430  18.697  0.00  0.00    +0.000 C 
ATOM     15  N   UNL     1      -2.477  13.250  20.493  0.00  0.00    +0.000 NA
ATOM     16  C   UNL     1       2.801  13.478  17.785  0.00  0.00    +0.000 C 
ATOM     17  C   UNL     1       3.592  14.783  18.017  0.00  0.00    +0.000 C 
ATOM     18  N   UNL     1       3.604  15.199  19.445  0.00  0.00    +0.000 N 
ATOM     19  C   UNL     1       4.715  15.371  20.255  0.00  0.00    +0.000 C 
ATOM     20  O   UNL     1       4.631  15.752  21.421  0.00  0.00    +0.000 OA
ATOM     21  N   UNL     1       5.916  15.056  19.676  0.00  0.00    +0.000 N 
ATOM     22  C   UNL     1       2.287  15.476  20.046  0.00  0.00    +0.000 C 
ATOM     23  H   UNL     1       5.974  15.309  18.704  0.00  0.00    +0.000 HD
ENDROOT
BRANCH   1  28
ATOM     24  N   UNL     1      -5.231  16.733  25.020  0.00  0.00    +0.000 N 
ATOM     25  C   UNL     1      -4.385  16.110  24.129  0.00  0.00    +0.000 A 
ATOM     26  N   UNL     1      -4.570  14.811  23.884  0.00  0.00    +0.000 NA
ATOM     27  C   UNL     1      -3.748  14.242  22.968  0.00  0.00    +0.000 A 
ATOM     28  C   UNL     1      -2.756  14.917  22.284  0.00  0.00    +0.000 A 
ATOM     29  C   UNL     1      -2.623  16.235  22.689  0.00  0.00    +0.000 A 
ATOM     30  N   UNL     1      -3.415  16.851  23.592  0.00  0.00    +0.000 NA
ATOM     31  H   UNL     1      -5.615  16.050  25.662  0.00  0.00    +0.000 HD
ATOM     32  H   UNL     1      -4.772  17.541  25.416  0.00  0.00    +0.000 HD
ENDBRANCH   1  28
BRANCH  21  33
ATOM     33  C   UNL     1       7.194  15.146  20.389  0.00  0.00    +0.000 C 
ATOM     34  C   UNL     1       8.179  14.022  20.028  0.00  0.00    +0.000 C 
ATOM     35  C   UNL     1       8.582  14.074  18.557  0.00  0.00    +0.000 C 
ATOM     36  C   UNL     1       9.178  15.429  18.187  0.00  0.00    +0.000 C 
ATOM     37  C   UNL     1       8.287  16.596  18.608  0.00  0.00    +0.000 C 
ATOM     38  C   UNL     1       7.859  16.498  20.074  0.00  0.00    +0.000 C 
ENDBRANCH  21  33
TORSDOF 2
ENDMDL
MODEL 9
REMARK VINA RESULT:      -6.5      7.384      8.614
REMARK  Name = 
REMARK  2 active torsions:
REMARK  status: ('A' for Active; 'I' for Inactive)
REMARK    1  A    between atoms: C_5  and  C_6
REMARK    2  A    between atoms: N_26  and  C_27
REMARK                            x       y       z     vdW  Elec       q    Type
REMARK                         _______ _______ _______ _____ _____    ______ ____
ROOT
ATOM      1  C   UNL     1       1.643  13.609  20.512  0.00  0.00    +0.000 A 
ATOM      2  C   UNL     1       2.949  13.803  20.789  0.00  0.00    +0.000 A 
ATOM      3  N   UNL     1       3.593  14.876  20.222  0.00  0.00    +0.000 N 
ATOM      4  C   UNL     1       4.873  15.338  20.323  0.00  0.00    +0.000 A 
ATOM      5  C   UNL     1       4.904  16.480  19.553  0.00  0.00    +0.000 A 
ATOM      6  N   UNL     1       3.689  16.737  18.980  0.00  0.00    +0.000 NA
ATOM      7  C   UNL     1       2.925  15.736  19.383  0.00  0.00    +0.000 A 
ATOM      8  C   UNL     1       1.505  15.497  19.108  0.00  0.00    +0.000 A 
ATOM      9  N   UNL     1       0.750  16.311  18.271  0.00  0.00    +0.000 N 
ATOM     10  C   UNL     1       1.298  17.021  17.112  0.00  0.00    +0.000 C 
ATOM     11  C   UNL     1       0.884  18.496  17.170  0.00  0.00    +0.000 C 
ATOM     12  O   UNL     1      -0.547  18.629  17.245  0.00  0.00    +0.000 OA
ATOM     13  C   UNL     1      -1.052  17.955  18.412  0.00  0.00    +0.000 C 
ATOM     14  C   UNL     1      -0.702  16.456  18.401  0.00  0.00    +0.000 C 
ATOM     15  N   UNL     1       0.915  14.472  19.698  0.00  0.00    +0.000 NA
ATOM     16  C   UNL     1       6.129  17.293  19.386  0.00  0.00    +0.000 C 
ATOM     17  C   UNL     1       7.139  16.911  20.489  0.00  0.00    +0.000 C 
ATOM     18  N   UNL     1       7.235  15.441  20.693  0.00  0.00    +0.000 N 
ATOM     19  C   UNL     1       8.366  14.651  20.554  0.00  0.00    +0.000 C 
ATOM     20  O   UNL     1       8.360  13.442  20.777  0.00  0.00    +0.000 OA
ATOM     21  N   UNL     1       9.488  15.307  20.121  0.00  0.00    +0.000 N 
ATOM     22  C   UNL     1       5.992  14.765  21.106  0.00  0.00    +0.000 C 
ATOM     23  H   UNL     1       9.582  16.236  20.493  0.00  0.00    +0.000 HD
ENDROOT
BRANCH   1  28
ATOM     24  N   UNL     1      -0.811   9.258  23.006  0.00  0.00    +0.000 N 
ATOM     25  C   UNL     1      -0.250  10.336  22.357  0.00  0.00    +0.000 A 
ATOM     26  N   UNL     1      -0.633  11.562  22.719  0.00  0.00    +0.000 NA
ATOM     27  C   UNL     1      -0.027  12.599  22.090  0.00  0.00    +0.000 A 
ATOM     28  C   UNL     1       0.949  12.461  21.122  0.00  0.00    +0.000 A 
ATOM     29  C   UNL     1       1.195  11.141  20.789  0.00  0.00    +0.000 A 
ATOM     30  N   UNL     1       0.623  10.072  21.385  0.00  0.00    +0.000 NA
ATOM     31  H   UNL     1      -1.715   9.518  23.381  0.00  0.00    +0.000 HD
ATOM     32  H   UNL     1      -0.768   8.443  22.412  0.00  0.00    +0.000 HD
ENDBRANCH   1  28
BRANCH  21  33
ATOM     33  C   UNL     1      10.768  14.629  19.887  0.00  0.00    +0.000 C 
ATOM     34  C   UNL     1      10.786  13.778  18.607  0.00  0.00    +0.000 C 
ATOM     35  C   UNL     1      10.595  14.632  17.356  0.00  0.00    +0.000 C 
ATOM     36  C   UNL     1      11.646  15.735  17.265  0.00  0.00    +0.000 C 
ATOM     37  C   UNL     1      11.743  16.559  18.546  0.00  0.00    +0.000 C 
ATOM     38  C   UNL     1      11.889  15.679  19.791  0.00  0.00    +0.000 C 
ENDBRANCH  21  33
TORSDOF 2
ENDMDL
