MODEL 1
REMARK VINA RESULT:      -7.6      0.000      0.000
REMARK  Name = 
REMARK  6 active torsions:
REMARK  status: ('A' for Active; 'I' for Inactive)
REMARK    1  A    between atoms: C_1  and  O_2
REMARK    2  A    between atoms: O_2  and  C_3
REMARK    3  A    between atoms: C_6  and  N_7
REMARK    4  A    between atoms: N_10  and  C_11
REMARK    5  A    between atoms: C_20  and  C_21
REMARK    6  A    between atoms: N_26  and  C_27
REMARK                            x       y       z     vdW  Elec       q    Type
REMARK                         _______ _______ _______ _____ _____    ______ ____
ROOT
ATOM      1  C   UNL     1      -0.117  12.653  18.556  0.00  0.00    +0.000 A 
ATOM      2  C   UNL     1       1.258  12.469  18.749  0.00  0.00    +0.000 A 
ATOM      3  C   UNL     1       1.780  11.228  19.091  0.00  0.00    +0.000 A 
ATOM      4  C   UNL     1       0.951  10.122  19.225  0.00  0.00    +0.000 A 
ATOM      5  C   UNL     1      -0.417  10.290  18.966  0.00  0.00    +0.000 A 
ATOM      6  C   UNL     1      -0.994  11.545  18.634  0.00  0.00    +0.000 A 
ENDROOT
BRANCH   6   7
ATOM      7  C   UNL     1      -2.474  11.610  18.418  0.00  0.00    +0.000 A 
ATOM      8  C   UNL     1      -3.237  11.197  17.328  0.00  0.00    +0.000 A 
ATOM      9 BR   UNL     1      -2.766  10.290  15.752  0.00  0.00    +0.000 Br
ATOM     10  C   UNL     1      -4.560  11.579  17.569  0.00  0.00    +0.000 A 
ATOM     11  N   UNL     1      -4.690  12.163  18.753  0.00  0.00    +0.000 NA
ATOM     12  N   UNL     1      -3.437  12.149  19.270  0.00  0.00    +0.000 N 
ATOM     13  C   UNL     1      -3.308  12.714  20.594  0.00  0.00    +0.000 C 
ENDBRANCH   6   7
BRANCH   4  14
ATOM     14  N   UNL     1       1.431   8.851  19.621  0.00  0.00    +0.000 N 
ATOM     15  C   UNL     1       2.115   7.964  18.804  0.00  0.00    +0.000 C 
ATOM     16  O   UNL     1       2.373   8.150  17.621  0.00  0.00    +0.000 OA
ATOM     17  N   UNL     1       2.433   6.781  19.458  0.00  0.00    +0.000 N 
ATOM     18  H   UNL     1       1.291   8.588  20.586  0.00  0.00    +0.000 HD
ATOM     19  H   UNL     1       1.773   6.500  20.166  0.00  0.00    +0.000 HD
BRANCH  17  20
ATOM     20  C   UNL     1       3.081   5.742  18.746  0.00  0.00    +0.000 A 
ATOM     21  C   UNL     1       2.359   4.744  18.079  0.00  0.00    +0.000 A 
ATOM     22  C   UNL     1       3.030   3.688  17.476  0.00  0.00    +0.000 A 
ATOM     23  F   UNL     1       2.338   2.732  16.850  0.00  0.00    +0.000 F 
ATOM     24  C   UNL     1       4.415   3.598  17.531  0.00  0.00    +0.000 A 
ATOM     25  C   UNL     1       5.125   4.603  18.173  0.00  0.00    +0.000 A 
ATOM     26  F   UNL     1       6.454   4.509  18.272  0.00  0.00    +0.000 F 
ATOM     27  C   UNL     1       4.475   5.688  18.762  0.00  0.00    +0.000 A 
ENDBRANCH  17  20
ENDBRANCH   4  14
BRANCH   1  29
ATOM     28  C   UNL     1      -0.441  14.928  19.250  0.00  0.00    +0.000 C 
ATOM     29  O   UNL     1      -0.640  13.890  18.294  0.00  0.00    +0.000 OA
ENDBRANCH   1  29
TORSDOF 4
ENDMDL
MODEL 2
REMARK VINA RESULT:      -7.6      0.258      1.600
REMARK  Name = 
REMARK  6 active torsions:
REMARK  status: ('A' for Active; 'I' for Inactive)
REMARK    1  A    between atoms: C_1  and  O_2
REMARK    2  A    between atoms: O_2  and  C_3
REMARK    3  A    between atoms: C_6  and  N_7
REMARK    4  A    between atoms: N_10  and  C_11
REMARK    5  A    between atoms: C_20  and  C_21
REMARK    6  A    between atoms: N_26  and  C_27
REMARK                            x       y       z     vdW  Elec       q    Type
REMARK                         _______ _______ _______ _____ _____    ______ ____
ROOT
ATOM      1  C   UNL     1      -0.037  12.543  18.548  0.00  0.00    +0.000 A 
ATOM      2  C   UNL     1       1.338  12.323  18.699  0.00  0.00    +0.000 A 
ATOM      3  C   UNL     1       1.832  11.093  19.113  0.00  0.00    +0.000 A 
ATOM      4  C   UNL     1       0.974  10.031  19.364  0.00  0.00    +0.000 A 
ATOM      5  C   UNL     1      -0.398  10.229  19.149  0.00  0.00    +0.000 A 
ATOM      6  C   UNL     1      -0.946  11.476  18.745  0.00  0.00    +0.000 A 
ENDROOT
BRANCH   6   7
ATOM      7  C   UNL     1      -2.431  11.579  18.585  0.00  0.00    +0.000 A 
ATOM      8  C   UNL     1      -3.249  11.155  17.539  0.00  0.00    +0.000 A 
ATOM      9 BR   UNL     1      -2.867  10.186  15.976  0.00  0.00    +0.000 Br
ATOM     10  C   UNL     1      -4.549  11.584  17.819  0.00  0.00    +0.000 A 
ATOM     11  N   UNL     1      -4.616  12.208  18.988  0.00  0.00    +0.000 NA
ATOM     12  N   UNL     1      -3.344  12.172  19.456  0.00  0.00    +0.000 N 
ATOM     13  C   UNL     1      -3.146  12.774  20.755  0.00  0.00    +0.000 C 
ENDBRANCH   6   7
BRANCH   4  14
ATOM     14  N   UNL     1       1.427   8.777  19.836  0.00  0.00    +0.000 N 
ATOM     15  C   UNL     1       2.139   7.851  19.089  0.00  0.00    +0.000 C 
ATOM     16  O   UNL     1       2.448   7.983  17.911  0.00  0.00    +0.000 OA
ATOM     17  N   UNL     1       2.421   6.697  19.808  0.00  0.00    +0.000 N 
ATOM     18  H   UNL     1       1.245   8.558  20.805  0.00  0.00    +0.000 HD
ATOM     19  H   UNL     1       1.730   6.451  20.498  0.00  0.00    +0.000 HD
BRANCH  17  20
ATOM     20  C   UNL     1       3.091   5.624  19.170  0.00  0.00    +0.000 A 
ATOM     21  C   UNL     1       4.489   5.526  19.167  0.00  0.00    +0.000 A 
ATOM     22  C   UNL     1       5.111   4.514  18.446  0.00  0.00    +0.000 A 
ATOM     23  F   UNL     1       6.445   4.430  18.437  0.00  0.00    +0.000 F 
ATOM     24  C   UNL     1       4.368   3.596  17.716  0.00  0.00    +0.000 A 
ATOM     25  C   UNL     1       2.982   3.686  17.743  0.00  0.00    +0.000 A 
ATOM     26  F   UNL     1       2.255   2.837  17.012  0.00  0.00    +0.000 F 
ATOM     27  C   UNL     1       2.334   4.676  18.481  0.00  0.00    +0.000 A 
ENDBRANCH  17  20
ENDBRANCH   4  14
BRANCH   1  29
ATOM     28  C   UNL     1      -0.406  14.835  19.159  0.00  0.00    +0.000 C 
ATOM     29  O   UNL     1      -0.530  13.775  18.214  0.00  0.00    +0.000 OA
ENDBRANCH   1  29
TORSDOF 4
ENDMDL
MODEL 3
REMARK VINA RESULT:      -7.4      1.455      1.748
REMARK  Name = 
REMARK  6 active torsions:
REMARK  status: ('A' for Active; 'I' for Inactive)
REMARK    1  A    between atoms: C_1  and  O_2
REMARK    2  A    between atoms: O_2  and  C_3
REMARK    3  A    between atoms: C_6  and  N_7
REMARK    4  A    between atoms: N_10  and  C_11
REMARK    5  A    between atoms: C_20  and  C_21
REMARK    6  A    between atoms: N_26  and  C_27
REMARK                            x       y       z     vdW  Elec       q    Type
REMARK                         _______ _______ _______ _____ _____    ______ ____
ROOT
ATOM      1  C   UNL     1      -0.234  12.910  18.638  0.00  0.00    +0.000 A 
ATOM      2  C   UNL     1       1.144  12.771  18.841  0.00  0.00    +0.000 A 
ATOM      3  C   UNL     1       1.718  11.529  19.083  0.00  0.00    +0.000 A 
ATOM      4  C   UNL     1       0.940  10.380  19.104  0.00  0.00    +0.000 A 
ATOM      5  C   UNL     1      -0.431  10.509  18.835  0.00  0.00    +0.000 A 
ATOM      6  C   UNL     1      -1.060  11.761  18.602  0.00  0.00    +0.000 A 
ENDROOT
BRANCH   6   7
ATOM      7  C   UNL     1      -2.538  11.778  18.364  0.00  0.00    +0.000 A 
ATOM      8  C   UNL     1      -3.577  12.144  19.217  0.00  0.00    +0.000 A 
ATOM      9 BR   UNL     1      -3.567  12.872  20.948  0.00  0.00    +0.000 Br
ATOM     10  C   UNL     1      -4.779  11.875  18.557  0.00  0.00    +0.000 A 
ATOM     11  N   UNL     1      -4.570  11.409  17.333  0.00  0.00    +0.000 NA
ATOM     12  N   UNL     1      -3.220  11.384  17.213  0.00  0.00    +0.000 N 
ATOM     13  C   UNL     1      -2.721  10.931  15.934  0.00  0.00    +0.000 C 
ENDBRANCH   6   7
BRANCH   4  14
ATOM     14  N   UNL     1       1.472   9.103  19.397  0.00  0.00    +0.000 N 
ATOM     15  C   UNL     1       2.084   8.262  18.480  0.00  0.00    +0.000 C 
ATOM     16  O   UNL     1       2.224   8.501  17.287  0.00  0.00    +0.000 OA
ATOM     17  N   UNL     1       2.479   7.058  19.049  0.00  0.00    +0.000 N 
ATOM     18  H   UNL     1       1.430   8.797  20.359  0.00  0.00    +0.000 HD
ATOM     19  H   UNL     1       1.895   6.737  19.804  0.00  0.00    +0.000 HD
BRANCH  17  20
ATOM     20  C   UNL     1       3.068   6.061  18.233  0.00  0.00    +0.000 A 
ATOM     21  C   UNL     1       2.416   4.851  17.962  0.00  0.00    +0.000 A 
ATOM     22  C   UNL     1       3.068   3.858  17.240  0.00  0.00    +0.000 A 
ATOM     23  F   UNL     1       2.446   2.702  16.992  0.00  0.00    +0.000 F 
ATOM     24  C   UNL     1       4.368   4.042  16.788  0.00  0.00    +0.000 A 
ATOM     25  C   UNL     1       4.999   5.252  17.040  0.00  0.00    +0.000 A 
ATOM     26  F   UNL     1       6.264   5.428  16.649  0.00  0.00    +0.000 F 
ATOM     27  C   UNL     1       4.355   6.274  17.739  0.00  0.00    +0.000 A 
ENDBRANCH  17  20
ENDBRANCH   4  14
BRANCH   1  29
ATOM     28  C   UNL     1      -0.055  15.297  18.828  0.00  0.00    +0.000 C 
ATOM     29  O   UNL     1      -0.810  14.141  18.476  0.00  0.00    +0.000 OA
ENDBRANCH   1  29
TORSDOF 4
ENDMDL
MODEL 4
REMARK VINA RESULT:      -7.4      1.350      2.286
REMARK  Name = 
REMARK  6 active torsions:
REMARK  status: ('A' for Active; 'I' for Inactive)
REMARK    1  A    between atoms: C_1  and  O_2
REMARK    2  A    between atoms: O_2  and  C_3
REMARK    3  A    between atoms: C_6  and  N_7
REMARK    4  A    between atoms: N_10  and  C_11
REMARK    5  A    between atoms: C_20  and  C_21
REMARK    6  A    between atoms: N_26  and  C_27
REMARK                            x       y       z     vdW  Elec       q    Type
REMARK                         _______ _______ _______ _____ _____    ______ ____
ROOT
ATOM      1  C   UNL     1      -0.045  12.692  18.562  0.00  0.00    +0.000 A 
ATOM      2  C   UNL     1       1.318  12.468  18.787  0.00  0.00    +0.000 A 
ATOM      3  C   UNL     1       1.789  11.225  19.192  0.00  0.00    +0.000 A 
ATOM      4  C   UNL     1       0.919  10.157  19.360  0.00  0.00    +0.000 A 
ATOM      5  C   UNL     1      -0.438  10.361  19.071  0.00  0.00    +0.000 A 
ATOM      6  C   UNL     1      -0.963  11.620  18.673  0.00  0.00    +0.000 A 
ENDROOT
BRANCH   6   7
ATOM      7  C   UNL     1      -2.436  11.728  18.428  0.00  0.00    +0.000 A 
ATOM      8  C   UNL     1      -3.453  12.171  19.272  0.00  0.00    +0.000 A 
ATOM      9 BR   UNL     1      -3.402  12.923  20.993  0.00  0.00    +0.000 Br
ATOM     10  C   UNL     1      -4.668  11.970  18.611  0.00  0.00    +0.000 A 
ATOM     11  N   UNL     1      -4.485  11.474  17.395  0.00  0.00    +0.000 NA
ATOM     12  N   UNL     1      -3.139  11.362  17.281  0.00  0.00    +0.000 N 
ATOM     13  C   UNL     1      -2.665  10.860  16.011  0.00  0.00    +0.000 C 
ENDBRANCH   6   7
BRANCH   4  14
ATOM     14  N   UNL     1       1.346   8.889  19.820  0.00  0.00    +0.000 N 
ATOM     15  C   UNL     1       2.113   7.991  19.093  0.00  0.00    +0.000 C 
ATOM     16  O   UNL     1       2.502   8.164  17.945  0.00  0.00    +0.000 OA
ATOM     17  N   UNL     1       2.351   6.814  19.790  0.00  0.00    +0.000 N 
ATOM     18  H   UNL     1       1.098   8.636  20.766  0.00  0.00    +0.000 HD
ATOM     19  H   UNL     1       1.614   6.542  20.423  0.00  0.00    +0.000 HD
BRANCH  17  20
ATOM     20  C   UNL     1       3.069   5.765  19.165  0.00  0.00    +0.000 A 
ATOM     21  C   UNL     1       4.453   5.621  19.329  0.00  0.00    +0.000 A 
ATOM     22  C   UNL     1       5.137   4.640  18.620  0.00  0.00    +0.000 A 
ATOM     23  F   UNL     1       6.458   4.511  18.771  0.00  0.00    +0.000 F 
ATOM     24  C   UNL     1       4.469   3.801  17.738  0.00  0.00    +0.000 A 
ATOM     25  C   UNL     1       3.094   3.935  17.598  0.00  0.00    +0.000 A 
ATOM     26  F   UNL     1       2.444   3.164  16.722  0.00  0.00    +0.000 F 
ATOM     27  C   UNL     1       2.382   4.894  18.320  0.00  0.00    +0.000 A 
ENDBRANCH  17  20
ENDBRANCH   4  14
BRANCH   1  29
ATOM     28  C   UNL     1      -0.498  14.951  19.234  0.00  0.00    +0.000 C 
ATOM     29  O   UNL     1      -0.519  13.934  18.237  0.00  0.00    +0.000 OA
ENDBRANCH   1  29
TORSDOF 4
ENDMDL
MODEL 5
REMARK VINA RESULT:      -7.3      2.508      3.276
REMARK  Name = 
REMARK  6 active torsions:
REMARK  status: ('A' for Active; 'I' for Inactive)
REMARK    1  A    between atoms: C_1  and  O_2
REMARK    2  A    between atoms: O_2  and  C_3
REMARK    3  A    between atoms: C_6  and  N_7
REMARK    4  A    between atoms: N_10  and  C_11
REMARK    5  A    between atoms: C_20  and  C_21
REMARK    6  A    between atoms: N_26  and  C_27
REMARK                            x       y       z     vdW  Elec       q    Type
REMARK                         _______ _______ _______ _____ _____    ______ ____
ROOT
ATOM      1  C   UNL     1      -0.870  11.263  22.145  0.00  0.00    +0.000 A 
ATOM      2  C   UNL     1      -0.813  10.188  23.039  0.00  0.00    +0.000 A 
ATOM      3  C   UNL     1       0.039   9.112  22.825  0.00  0.00    +0.000 A 
ATOM      4  C   UNL     1       0.883   9.085  21.723  0.00  0.00    +0.000 A 
ATOM      5  C   UNL     1       0.877  10.192  20.862  0.00  0.00    +0.000 A 
ATOM      6  C   UNL     1       0.007  11.302  21.035  0.00  0.00    +0.000 A 
ENDROOT
BRANCH   6   7
ATOM      7  C   UNL     1       0.063  12.409  20.028  0.00  0.00    +0.000 A 
ATOM      8  C   UNL     1      -0.579  12.531  18.797  0.00  0.00    +0.000 A 
ATOM      9 BR   UNL     1      -1.856  11.447  17.947  0.00  0.00    +0.000 Br
ATOM     10  C   UNL     1      -0.110  13.699  18.190  0.00  0.00    +0.000 A 
ATOM     11  N   UNL     1       0.748  14.343  18.970  0.00  0.00    +0.000 NA
ATOM     12  N   UNL     1       0.822  13.577  20.086  0.00  0.00    +0.000 N 
ATOM     13  C   UNL     1       1.688  14.082  21.127  0.00  0.00    +0.000 C 
ENDBRANCH   6   7
BRANCH   4  14
ATOM     14  N   UNL     1       1.730   7.989  21.437  0.00  0.00    +0.000 N 
ATOM     15  C   UNL     1       2.020   7.512  20.167  0.00  0.00    +0.000 C 
ATOM     16  O   UNL     1       1.561   7.960  19.124  0.00  0.00    +0.000 OA
ATOM     17  N   UNL     1       2.856   6.404  20.197  0.00  0.00    +0.000 N 
ATOM     18  H   UNL     1       2.184   7.542  22.220  0.00  0.00    +0.000 HD
ATOM     19  H   UNL     1       2.747   5.815  21.008  0.00  0.00    +0.000 HD
BRANCH  17  20
ATOM     20  C   UNL     1       3.201   5.757  18.985  0.00  0.00    +0.000 A 
ATOM     21  C   UNL     1       2.563   4.581  18.570  0.00  0.00    +0.000 A 
ATOM     22  C   UNL     1       2.998   3.923  17.426  0.00  0.00    +0.000 A 
ATOM     23  F   UNL     1       2.394   2.795  17.038  0.00  0.00    +0.000 F 
ATOM     24  C   UNL     1       4.069   4.408  16.687  0.00  0.00    +0.000 A 
ATOM     25  C   UNL     1       4.681   5.587  17.091  0.00  0.00    +0.000 A 
ATOM     26  F   UNL     1       5.739   6.043  16.415  0.00  0.00    +0.000 F 
ATOM     27  C   UNL     1       4.244   6.280  18.220  0.00  0.00    +0.000 A 
ENDBRANCH  17  20
ENDBRANCH   4  14
BRANCH   1  29
ATOM     28  C   UNL     1      -2.689  12.207  23.394  0.00  0.00    +0.000 C 
ATOM     29  O   UNL     1      -1.763  12.286  22.315  0.00  0.00    +0.000 OA
ENDBRANCH   1  29
TORSDOF 4
ENDMDL
MODEL 6
REMARK VINA RESULT:      -7.3      4.225      9.572
REMARK  Name = 
REMARK  6 active torsions:
REMARK  status: ('A' for Active; 'I' for Inactive)
REMARK    1  A    between atoms: C_1  and  O_2
REMARK    2  A    between atoms: O_2  and  C_3
REMARK    3  A    between atoms: C_6  and  N_7
REMARK    4  A    between atoms: N_10  and  C_11
REMARK    5  A    between atoms: C_20  and  C_21
REMARK    6  A    between atoms: N_26  and  C_27
REMARK                            x       y       z     vdW  Elec       q    Type
REMARK                         _______ _______ _______ _____ _____    ______ ____
ROOT
ATOM      1  C   UNL     1       3.405   3.808  18.145  0.00  0.00    +0.000 A 
ATOM      2  C   UNL     1       2.114   3.957  18.667  0.00  0.00    +0.000 A 
ATOM      3  C   UNL     1       1.675   5.173  19.174  0.00  0.00    +0.000 A 
ATOM      4  C   UNL     1       2.500   6.289  19.155  0.00  0.00    +0.000 A 
ATOM      5  C   UNL     1       3.769   6.159  18.572  0.00  0.00    +0.000 A 
ATOM      6  C   UNL     1       4.263   4.930  18.060  0.00  0.00    +0.000 A 
ENDROOT
BRANCH   6   7
ATOM      7  C   UNL     1       5.650   4.904  17.496  0.00  0.00    +0.000 A 
ATOM      8  C   UNL     1       6.082   4.656  16.194  0.00  0.00    +0.000 A 
ATOM      9 BR   UNL     1       5.129   4.380  14.600  0.00  0.00    +0.000 Br
ATOM     10  C   UNL     1       7.479   4.636  16.210  0.00  0.00    +0.000 A 
ATOM     11  N   UNL     1       7.958   4.898  17.419  0.00  0.00    +0.000 NA
ATOM     12  N   UNL     1       6.852   5.089  18.179  0.00  0.00    +0.000 N 
ATOM     13  C   UNL     1       7.103   5.422  19.563  0.00  0.00    +0.000 C 
ENDBRANCH   6   7
BRANCH   4  14
ATOM     14  N   UNL     1       2.115   7.534  19.706  0.00  0.00    +0.000 N 
ATOM     15  C   UNL     1       1.568   8.590  18.994  0.00  0.00    +0.000 C 
ATOM     16  O   UNL     1       1.370   8.597  17.785  0.00  0.00    +0.000 OA
ATOM     17  N   UNL     1       1.319   9.696  19.795  0.00  0.00    +0.000 N 
ATOM     18  H   UNL     1       2.216   7.645  20.705  0.00  0.00    +0.000 HD
ATOM     19  H   UNL     1       1.956   9.808  20.568  0.00  0.00    +0.000 HD
BRANCH  17  20
ATOM     20  C   UNL     1       0.816  10.884  19.210  0.00  0.00    +0.000 A 
ATOM     21  C   UNL     1       1.647  11.976  18.929  0.00  0.00    +0.000 A 
ATOM     22  C   UNL     1       1.098  13.158  18.447  0.00  0.00    +0.000 A 
ATOM     23  F   UNL     1       1.892  14.202  18.189  0.00  0.00    +0.000 F 
ATOM     24  C   UNL     1      -0.271  13.281  18.247  0.00  0.00    +0.000 A 
ATOM     25  C   UNL     1      -1.085  12.186  18.506  0.00  0.00    +0.000 A 
ATOM     26  F   UNL     1      -2.408  12.302  18.359  0.00  0.00    +0.000 F 
ATOM     27  C   UNL     1      -0.554  10.980  18.964  0.00  0.00    +0.000 A 
ENDBRANCH  17  20
ENDBRANCH   4  14
BRANCH   1  29
ATOM     28  C   UNL     1       3.529   1.433  18.472  0.00  0.00    +0.000 C 
ATOM     29  O   UNL     1       3.864   2.593  17.715  0.00  0.00    +0.000 OA
ENDBRANCH   1  29
TORSDOF 4
ENDMDL
MODEL 7
REMARK VINA RESULT:      -7.2      2.835      3.564
REMARK  Name = 
REMARK  6 active torsions:
REMARK  status: ('A' for Active; 'I' for Inactive)
REMARK    1  A    between atoms: C_1  and  O_2
REMARK    2  A    between atoms: O_2  and  C_3
REMARK    3  A    between atoms: C_6  and  N_7
REMARK    4  A    between atoms: N_10  and  C_11
REMARK    5  A    between atoms: C_20  and  C_21
REMARK    6  A    between atoms: N_26  and  C_27
REMARK                            x       y       z     vdW  Elec       q    Type
REMARK                         _______ _______ _______ _____ _____    ______ ____
ROOT
ATOM      1  C   UNL     1      -0.799  11.446  22.172  0.00  0.00    +0.000 A 
ATOM      2  C   UNL     1      -0.806  10.352  23.047  0.00  0.00    +0.000 A 
ATOM      3  C   UNL     1       0.027   9.259  22.844  0.00  0.00    +0.000 A 
ATOM      4  C   UNL     1       0.915   9.231  21.778  0.00  0.00    +0.000 A 
ATOM      5  C   UNL     1       0.971  10.354  20.939  0.00  0.00    +0.000 A 
ATOM      6  C   UNL     1       0.124  11.483  21.100  0.00  0.00    +0.000 A 
ENDROOT
BRANCH   6   7
ATOM      7  C   UNL     1       0.248  12.607  20.119  0.00  0.00    +0.000 A 
ATOM      8  C   UNL     1       1.079  13.726  20.141  0.00  0.00    +0.000 A 
ATOM      9 BR   UNL     1       2.455  14.230  21.315  0.00  0.00    +0.000 Br
ATOM     10  C   UNL     1       0.732  14.531  19.053  0.00  0.00    +0.000 A 
ATOM     11  N   UNL     1      -0.228  13.978  18.322  0.00  0.00    +0.000 NA
ATOM     12  N   UNL     1      -0.490  12.807  18.952  0.00  0.00    +0.000 N 
ATOM     13  C   UNL     1      -1.502  11.983  18.329  0.00  0.00    +0.000 C 
ENDBRANCH   6   7
BRANCH   4  14
ATOM     14  N   UNL     1       1.745   8.119  21.503  0.00  0.00    +0.000 N 
ATOM     15  C   UNL     1       1.953   7.566  20.249  0.00  0.00    +0.000 C 
ATOM     16  O   UNL     1       1.425   7.950  19.213  0.00  0.00    +0.000 OA
ATOM     17  N   UNL     1       2.793   6.462  20.291  0.00  0.00    +0.000 N 
ATOM     18  H   UNL     1       2.251   7.721  22.281  0.00  0.00    +0.000 HD
ATOM     19  H   UNL     1       2.740   5.924  21.142  0.00  0.00    +0.000 HD
BRANCH  17  20
ATOM     20  C   UNL     1       3.061   5.742  19.100  0.00  0.00    +0.000 A 
ATOM     21  C   UNL     1       2.363   4.572  18.774  0.00  0.00    +0.000 A 
ATOM     22  C   UNL     1       2.723   3.841  17.648  0.00  0.00    +0.000 A 
ATOM     23  F   UNL     1       2.062   2.720  17.346  0.00  0.00    +0.000 F 
ATOM     24  C   UNL     1       3.776   4.248  16.840  0.00  0.00    +0.000 A 
ATOM     25  C   UNL     1       4.447   5.422  17.156  0.00  0.00    +0.000 A 
ATOM     26  F   UNL     1       5.490   5.804  16.413  0.00  0.00    +0.000 F 
ATOM     27  C   UNL     1       4.086   6.186  18.266  0.00  0.00    +0.000 A 
ENDBRANCH  17  20
ENDBRANCH   4  14
BRANCH   1  29
ATOM     28  C   UNL     1      -1.374  13.486  23.299  0.00  0.00    +0.000 C 
ATOM     29  O   UNL     1      -1.672  12.488  22.327  0.00  0.00    +0.000 OA
ENDBRANCH   1  29
TORSDOF 4
ENDMDL
MODEL 8
REMARK VINA RESULT:      -7.2      7.069      9.644
REMARK  Name = 
REMARK  6 active torsions:
REMARK  status: ('A' for Active; 'I' for Inactive)
REMARK    1  A    between atoms: C_1  and  O_2
REMARK    2  A    between atoms: O_2  and  C_3
REMARK    3  A    between atoms: C_6  and  N_7
REMARK    4  A    between atoms: N_10  and  C_11
REMARK    5  A    between atoms: C_20  and  C_21
REMARK    6  A    between atoms: N_26  and  C_27
REMARK                            x       y       z     vdW  Elec       q    Type
REMARK                         _______ _______ _______ _____ _____    ______ ____
ROOT
ATOM      1  C   UNL     1       5.630   4.879  16.704  0.00  0.00    +0.000 A 
ATOM      2  C   UNL     1       6.870   5.205  16.141  0.00  0.00    +0.000 A 
ATOM      3  C   UNL     1       7.769   6.033  16.802  0.00  0.00    +0.000 A 
ATOM      4  C   UNL     1       7.472   6.543  18.058  0.00  0.00    +0.000 A 
ATOM      5  C   UNL     1       6.259   6.164  18.653  0.00  0.00    +0.000 A 
ATOM      6  C   UNL     1       5.305   5.335  18.003  0.00  0.00    +0.000 A 
ENDROOT
BRANCH   6   7
ATOM      7  C   UNL     1       4.027   5.029  18.721  0.00  0.00    +0.000 A 
ATOM      8  C   UNL     1       2.908   5.831  18.936  0.00  0.00    +0.000 A 
ATOM      9 BR   UNL     1       2.477   7.554  18.327  0.00  0.00    +0.000 Br
ATOM     10  C   UNL     1       2.030   5.119  19.758  0.00  0.00    +0.000 A 
ATOM     11  N   UNL     1       2.497   3.909  20.038  0.00  0.00    +0.000 NA
ATOM     12  N   UNL     1       3.683   3.852  19.385  0.00  0.00    +0.000 N 
ATOM     13  C   UNL     1       4.397   2.601  19.509  0.00  0.00    +0.000 C 
ENDBRANCH   6   7
BRANCH   4  14
ATOM     14  N   UNL     1       8.333   7.430  18.746  0.00  0.00    +0.000 N 
ATOM     15  C   UNL     1       8.418   8.796  18.523  0.00  0.00    +0.000 C 
ATOM     16  O   UNL     1       7.777   9.414  17.683  0.00  0.00    +0.000 OA
ATOM     17  N   UNL     1       9.375   9.403  19.326  0.00  0.00    +0.000 N 
ATOM     18  H   UNL     1       8.905   7.038  19.480  0.00  0.00    +0.000 HD
ATOM     19  H   UNL     1      10.164   8.820  19.556  0.00  0.00    +0.000 HD
BRANCH  17  20
ATOM     20  C   UNL     1       9.630  10.789  19.180  0.00  0.00    +0.000 A 
ATOM     21  C   UNL     1      10.077  11.332  17.968  0.00  0.00    +0.000 A 
ATOM     22  C   UNL     1      10.411  12.679  17.893  0.00  0.00    +0.000 A 
ATOM     23  F   UNL     1      10.847  13.192  16.739  0.00  0.00    +0.000 F 
ATOM     24  C   UNL     1      10.319  13.500  19.009  0.00  0.00    +0.000 A 
ATOM     25  C   UNL     1       9.854  12.960  20.201  0.00  0.00    +0.000 A 
ATOM     26  F   UNL     1       9.800  13.727  21.294  0.00  0.00    +0.000 F 
ATOM     27  C   UNL     1       9.486  11.617  20.293  0.00  0.00    +0.000 A 
ENDBRANCH  17  20
ENDBRANCH   4  14
BRANCH   1  29
ATOM     28  C   UNL     1       4.972   3.814  14.656  0.00  0.00    +0.000 C 
ATOM     29  O   UNL     1       4.713   4.126  16.021  0.00  0.00    +0.000 OA
ENDBRANCH   1  29
TORSDOF 4
ENDMDL
MODEL 9
REMARK VINA RESULT:      -7.2      2.657      3.511
REMARK  Name = 
REMARK  6 active torsions:
REMARK  status: ('A' for Active; 'I' for Inactive)
REMARK    1  A    between atoms: C_1  and  O_2
REMARK    2  A    between atoms: O_2  and  C_3
REMARK    3  A    between atoms: C_6  and  N_7
REMARK    4  A    between atoms: N_10  and  C_11
REMARK    5  A    between atoms: C_20  and  C_21
REMARK    6  A    between atoms: N_26  and  C_27
REMARK                            x       y       z     vdW  Elec       q    Type
REMARK                         _______ _______ _______ _____ _____    ______ ____
ROOT
ATOM      1  C   UNL     1       0.204   8.950  21.046  0.00  0.00    +0.000 A 
ATOM      2  C   UNL     1       1.152   7.923  21.121  0.00  0.00    +0.000 A 
ATOM      3  C   UNL     1       2.042   7.683  20.082  0.00  0.00    +0.000 A 
ATOM      4  C   UNL     1       2.033   8.476  18.943  0.00  0.00    +0.000 A 
ATOM      5  C   UNL     1       1.129   9.547  18.894  0.00  0.00    +0.000 A 
ATOM      6  C   UNL     1       0.190   9.815  19.926  0.00  0.00    +0.000 A 
ENDROOT
BRANCH   6   7
ATOM      7  C   UNL     1      -0.753  10.964  19.744  0.00  0.00    +0.000 A 
ATOM      8  C   UNL     1      -1.833  11.106  18.875  0.00  0.00    +0.000 A 
ATOM      9 BR   UNL     1      -2.629   9.902  17.674  0.00  0.00    +0.000 Br
ATOM     10  C   UNL     1      -2.319  12.408  19.016  0.00  0.00    +0.000 A 
ATOM     11  N   UNL     1      -1.651  13.081  19.944  0.00  0.00    +0.000 NA
ATOM     12  N   UNL     1      -0.732  12.195  20.399  0.00  0.00    +0.000 N 
ATOM     13  C   UNL     1       0.124  12.681  21.458  0.00  0.00    +0.000 C 
ENDBRANCH   6   7
BRANCH   4  14
ATOM     14  N   UNL     1       2.885   8.237  17.839  0.00  0.00    +0.000 N 
ATOM     15  C   UNL     1       3.685   7.116  17.673  0.00  0.00    +0.000 C 
ATOM     16  O   UNL     1       3.780   6.194  18.473  0.00  0.00    +0.000 OA
ATOM     17  N   UNL     1       4.437   7.171  16.508  0.00  0.00    +0.000 N 
ATOM     18  H   UNL     1       2.882   8.924  17.100  0.00  0.00    +0.000 HD
ATOM     19  H   UNL     1       4.704   8.100  16.222  0.00  0.00    +0.000 HD
BRANCH  17  20
ATOM     20  C   UNL     1       5.353   6.130  16.218  0.00  0.00    +0.000 A 
ATOM     21  C   UNL     1       5.241   5.351  15.060  0.00  0.00    +0.000 A 
ATOM     22  C   UNL     1       6.099   4.276  14.861  0.00  0.00    +0.000 A 
ATOM     23  F   UNL     1       5.982   3.529  13.759  0.00  0.00    +0.000 F 
ATOM     24  C   UNL     1       7.066   3.951  15.803  0.00  0.00    +0.000 A 
ATOM     25  C   UNL     1       7.187   4.742  16.937  0.00  0.00    +0.000 A 
ATOM     26  F   UNL     1       8.084   4.417  17.872  0.00  0.00    +0.000 F 
ATOM     27  C   UNL     1       6.355   5.843  17.145  0.00  0.00    +0.000 A 
ENDBRANCH  17  20
ENDBRANCH   4  14
BRANCH   1  29
ATOM     28  C   UNL     1      -0.270   9.556  23.320  0.00  0.00    +0.000 C 
ATOM     29  O   UNL     1      -0.723   9.139  22.035  0.00  0.00    +0.000 OA
ENDBRANCH   1  29
TORSDOF 4
ENDMDL
