MODEL 1
REMARK VINA RESULT:      -8.6      0.000      0.000
REMARK  Name = 
REMARK  5 active torsions:
REMARK  status: ('A' for Active; 'I' for Inactive)
REMARK    1  A    between atoms: C_1  and  O_2
REMARK    2  A    between atoms: O_2  and  C_3
REMARK    3  A    between atoms: C_8  and  N_9
REMARK    4  A    between atoms: N_9  and  C_10
REMARK    5  A    between atoms: C_11  and  C_12
REMARK                            x       y       z     vdW  Elec       q    Type
REMARK                         _______ _______ _______ _____ _____    ______ ____
ROOT
ATOM      1  C   UNL     1       3.275   5.305  19.292  0.00  0.00    +0.000 A 
ATOM      2  C   UNL     1       4.459   4.844  18.726  0.00  0.00    +0.000 A 
ATOM      3  N   UNL     1       4.329   3.542  18.276  0.00  0.00    +0.000 NA
ATOM      4  C   UNL     1       3.124   3.171  18.654  0.00  0.00    +0.000 A 
ATOM      5  C   UNL     1       2.481   1.900  18.586  0.00  0.00    +0.000 A 
ATOM      6  C   UNL     1       1.245   1.740  19.094  0.00  0.00    +0.000 A 
ATOM      7  C   UNL     1       0.537   2.843  19.716  0.00  0.00    +0.000 A 
ATOM      8  C   UNL     1       1.146   4.036  19.808  0.00  0.00    +0.000 A 
ATOM      9  N   UNL     1       2.425   4.211  19.271  0.00  0.00    +0.000 N 
ENDROOT
BRANCH   2  10
ATOM     10  C   UNL     1       5.710   5.593  18.625  0.00  0.00    +0.000 A 
ATOM     11  C   UNL     1       5.894   6.512  17.593  0.00  0.00    +0.000 A 
ATOM     12  C   UNL     1       7.111   7.185  17.495  0.00  0.00    +0.000 A 
ATOM     13  C   UNL     1       8.115   6.907  18.413  0.00  0.00    +0.000 A 
ATOM     14  C   UNL     1       7.856   5.970  19.402  0.00  0.00    +0.000 A 
ATOM     15  N   UNL     1       6.679   5.318  19.542  0.00  0.00    +0.000 NA
ENDBRANCH   2  10
BRANCH   1  16
ATOM     16  N   UNL     1       3.000   6.480  19.920  0.00  0.00    +0.000 N 
ATOM     17  H   UNL     1       3.571   6.679  20.745  0.00  0.00    +0.000 HD
BRANCH  16  23
ATOM     18  C   UNL     1       1.479   8.467  20.297  0.00  0.00    +0.000 A 
ATOM     19  C   UNL     1       0.868   9.599  19.726  0.00  0.00    +0.000 A 
ATOM     20  C   UNL     1       1.054   9.912  18.377  0.00  0.00    +0.000 A 
ATOM     21  C   UNL     1       1.840   9.093  17.581  0.00  0.00    +0.000 A 
ATOM     22  C   UNL     1       2.429   7.953  18.130  0.00  0.00    +0.000 A 
ATOM     23  C   UNL     1       2.262   7.613  19.488  0.00  0.00    +0.000 A 
BRANCH  18  25
ATOM     24  C   UNL     1       0.920   9.194  22.496  0.00  0.00    +0.000 C 
ATOM     25  O   UNL     1       1.290   8.130  21.618  0.00  0.00    +0.000 OA
ENDBRANCH  18  25
ENDBRANCH  16  23
ENDBRANCH   1  16
TORSDOF 4
ENDMDL
MODEL 2
REMARK VINA RESULT:      -8.4      0.661      1.007
REMARK  Name = 
REMARK  5 active torsions:
REMARK  status: ('A' for Active; 'I' for Inactive)
REMARK    1  A    between atoms: C_1  and  O_2
REMARK    2  A    between atoms: O_2  and  C_3
REMARK    3  A    between atoms: C_8  and  N_9
REMARK    4  A    between atoms: N_9  and  C_10
REMARK    5  A    between atoms: C_11  and  C_12
REMARK                            x       y       z     vdW  Elec       q    Type
REMARK                         _______ _______ _______ _____ _____    ______ ____
ROOT
ATOM      1  C   UNL     1       3.298   5.383  19.135  0.00  0.00    +0.000 A 
ATOM      2  C   UNL     1       4.456   4.955  18.495  0.00  0.00    +0.000 A 
ATOM      3  N   UNL     1       4.331   3.654  18.043  0.00  0.00    +0.000 NA
ATOM      4  C   UNL     1       3.161   3.251  18.490  0.00  0.00    +0.000 A 
ATOM      5  C   UNL     1       2.547   1.963  18.452  0.00  0.00    +0.000 A 
ATOM      6  C   UNL     1       1.348   1.770  19.032  0.00  0.00    +0.000 A 
ATOM      7  C   UNL     1       0.652   2.850  19.705  0.00  0.00    +0.000 A 
ATOM      8  C   UNL     1       1.236   4.057  19.769  0.00  0.00    +0.000 A 
ATOM      9  N   UNL     1       2.475   4.268  19.157  0.00  0.00    +0.000 N 
ENDROOT
BRANCH   2  10
ATOM     10  C   UNL     1       5.680   5.737  18.324  0.00  0.00    +0.000 A 
ATOM     11  C   UNL     1       6.801   5.462  19.104  0.00  0.00    +0.000 A 
ATOM     12  C   UNL     1       7.943   6.248  18.949  0.00  0.00    +0.000 A 
ATOM     13  C   UNL     1       7.925   7.296  18.039  0.00  0.00    +0.000 A 
ATOM     14  C   UNL     1       6.765   7.511  17.310  0.00  0.00    +0.000 A 
ATOM     15  N   UNL     1       5.649   6.753  17.416  0.00  0.00    +0.000 NA
ENDBRANCH   2  10
BRANCH   1  16
ATOM     16  N   UNL     1       3.032   6.547  19.788  0.00  0.00    +0.000 N 
ATOM     17  H   UNL     1       3.643   6.752  20.581  0.00  0.00    +0.000 HD
BRANCH  16  23
ATOM     18  C   UNL     1       1.461   8.473  20.261  0.00  0.00    +0.000 A 
ATOM     19  C   UNL     1       0.799   9.600  19.737  0.00  0.00    +0.000 A 
ATOM     20  C   UNL     1       0.934   9.953  18.392  0.00  0.00    +0.000 A 
ATOM     21  C   UNL     1       1.722   9.180  17.553  0.00  0.00    +0.000 A 
ATOM     22  C   UNL     1       2.363   8.046  18.054  0.00  0.00    +0.000 A 
ATOM     23  C   UNL     1       2.247   7.667  19.407  0.00  0.00    +0.000 A 
BRANCH  18  25
ATOM     24  C   UNL     1       1.071   9.147  22.512  0.00  0.00    +0.000 C 
ATOM     25  O   UNL     1       1.322   8.098  21.577  0.00  0.00    +0.000 OA
ENDBRANCH  18  25
ENDBRANCH  16  23
ENDBRANCH   1  16
TORSDOF 4
ENDMDL
MODEL 3
REMARK VINA RESULT:      -7.8      3.604      5.550
REMARK  Name = 
REMARK  5 active torsions:
REMARK  status: ('A' for Active; 'I' for Inactive)
REMARK    1  A    between atoms: C_1  and  O_2
REMARK    2  A    between atoms: O_2  and  C_3
REMARK    3  A    between atoms: C_8  and  N_9
REMARK    4  A    between atoms: N_9  and  C_10
REMARK    5  A    between atoms: C_11  and  C_12
REMARK                            x       y       z     vdW  Elec       q    Type
REMARK                         _______ _______ _______ _____ _____    ______ ____
ROOT
ATOM      1  C   UNL     1       5.849   4.405  15.463  0.00  0.00    +0.000 A 
ATOM      2  C   UNL     1       6.970   5.174  15.756  0.00  0.00    +0.000 A 
ATOM      3  N   UNL     1       7.703   5.451  14.616  0.00  0.00    +0.000 NA
ATOM      4  C   UNL     1       7.107   4.776  13.657  0.00  0.00    +0.000 A 
ATOM      5  C   UNL     1       7.483   4.569  12.297  0.00  0.00    +0.000 A 
ATOM      6  C   UNL     1       6.735   3.782  11.501  0.00  0.00    +0.000 A 
ATOM      7  C   UNL     1       5.538   3.129  11.997  0.00  0.00    +0.000 A 
ATOM      8  C   UNL     1       5.193   3.297  13.283  0.00  0.00    +0.000 A 
ATOM      9  N   UNL     1       5.958   4.124  14.110  0.00  0.00    +0.000 N 
ENDROOT
BRANCH   2  10
ATOM     10  C   UNL     1       7.374   5.630  17.085  0.00  0.00    +0.000 A 
ATOM     11  C   UNL     1       7.629   6.981  17.314  0.00  0.00    +0.000 A 
ATOM     12  C   UNL     1       8.051   7.385  18.580  0.00  0.00    +0.000 A 
ATOM     13  C   UNL     1       8.227   6.429  19.572  0.00  0.00    +0.000 A 
ATOM     14  C   UNL     1       7.963   5.104  19.259  0.00  0.00    +0.000 A 
ATOM     15  N   UNL     1       7.529   4.681  18.050  0.00  0.00    +0.000 NA
ENDBRANCH   2  10
BRANCH   1  16
ATOM     16  N   UNL     1       4.922   3.851  16.290  0.00  0.00    +0.000 N 
ATOM     17  H   UNL     1       5.103   2.883  16.564  0.00  0.00    +0.000 HD
BRANCH  16  23
ATOM     18  C   UNL     1       2.834   3.783  17.718  0.00  0.00    +0.000 A 
ATOM     19  C   UNL     1       1.939   4.517  18.521  0.00  0.00    +0.000 A 
ATOM     20  C   UNL     1       2.108   5.890  18.715  0.00  0.00    +0.000 A 
ATOM     21  C   UNL     1       3.163   6.548  18.100  0.00  0.00    +0.000 A 
ATOM     22  C   UNL     1       4.040   5.837  17.282  0.00  0.00    +0.000 A 
ATOM     23  C   UNL     1       3.898   4.451  17.070  0.00  0.00    +0.000 A 
BRANCH  18  25
ATOM     24  C   UNL     1       3.336   1.560  18.410  0.00  0.00    +0.000 C 
ATOM     25  O   UNL     1       2.672   2.434  17.498  0.00  0.00    +0.000 OA
ENDBRANCH  18  25
ENDBRANCH  16  23
ENDBRANCH   1  16
TORSDOF 4
ENDMDL
MODEL 4
REMARK VINA RESULT:      -7.7      2.194      5.152
REMARK  Name = 
REMARK  5 active torsions:
REMARK  status: ('A' for Active; 'I' for Inactive)
REMARK    1  A    between atoms: C_1  and  O_2
REMARK    2  A    between atoms: O_2  and  C_3
REMARK    3  A    between atoms: C_8  and  N_9
REMARK    4  A    between atoms: N_9  and  C_10
REMARK    5  A    between atoms: C_11  and  C_12
REMARK                            x       y       z     vdW  Elec       q    Type
REMARK                         _______ _______ _______ _____ _____    ______ ____
ROOT
ATOM      1  C   UNL     1       3.660   6.637  18.883  0.00  0.00    +0.000 A 
ATOM      2  C   UNL     1       4.172   6.889  17.615  0.00  0.00    +0.000 A 
ATOM      3  N   UNL     1       3.619   8.031  17.065  0.00  0.00    +0.000 NA
ATOM      4  C   UNL     1       2.704   8.415  17.931  0.00  0.00    +0.000 A 
ATOM      5  C   UNL     1       1.725   9.449  17.848  0.00  0.00    +0.000 A 
ATOM      6  C   UNL     1       0.843   9.626  18.849  0.00  0.00    +0.000 A 
ATOM      7  C   UNL     1       0.861   8.781  20.028  0.00  0.00    +0.000 A 
ATOM      8  C   UNL     1       1.762   7.788  20.100  0.00  0.00    +0.000 A 
ATOM      9  N   UNL     1       2.689   7.608  19.070  0.00  0.00    +0.000 N 
ENDROOT
BRANCH   2  10
ATOM     10  C   UNL     1       5.150   6.066  16.907  0.00  0.00    +0.000 A 
ATOM     11  C   UNL     1       5.086   5.940  15.520  0.00  0.00    +0.000 A 
ATOM     12  C   UNL     1       6.007   5.116  14.872  0.00  0.00    +0.000 A 
ATOM     13  C   UNL     1       6.947   4.427  15.626  0.00  0.00    +0.000 A 
ATOM     14  C   UNL     1       6.936   4.598  17.002  0.00  0.00    +0.000 A 
ATOM     15  N   UNL     1       6.076   5.408  17.660  0.00  0.00    +0.000 NA
ENDBRANCH   2  10
BRANCH   1  16
ATOM     16  N   UNL     1       3.870   5.589  19.725  0.00  0.00    +0.000 N 
ATOM     17  H   UNL     1       4.608   5.725  20.418  0.00  0.00    +0.000 HD
BRANCH  16  23
ATOM     18  C   UNL     1       2.981   3.272  19.227  0.00  0.00    +0.000 A 
ATOM     19  C   UNL     1       2.196   2.196  19.684  0.00  0.00    +0.000 A 
ATOM     20  C   UNL     1       1.532   2.260  20.911  0.00  0.00    +0.000 A 
ATOM     21  C   UNL     1       1.633   3.403  21.691  0.00  0.00    +0.000 A 
ATOM     22  C   UNL     1       2.386   4.486  21.237  0.00  0.00    +0.000 A 
ATOM     23  C   UNL     1       3.070   4.449  20.005  0.00  0.00    +0.000 A 
BRANCH  18  25
ATOM     24  C   UNL     1       2.793   3.304  16.853  0.00  0.00    +0.000 C 
ATOM     25  O   UNL     1       3.624   3.236  18.012  0.00  0.00    +0.000 OA
ENDBRANCH  18  25
ENDBRANCH  16  23
ENDBRANCH   1  16
TORSDOF 4
ENDMDL
MODEL 5
REMARK VINA RESULT:      -7.6      2.307      5.485
REMARK  Name = 
REMARK  5 active torsions:
REMARK  status: ('A' for Active; 'I' for Inactive)
REMARK    1  A    between atoms: C_1  and  O_2
REMARK    2  A    between atoms: O_2  and  C_3
REMARK    3  A    between atoms: C_8  and  N_9
REMARK    4  A    between atoms: N_9  and  C_10
REMARK    5  A    between atoms: C_11  and  C_12
REMARK                            x       y       z     vdW  Elec       q    Type
REMARK                         _______ _______ _______ _____ _____    ______ ____
ROOT
ATOM      1  C   UNL     1       3.670   5.970  19.228  0.00  0.00    +0.000 A 
ATOM      2  C   UNL     1       2.511   6.553  19.730  0.00  0.00    +0.000 A 
ATOM      3  N   UNL     1       1.858   5.704  20.605  0.00  0.00    +0.000 NA
ATOM      4  C   UNL     1       2.540   4.579  20.559  0.00  0.00    +0.000 A 
ATOM      5  C   UNL     1       2.271   3.306  21.144  0.00  0.00    +0.000 A 
ATOM      6  C   UNL     1       3.095   2.268  20.911  0.00  0.00    +0.000 A 
ATOM      7  C   UNL     1       4.268   2.410  20.070  0.00  0.00    +0.000 A 
ATOM      8  C   UNL     1       4.513   3.598  19.493  0.00  0.00    +0.000 A 
ATOM      9  N   UNL     1       3.668   4.683  19.742  0.00  0.00    +0.000 N 
ENDROOT
BRANCH   2  10
ATOM     10  C   UNL     1       2.000   7.878  19.386  0.00  0.00    +0.000 A 
ATOM     11  C   UNL     1       1.269   8.611  20.320  0.00  0.00    +0.000 A 
ATOM     12  C   UNL     1       0.759   9.856  19.953  0.00  0.00    +0.000 A 
ATOM     13  C   UNL     1       0.971  10.322  18.663  0.00  0.00    +0.000 A 
ATOM     14  C   UNL     1       1.698   9.526  17.790  0.00  0.00    +0.000 A 
ATOM     15  N   UNL     1       2.229   8.326  18.120  0.00  0.00    +0.000 NA
ENDBRANCH   2  10
BRANCH   1  16
ATOM     16  N   UNL     1       4.547   6.422  18.291  0.00  0.00    +0.000 N 
ATOM     17  H   UNL     1       4.879   7.379  18.428  0.00  0.00    +0.000 HD
BRANCH  16  23
ATOM     18  C   UNL     1       6.714   5.601  17.273  0.00  0.00    +0.000 A 
ATOM     19  C   UNL     1       7.313   4.805  16.279  0.00  0.00    +0.000 A 
ATOM     20  C   UNL     1       6.535   4.102  15.355  0.00  0.00    +0.000 A 
ATOM     21  C   UNL     1       5.152   4.197  15.405  0.00  0.00    +0.000 A 
ATOM     22  C   UNL     1       4.548   5.004  16.369  0.00  0.00    +0.000 A 
ATOM     23  C   UNL     1       5.306   5.722  17.316  0.00  0.00    +0.000 A 
BRANCH  18  25
ATOM     24  C   UNL     1       7.773   5.658  19.406  0.00  0.00    +0.000 C 
ATOM     25  O   UNL     1       7.464   6.317  18.178  0.00  0.00    +0.000 OA
ENDBRANCH  18  25
ENDBRANCH  16  23
ENDBRANCH   1  16
TORSDOF 4
ENDMDL
MODEL 6
REMARK VINA RESULT:      -7.5      3.737      5.576
REMARK  Name = 
REMARK  5 active torsions:
REMARK  status: ('A' for Active; 'I' for Inactive)
REMARK    1  A    between atoms: C_1  and  O_2
REMARK    2  A    between atoms: O_2  and  C_3
REMARK    3  A    between atoms: C_8  and  N_9
REMARK    4  A    between atoms: N_9  and  C_10
REMARK    5  A    between atoms: C_11  and  C_12
REMARK                            x       y       z     vdW  Elec       q    Type
REMARK                         _______ _______ _______ _____ _____    ______ ____
ROOT
ATOM      1  C   UNL     1       5.732   4.469  15.220  0.00  0.00    +0.000 A 
ATOM      2  C   UNL     1       6.915   5.160  15.461  0.00  0.00    +0.000 A 
ATOM      3  N   UNL     1       7.658   5.305  14.304  0.00  0.00    +0.000 NA
ATOM      4  C   UNL     1       7.000   4.624  13.390  0.00  0.00    +0.000 A 
ATOM      5  C   UNL     1       7.347   4.303  12.044  0.00  0.00    +0.000 A 
ATOM      6  C   UNL     1       6.529   3.534  11.301  0.00  0.00    +0.000 A 
ATOM      7  C   UNL     1       5.286   3.014  11.840  0.00  0.00    +0.000 A 
ATOM      8  C   UNL     1       4.968   3.289  13.115  0.00  0.00    +0.000 A 
ATOM      9  N   UNL     1       5.806   4.098  13.887  0.00  0.00    +0.000 N 
ENDROOT
BRANCH   2  10
ATOM     10  C   UNL     1       7.366   5.661  16.758  0.00  0.00    +0.000 A 
ATOM     11  C   UNL     1       7.558   4.780  17.821  0.00  0.00    +0.000 A 
ATOM     12  C   UNL     1       7.951   5.289  19.059  0.00  0.00    +0.000 A 
ATOM     13  C   UNL     1       8.118   6.659  19.206  0.00  0.00    +0.000 A 
ATOM     14  C   UNL     1       7.895   7.469  18.102  0.00  0.00    +0.000 A 
ATOM     15  N   UNL     1       7.539   7.007  16.881  0.00  0.00    +0.000 NA
ENDBRANCH   2  10
BRANCH   1  16
ATOM     16  N   UNL     1       4.769   4.046  16.083  0.00  0.00    +0.000 N 
ATOM     17  H   UNL     1       4.576   3.042  16.065  0.00  0.00    +0.000 HD
BRANCH  16  23
ATOM     18  C   UNL     1       3.914   4.108  18.464  0.00  0.00    +0.000 A 
ATOM     19  C   UNL     1       3.392   4.905  19.500  0.00  0.00    +0.000 A 
ATOM     20  C   UNL     1       3.163   6.271  19.312  0.00  0.00    +0.000 A 
ATOM     21  C   UNL     1       3.441   6.853  18.084  0.00  0.00    +0.000 A 
ATOM     22  C   UNL     1       3.934   6.068  17.041  0.00  0.00    +0.000 A 
ATOM     23  C   UNL     1       4.178   4.689  17.203  0.00  0.00    +0.000 A 
BRANCH  18  25
ATOM     24  C   UNL     1       2.960   1.945  18.746  0.00  0.00    +0.000 C 
ATOM     25  O   UNL     1       4.126   2.758  18.624  0.00  0.00    +0.000 OA
ENDBRANCH  18  25
ENDBRANCH  16  23
ENDBRANCH   1  16
TORSDOF 4
ENDMDL
MODEL 7
REMARK VINA RESULT:      -7.4      1.466      2.219
REMARK  Name = 
REMARK  5 active torsions:
REMARK  status: ('A' for Active; 'I' for Inactive)
REMARK    1  A    between atoms: C_1  and  O_2
REMARK    2  A    between atoms: O_2  and  C_3
REMARK    3  A    between atoms: C_8  and  N_9
REMARK    4  A    between atoms: N_9  and  C_10
REMARK    5  A    between atoms: C_11  and  C_12
REMARK                            x       y       z     vdW  Elec       q    Type
REMARK                         _______ _______ _______ _____ _____    ______ ____
ROOT
ATOM      1  C   UNL     1       3.544   5.474  18.030  0.00  0.00    +0.000 A 
ATOM      2  C   UNL     1       4.867   5.062  18.143  0.00  0.00    +0.000 A 
ATOM      3  N   UNL     1       4.957   3.689  18.277  0.00  0.00    +0.000 NA
ATOM      4  C   UNL     1       3.711   3.273  18.355  0.00  0.00    +0.000 A 
ATOM      5  C   UNL     1       3.181   1.977  18.630  0.00  0.00    +0.000 A 
ATOM      6  C   UNL     1       1.850   1.797  18.716  0.00  0.00    +0.000 A 
ATOM      7  C   UNL     1       0.926   2.900  18.534  0.00  0.00    +0.000 A 
ATOM      8  C   UNL     1       1.418   4.127  18.303  0.00  0.00    +0.000 A 
ATOM      9  N   UNL     1       2.799   4.319  18.199  0.00  0.00    +0.000 N 
ENDROOT
BRANCH   2  10
ATOM     10  C   UNL     1       6.040   5.935  18.150  0.00  0.00    +0.000 A 
ATOM     11  C   UNL     1       7.106   5.668  19.007  0.00  0.00    +0.000 A 
ATOM     12  C   UNL     1       8.196   6.538  19.023  0.00  0.00    +0.000 A 
ATOM     13  C   UNL     1       8.180   7.659  18.203  0.00  0.00    +0.000 A 
ATOM     14  C   UNL     1       7.075   7.859  17.389  0.00  0.00    +0.000 A 
ATOM     15  N   UNL     1       6.014   7.022  17.329  0.00  0.00    +0.000 NA
ENDBRANCH   2  10
BRANCH   1  16
ATOM     16  N   UNL     1       3.015   6.727  17.966  0.00  0.00    +0.000 N 
ATOM     17  H   UNL     1       2.899   7.104  17.023  0.00  0.00    +0.000 HD
BRANCH  16  23
ATOM     18  C   UNL     1       1.790   8.791  18.768  0.00  0.00    +0.000 A 
ATOM     19  C   UNL     1       1.073   9.392  19.819  0.00  0.00    +0.000 A 
ATOM     20  C   UNL     1       0.859   8.716  21.023  0.00  0.00    +0.000 A 
ATOM     21  C   UNL     1       1.369   7.438  21.196  0.00  0.00    +0.000 A 
ATOM     22  C   UNL     1       2.104   6.841  20.171  0.00  0.00    +0.000 A 
ATOM     23  C   UNL     1       2.333   7.497  18.944  0.00  0.00    +0.000 A 
BRANCH  18  25
ATOM     24  C   UNL     1       2.320  10.843  17.682  0.00  0.00    +0.000 C 
ATOM     25  O   UNL     1       2.029   9.449  17.583  0.00  0.00    +0.000 OA
ENDBRANCH  18  25
ENDBRANCH  16  23
ENDBRANCH   1  16
TORSDOF 4
ENDMDL
MODEL 8
REMARK VINA RESULT:      -7.3      2.278      5.635
REMARK  Name = 
REMARK  5 active torsions:
REMARK  status: ('A' for Active; 'I' for Inactive)
REMARK    1  A    between atoms: C_1  and  O_2
REMARK    2  A    between atoms: O_2  and  C_3
REMARK    3  A    between atoms: C_8  and  N_9
REMARK    4  A    between atoms: N_9  and  C_10
REMARK    5  A    between atoms: C_11  and  C_12
REMARK                            x       y       z     vdW  Elec       q    Type
REMARK                         _______ _______ _______ _____ _____    ______ ____
ROOT
ATOM      1  C   UNL     1       3.448   5.276  17.277  0.00  0.00    +0.000 A 
ATOM      2  C   UNL     1       3.585   6.625  17.589  0.00  0.00    +0.000 A 
ATOM      3  N   UNL     1       4.708   7.168  16.991  0.00  0.00    +0.000 NA
ATOM      4  C   UNL     1       5.310   6.150  16.413  0.00  0.00    +0.000 A 
ATOM      5  C   UNL     1       6.575   6.072  15.759  0.00  0.00    +0.000 A 
ATOM      6  C   UNL     1       7.018   4.892  15.284  0.00  0.00    +0.000 A 
ATOM      7  C   UNL     1       6.231   3.681  15.421  0.00  0.00    +0.000 A 
ATOM      8  C   UNL     1       5.052   3.743  16.060  0.00  0.00    +0.000 A 
ATOM      9  N   UNL     1       4.581   4.966  16.543  0.00  0.00    +0.000 N 
ENDROOT
BRANCH   2  10
ATOM     10  C   UNL     1       2.696   7.400  18.452  0.00  0.00    +0.000 A 
ATOM     11  C   UNL     1       2.130   8.587  17.989  0.00  0.00    +0.000 A 
ATOM     12  C   UNL     1       1.318   9.328  18.846  0.00  0.00    +0.000 A 
ATOM     13  C   UNL     1       1.112   8.878  20.143  0.00  0.00    +0.000 A 
ATOM     14  C   UNL     1       1.721   7.694  20.529  0.00  0.00    +0.000 A 
ATOM     15  N   UNL     1       2.494   6.937  19.717  0.00  0.00    +0.000 NA
ENDBRANCH   2  10
BRANCH   1  16
ATOM     16  N   UNL     1       2.543   4.359  17.717  0.00  0.00    +0.000 N 
ATOM     17  H   UNL     1       2.002   3.894  16.986  0.00  0.00    +0.000 HD
BRANCH  16  23
ATOM     18  C   UNL     1       3.451   3.228  19.790  0.00  0.00    +0.000 A 
ATOM     19  C   UNL     1       3.153   2.690  21.057  0.00  0.00    +0.000 A 
ATOM     20  C   UNL     1       1.842   2.671  21.540  0.00  0.00    +0.000 A 
ATOM     21  C   UNL     1       0.813   3.176  20.759  0.00  0.00    +0.000 A 
ATOM     22  C   UNL     1       1.092   3.688  19.492  0.00  0.00    +0.000 A 
ATOM     23  C   UNL     1       2.405   3.724  18.979  0.00  0.00    +0.000 A 
BRANCH  18  25
ATOM     24  C   UNL     1       5.562   4.327  19.688  0.00  0.00    +0.000 C 
ATOM     25  O   UNL     1       4.733   3.236  19.290  0.00  0.00    +0.000 OA
ENDBRANCH  18  25
ENDBRANCH  16  23
ENDBRANCH   1  16
TORSDOF 4
ENDMDL
MODEL 9
REMARK VINA RESULT:      -7.3      2.265      5.675
REMARK  Name = 
REMARK  5 active torsions:
REMARK  status: ('A' for Active; 'I' for Inactive)
REMARK    1  A    between atoms: C_1  and  O_2
REMARK    2  A    between atoms: O_2  and  C_3
REMARK    3  A    between atoms: C_8  and  N_9
REMARK    4  A    between atoms: N_9  and  C_10
REMARK    5  A    between atoms: C_11  and  C_12
REMARK                            x       y       z     vdW  Elec       q    Type
REMARK                         _______ _______ _______ _____ _____    ______ ____
ROOT
ATOM      1  C   UNL     1       3.226   5.786  19.290  0.00  0.00    +0.000 A 
ATOM      2  C   UNL     1       2.233   6.598  19.826  0.00  0.00    +0.000 A 
ATOM      3  N   UNL     1       1.516   5.937  20.807  0.00  0.00    +0.000 NA
ATOM      4  C   UNL     1       1.986   4.708  20.800  0.00  0.00    +0.000 A 
ATOM      5  C   UNL     1       1.548   3.544  21.498  0.00  0.00    +0.000 A 
ATOM      6  C   UNL     1       2.157   2.361  21.288  0.00  0.00    +0.000 A 
ATOM      7  C   UNL     1       3.264   2.237  20.358  0.00  0.00    +0.000 A 
ATOM      8  C   UNL     1       3.662   3.323  19.677  0.00  0.00    +0.000 A 
ATOM      9  N   UNL     1       3.043   4.556  19.900  0.00  0.00    +0.000 N 
ENDROOT
BRANCH   2  10
ATOM     10  C   UNL     1       1.933   7.969  19.418  0.00  0.00    +0.000 A 
ATOM     11  C   UNL     1       1.189   8.802  20.252  0.00  0.00    +0.000 A 
ATOM     12  C   UNL     1       0.883  10.093  19.822  0.00  0.00    +0.000 A 
ATOM     13  C   UNL     1       1.306  10.506  18.566  0.00  0.00    +0.000 A 
ATOM     14  C   UNL     1       2.031   9.613  17.792  0.00  0.00    +0.000 A 
ATOM     15  N   UNL     1       2.368   8.364  18.188  0.00  0.00    +0.000 NA
ENDBRANCH   2  10
BRANCH   1  16
ATOM     16  N   UNL     1       4.088   6.013  18.262  0.00  0.00    +0.000 N 
ATOM     17  H   UNL     1       3.876   6.830  17.686  0.00  0.00    +0.000 HD
BRANCH  16  23
ATOM     18  C   UNL     1       5.847   4.947  16.787  0.00  0.00    +0.000 A 
ATOM     19  C   UNL     1       7.191   4.543  16.672  0.00  0.00    +0.000 A 
ATOM     20  C   UNL     1       8.084   4.707  17.733  0.00  0.00    +0.000 A 
ATOM     21  C   UNL     1       7.645   5.265  18.924  0.00  0.00    +0.000 A 
ATOM     22  C   UNL     1       6.309   5.645  19.060  0.00  0.00    +0.000 A 
ATOM     23  C   UNL     1       5.385   5.494  18.006  0.00  0.00    +0.000 A 
BRANCH  18  25
ATOM     24  C   UNL     1       5.487   4.340  14.512  0.00  0.00    +0.000 C 
ATOM     25  O   UNL     1       4.947   4.772  15.761  0.00  0.00    +0.000 OA
ENDBRANCH  18  25
ENDBRANCH  16  23
ENDBRANCH   1  16
TORSDOF 4
ENDMDL
