MODEL 1
REMARK VINA RESULT:      -5.8      0.000      0.000
REMARK  Name = 
REMARK  5 active torsions:
REMARK  status: ('A' for Active; 'I' for Inactive)
REMARK    1  A    between atoms: C_1  and  S_2
REMARK    2  A    between atoms: S_2  and  C_3
REMARK    3  A    between atoms: N_5  and  N_6
REMARK    4  A    between atoms: C_7  and  C_8
REMARK    5  A    between atoms: C_15  and  O_16
REMARK                            x       y       z     vdW  Elec       q    Type
REMARK                         _______ _______ _______ _____ _____    ______ ____
ROOT
ATOM      1  C   UNL     1       3.180   5.278  18.470  0.00  0.00    +0.000 A 
ATOM      2  C   UNL     1       2.921   4.148  19.259  0.00  0.00    +0.000 A 
ATOM      3  C   UNL     1       2.209   4.283  20.449  0.00  0.00    +0.000 A 
ATOM      4 BR   UNL     1       1.859   2.757  21.509  0.00  0.00    +0.000 Br
ATOM      5  C   UNL     1       1.753   5.531  20.866  0.00  0.00    +0.000 A 
ATOM      6  C   UNL     1       2.011   6.653  20.077  0.00  0.00    +0.000 A 
ATOM      7 BR   UNL     1       1.380   8.343  20.664  0.00  0.00    +0.000 Br
ATOM      8  C   UNL     1       2.723   6.533  18.878  0.00  0.00    +0.000 A 
ENDROOT
BRANCH   1  10
ATOM      9  N   UNL     1       4.888   5.941  16.905  0.00  0.00    +0.000 NA
ATOM     10  C   UNL     1       3.931   5.123  17.205  0.00  0.00    +0.000 C 
BRANCH   9  13
ATOM     11  C   UNL     1       6.757   5.091  15.641  0.00  0.00    +0.000 C 
ATOM     12  N   UNL     1       7.521   4.720  16.609  0.00  0.00    +0.000 NA
ATOM     13  N   UNL     1       5.538   5.711  15.730  0.00  0.00    +0.000 N 
ATOM     14  H   UNL     1       8.330   4.241  16.213  0.00  0.00    +0.000 HD
ATOM     15  H   UNL     1       5.050   5.822  14.847  0.00  0.00    +0.000 HD
BRANCH  11  17
ATOM     16  C   UNL     1       5.883   3.775  13.434  0.00  0.00    +0.000 C 
ATOM     17  S   UNL     1       7.289   4.756  14.008  0.00  0.00    +0.000 S 
ENDBRANCH  11  17
ENDBRANCH   9  13
ENDBRANCH   1  10
BRANCH   8  18
ATOM     18  O   UNL     1       2.976   7.631  18.097  0.00  0.00    +0.000 OA
ATOM     19  H   UNL     1       3.384   7.319  17.267  0.00  0.00    +0.000 HD
ENDBRANCH   8  18
TORSDOF 4
ENDMDL
MODEL 2
REMARK VINA RESULT:      -5.8      1.347      2.699
REMARK  Name = 
REMARK  5 active torsions:
REMARK  status: ('A' for Active; 'I' for Inactive)
REMARK    1  A    between atoms: C_1  and  S_2
REMARK    2  A    between atoms: S_2  and  C_3
REMARK    3  A    between atoms: N_5  and  N_6
REMARK    4  A    between atoms: C_7  and  C_8
REMARK    5  A    between atoms: C_15  and  O_16
REMARK                            x       y       z     vdW  Elec       q    Type
REMARK                         _______ _______ _______ _____ _____    ______ ____
ROOT
ATOM      1  C   UNL     1       3.010   5.172  18.511  0.00  0.00    +0.000 A 
ATOM      2  C   UNL     1       2.610   6.434  18.971  0.00  0.00    +0.000 A 
ATOM      3  C   UNL     1       1.946   6.548  20.191  0.00  0.00    +0.000 A 
ATOM      4 BR   UNL     1       1.411   8.252  20.811  0.00  0.00    +0.000 Br
ATOM      5  C   UNL     1       1.674   5.418  20.960  0.00  0.00    +0.000 A 
ATOM      6  C   UNL     1       2.074   4.164  20.499  0.00  0.00    +0.000 A 
ATOM      7 BR   UNL     1       1.693   2.639  21.561  0.00  0.00    +0.000 Br
ATOM      8  C   UNL     1       2.744   4.034  19.275  0.00  0.00    +0.000 A 
ENDROOT
BRANCH   1  10
ATOM      9  N   UNL     1       4.963   4.709  17.178  0.00  0.00    +0.000 NA
ATOM     10  C   UNL     1       3.719   5.062  17.218  0.00  0.00    +0.000 C 
BRANCH   9  13
ATOM     11  C   UNL     1       6.695   5.239  15.587  0.00  0.00    +0.000 C 
ATOM     12  N   UNL     1       7.385   6.071  16.289  0.00  0.00    +0.000 NA
ATOM     13  N   UNL     1       5.529   4.614  15.943  0.00  0.00    +0.000 N 
ATOM     14  H   UNL     1       8.226   6.313  15.764  0.00  0.00    +0.000 HD
ATOM     15  H   UNL     1       5.203   3.913  15.284  0.00  0.00    +0.000 HD
BRANCH  11  17
ATOM     16  C   UNL     1       5.937   3.770  13.435  0.00  0.00    +0.000 C 
ATOM     17  S   UNL     1       7.302   4.811  14.002  0.00  0.00    +0.000 S 
ENDBRANCH  11  17
ENDBRANCH   9  13
ENDBRANCH   1  10
BRANCH   8  18
ATOM     18  O   UNL     1       3.144   2.804  18.820  0.00  0.00    +0.000 OA
ATOM     19  H   UNL     1       3.404   2.903  17.885  0.00  0.00    +0.000 HD
ENDBRANCH   8  18
TORSDOF 4
ENDMDL
MODEL 3
REMARK VINA RESULT:      -5.7      1.321      2.684
REMARK  Name = 
REMARK  5 active torsions:
REMARK  status: ('A' for Active; 'I' for Inactive)
REMARK    1  A    between atoms: C_1  and  S_2
REMARK    2  A    between atoms: S_2  and  C_3
REMARK    3  A    between atoms: N_5  and  N_6
REMARK    4  A    between atoms: C_7  and  C_8
REMARK    5  A    between atoms: C_15  and  O_16
REMARK                            x       y       z     vdW  Elec       q    Type
REMARK                         _______ _______ _______ _____ _____    ______ ____
ROOT
ATOM      1  C   UNL     1       3.177   5.738  18.677  0.00  0.00    +0.000 A 
ATOM      2  C   UNL     1       2.639   6.935  19.169  0.00  0.00    +0.000 A 
ATOM      3  C   UNL     1       1.833   6.917  20.306  0.00  0.00    +0.000 A 
ATOM      4 BR   UNL     1       1.112   8.535  20.968  0.00  0.00    +0.000 Br
ATOM      5  C   UNL     1       1.554   5.719  20.960  0.00  0.00    +0.000 A 
ATOM      6  C   UNL     1       2.093   4.530  20.468  0.00  0.00    +0.000 A 
ATOM      7 BR   UNL     1       1.700   2.910  21.375  0.00  0.00    +0.000 Br
ATOM      8  C   UNL     1       2.905   4.532  19.328  0.00  0.00    +0.000 A 
ENDROOT
BRANCH   1  10
ATOM      9  N   UNL     1       5.315   5.602  17.574  0.00  0.00    +0.000 NA
ATOM     10  C   UNL     1       4.036   5.768  17.474  0.00  0.00    +0.000 C 
BRANCH   9  13
ATOM     11  C   UNL     1       6.269   4.516  15.645  0.00  0.00    +0.000 C 
ATOM     12  N   UNL     1       5.973   3.292  15.918  0.00  0.00    +0.000 NA
ATOM     13  N   UNL     1       6.024   5.625  16.412  0.00  0.00    +0.000 N 
ATOM     14  H   UNL     1       6.238   2.713  15.121  0.00  0.00    +0.000 HD
ATOM     15  H   UNL     1       6.243   6.510  15.965  0.00  0.00    +0.000 HD
BRANCH  11  17
ATOM     16  C   UNL     1       6.158   3.662  13.071  0.00  0.00    +0.000 C 
ATOM     17  S   UNL     1       7.047   4.844  14.112  0.00  0.00    +0.000 S 
ENDBRANCH  11  17
ENDBRANCH   9  13
ENDBRANCH   1  10
BRANCH   8  18
ATOM     18  O   UNL     1       3.441   3.366  18.843  0.00  0.00    +0.000 OA
ATOM     19  H   UNL     1       4.371   3.542  18.605  0.00  0.00    +0.000 HD
ENDBRANCH   8  18
TORSDOF 4
ENDMDL
MODEL 4
REMARK VINA RESULT:      -5.7      4.984      5.967
REMARK  Name = 
REMARK  5 active torsions:
REMARK  status: ('A' for Active; 'I' for Inactive)
REMARK    1  A    between atoms: C_1  and  S_2
REMARK    2  A    between atoms: S_2  and  C_3
REMARK    3  A    between atoms: N_5  and  N_6
REMARK    4  A    between atoms: C_7  and  C_8
REMARK    5  A    between atoms: C_15  and  O_16
REMARK                            x       y       z     vdW  Elec       q    Type
REMARK                         _______ _______ _______ _____ _____    ______ ____
ROOT
ATOM      1  C   UNL     1       6.873   5.709  18.058  0.00  0.00    +0.000 A 
ATOM      2  C   UNL     1       6.010   5.002  18.907  0.00  0.00    +0.000 A 
ATOM      3  C   UNL     1       5.113   4.079  18.370  0.00  0.00    +0.000 A 
ATOM      4 BR   UNL     1       3.953   3.125  19.519  0.00  0.00    +0.000 Br
ATOM      5  C   UNL     1       5.065   3.852  16.997  0.00  0.00    +0.000 A 
ATOM      6  C   UNL     1       5.927   4.556  16.156  0.00  0.00    +0.000 A 
ATOM      7 BR   UNL     1       5.844   4.231  14.289  0.00  0.00    +0.000 Br
ATOM      8  C   UNL     1       6.834   5.486  16.680  0.00  0.00    +0.000 A 
ENDROOT
BRANCH   1  10
ATOM      9  N   UNL     1       7.935   7.870  18.139  0.00  0.00    +0.000 NA
ATOM     10  C   UNL     1       7.825   6.681  18.638  0.00  0.00    +0.000 C 
BRANCH   9  13
ATOM     11  C   UNL     1       8.869  10.058  18.531  0.00  0.00    +0.000 C 
ATOM     12  N   UNL     1       8.185  10.740  17.678  0.00  0.00    +0.000 NA
ATOM     13  N   UNL     1       8.821   8.706  18.748  0.00  0.00    +0.000 N 
ATOM     14  H   UNL     1       8.412  11.727  17.802  0.00  0.00    +0.000 HD
ATOM     15  H   UNL     1       9.365   8.382  19.542  0.00  0.00    +0.000 HD
BRANCH  11  17
ATOM     16  C   UNL     1      10.713  12.041  18.353  0.00  0.00    +0.000 C 
ATOM     17  S   UNL     1       9.976  10.928  19.571  0.00  0.00    +0.000 S 
ENDBRANCH  11  17
ENDBRANCH   9  13
ENDBRANCH   1  10
BRANCH   8  18
ATOM     18  O   UNL     1       7.687   6.177  15.858  0.00  0.00    +0.000 OA
ATOM     19  H   UNL     1       7.233   6.994  15.578  0.00  0.00    +0.000 HD
ENDBRANCH   8  18
TORSDOF 4
ENDMDL
MODEL 5
REMARK VINA RESULT:      -5.7      4.541      6.208
REMARK  Name = 
REMARK  5 active torsions:
REMARK  status: ('A' for Active; 'I' for Inactive)
REMARK    1  A    between atoms: C_1  and  S_2
REMARK    2  A    between atoms: S_2  and  C_3
REMARK    3  A    between atoms: N_5  and  N_6
REMARK    4  A    between atoms: C_7  and  C_8
REMARK    5  A    between atoms: C_15  and  O_16
REMARK                            x       y       z     vdW  Elec       q    Type
REMARK                         _______ _______ _______ _____ _____    ______ ____
ROOT
ATOM      1  C   UNL     1       2.859   6.145  18.162  0.00  0.00    +0.000 A 
ATOM      2  C   UNL     1       2.001   5.115  18.572  0.00  0.00    +0.000 A 
ATOM      3  C   UNL     1       2.247   3.805  18.166  0.00  0.00    +0.000 A 
ATOM      4 BR   UNL     1       1.089   2.418  18.724  0.00  0.00    +0.000 Br
ATOM      5  C   UNL     1       3.339   3.506  17.354  0.00  0.00    +0.000 A 
ATOM      6  C   UNL     1       4.192   4.534  16.949  0.00  0.00    +0.000 A 
ATOM      7 BR   UNL     1       5.672   4.105  15.843  0.00  0.00    +0.000 Br
ATOM      8  C   UNL     1       3.958   5.855  17.350  0.00  0.00    +0.000 A 
ENDROOT
BRANCH   1  10
ATOM      9  N   UNL     1       2.110   8.402  17.777  0.00  0.00    +0.000 NA
ATOM     10  C   UNL     1       2.593   7.531  18.603  0.00  0.00    +0.000 C 
BRANCH   9  13
ATOM     11  C   UNL     1       0.658  10.272  18.231  0.00  0.00    +0.000 C 
ATOM     12  N   UNL     1      -0.416   9.857  17.652  0.00  0.00    +0.000 NA
ATOM     13  N   UNL     1       1.877   9.648  18.274  0.00  0.00    +0.000 N 
ATOM     14  H   UNL     1      -1.164  10.522  17.850  0.00  0.00    +0.000 HD
ATOM     15  H   UNL     1       2.563  10.095  18.875  0.00  0.00    +0.000 HD
BRANCH  11  17
ATOM     16  C   UNL     1      -1.174  11.793  19.534  0.00  0.00    +0.000 C 
ATOM     17  S   UNL     1       0.581  11.790  19.099  0.00  0.00    +0.000 S 
ENDBRANCH  11  17
ENDBRANCH   9  13
ENDBRANCH   1  10
BRANCH   8  18
ATOM     18  O   UNL     1       4.796   6.867  16.959  0.00  0.00    +0.000 OA
ATOM     19  H   UNL     1       5.578   6.462  16.539  0.00  0.00    +0.000 HD
ENDBRANCH   8  18
TORSDOF 4
ENDMDL
MODEL 6
REMARK VINA RESULT:      -5.6      4.547      6.009
REMARK  Name = 
REMARK  5 active torsions:
REMARK  status: ('A' for Active; 'I' for Inactive)
REMARK    1  A    between atoms: C_1  and  S_2
REMARK    2  A    between atoms: S_2  and  C_3
REMARK    3  A    between atoms: N_5  and  N_6
REMARK    4  A    between atoms: C_7  and  C_8
REMARK    5  A    between atoms: C_15  and  O_16
REMARK                            x       y       z     vdW  Elec       q    Type
REMARK                         _______ _______ _______ _____ _____    ______ ____
ROOT
ATOM      1  C   UNL     1       3.064   6.423  17.950  0.00  0.00    +0.000 A 
ATOM      2  C   UNL     1       2.153   5.450  18.384  0.00  0.00    +0.000 A 
ATOM      3  C   UNL     1       2.367   4.110  18.065  0.00  0.00    +0.000 A 
ATOM      4 BR   UNL     1       1.137   2.800  18.655  0.00  0.00    +0.000 Br
ATOM      5  C   UNL     1       3.477   3.726  17.318  0.00  0.00    +0.000 A 
ATOM      6  C   UNL     1       4.383   4.698  16.889  0.00  0.00    +0.000 A 
ATOM      7 BR   UNL     1       5.888   4.152  15.872  0.00  0.00    +0.000 Br
ATOM      8  C   UNL     1       4.182   6.048  17.202  0.00  0.00    +0.000 A 
ENDROOT
BRANCH   1  10
ATOM      9  N   UNL     1       2.271   8.643  17.450  0.00  0.00    +0.000 NA
ATOM     10  C   UNL     1       2.832   7.842  18.298  0.00  0.00    +0.000 C 
BRANCH   9  13
ATOM     11  C   UNL     1       0.875  10.414  18.303  0.00  0.00    +0.000 C 
ATOM     12  N   UNL     1      -0.261   9.807  18.313  0.00  0.00    +0.000 NA
ATOM     13  N   UNL     1       2.078   9.926  17.863  0.00  0.00    +0.000 N 
ATOM     14  H   UNL     1      -0.948  10.422  18.752  0.00  0.00    +0.000 HD
ATOM     15  H   UNL     1       2.874  10.530  18.042  0.00  0.00    +0.000 HD
BRANCH  11  17
ATOM     16  C   UNL     1       2.492  12.592  18.206  0.00  0.00    +0.000 C 
ATOM     17  S   UNL     1       0.937  12.041  18.945  0.00  0.00    +0.000 S 
ENDBRANCH  11  17
ENDBRANCH   9  13
ENDBRANCH   1  10
BRANCH   8  18
ATOM     18  O   UNL     1       5.071   7.005  16.787  0.00  0.00    +0.000 OA
ATOM     19  H   UNL     1       5.354   6.777  15.881  0.00  0.00    +0.000 HD
ENDBRANCH   8  18
TORSDOF 4
ENDMDL
MODEL 7
REMARK VINA RESULT:      -5.4      4.413      6.013
REMARK  Name = 
REMARK  5 active torsions:
REMARK  status: ('A' for Active; 'I' for Inactive)
REMARK    1  A    between atoms: C_1  and  S_2
REMARK    2  A    between atoms: S_2  and  C_3
REMARK    3  A    between atoms: N_5  and  N_6
REMARK    4  A    between atoms: C_7  and  C_8
REMARK    5  A    between atoms: C_15  and  O_16
REMARK                            x       y       z     vdW  Elec       q    Type
REMARK                         _______ _______ _______ _____ _____    ______ ____
ROOT
ATOM      1  C   UNL     1       3.146   5.931  18.269  0.00  0.00    +0.000 A 
ATOM      2  C   UNL     1       2.661   4.655  18.588  0.00  0.00    +0.000 A 
ATOM      3  C   UNL     1       3.209   3.532  17.973  0.00  0.00    +0.000 A 
ATOM      4 BR   UNL     1       2.553   1.812  18.409  0.00  0.00    +0.000 Br
ATOM      5  C   UNL     1       4.236   3.662  17.041  0.00  0.00    +0.000 A 
ATOM      6  C   UNL     1       4.718   4.934  16.727  0.00  0.00    +0.000 A 
ATOM      7 BR   UNL     1       6.117   5.088  15.456  0.00  0.00    +0.000 Br
ATOM      8  C   UNL     1       4.178   6.072  17.338  0.00  0.00    +0.000 A 
ENDROOT
BRANCH   1  10
ATOM      9  N   UNL     1       1.995   8.048  18.234  0.00  0.00    +0.000 NA
ATOM     10  C   UNL     1       2.562   7.117  18.932  0.00  0.00    +0.000 C 
BRANCH   9  13
ATOM     11  C   UNL     1       1.550  10.399  18.524  0.00  0.00    +0.000 C 
ATOM     12  N   UNL     1       2.199  10.867  17.514  0.00  0.00    +0.000 NA
ATOM     13  N   UNL     1       1.466   9.093  18.928  0.00  0.00    +0.000 N 
ATOM     14  H   UNL     1       2.016  11.870  17.453  0.00  0.00    +0.000 HD
ATOM     15  H   UNL     1       0.815   8.923  19.689  0.00  0.00    +0.000 HD
BRANCH  11  17
ATOM     16  C   UNL     1      -0.418  10.360  20.392  0.00  0.00    +0.000 C 
ATOM     17  S   UNL     1       0.634  11.528  19.499  0.00  0.00    +0.000 S 
ENDBRANCH  11  17
ENDBRANCH   9  13
ENDBRANCH   1  10
BRANCH   8  18
ATOM     18  O   UNL     1       4.651   7.323  17.037  0.00  0.00    +0.000 OA
ATOM     19  H   UNL     1       5.112   7.268  16.178  0.00  0.00    +0.000 HD
ENDBRANCH   8  18
TORSDOF 4
ENDMDL
MODEL 8
REMARK VINA RESULT:      -5.4      4.633      6.461
REMARK  Name = 
REMARK  5 active torsions:
REMARK  status: ('A' for Active; 'I' for Inactive)
REMARK    1  A    between atoms: C_1  and  S_2
REMARK    2  A    between atoms: S_2  and  C_3
REMARK    3  A    between atoms: N_5  and  N_6
REMARK    4  A    between atoms: C_7  and  C_8
REMARK    5  A    between atoms: C_15  and  O_16
REMARK                            x       y       z     vdW  Elec       q    Type
REMARK                         _______ _______ _______ _____ _____    ______ ____
ROOT
ATOM      1  C   UNL     1       3.266   6.021  17.868  0.00  0.00    +0.000 A 
ATOM      2  C   UNL     1       4.433   6.144  17.101  0.00  0.00    +0.000 A 
ATOM      3  C   UNL     1       5.160   5.005  16.759  0.00  0.00    +0.000 A 
ATOM      4 BR   UNL     1       6.732   5.174  15.721  0.00  0.00    +0.000 Br
ATOM      5  C   UNL     1       4.740   3.743  17.173  0.00  0.00    +0.000 A 
ATOM      6  C   UNL     1       3.577   3.625  17.935  0.00  0.00    +0.000 A 
ATOM      7 BR   UNL     1       3.024   1.897  18.488  0.00  0.00    +0.000 Br
ATOM      8  C   UNL     1       2.835   4.760  18.285  0.00  0.00    +0.000 A 
ENDROOT
BRANCH   1  10
ATOM      9  N   UNL     1       2.217   7.499  19.456  0.00  0.00    +0.000 NA
ATOM     10  C   UNL     1       2.499   7.235  18.221  0.00  0.00    +0.000 C 
BRANCH   9  13
ATOM     11  C   UNL     1       1.272   9.145  20.942  0.00  0.00    +0.000 C 
ATOM     12  N   UNL     1       1.541   8.593  22.074  0.00  0.00    +0.000 NA
ATOM     13  N   UNL     1       1.525   8.648  19.690  0.00  0.00    +0.000 N 
ATOM     14  H   UNL     1       1.277   9.242  22.817  0.00  0.00    +0.000 HD
ATOM     15  H   UNL     1       1.329   9.290  18.928  0.00  0.00    +0.000 HD
BRANCH  11  17
ATOM     16  C   UNL     1       0.509  11.071  19.188  0.00  0.00    +0.000 C 
ATOM     17  S   UNL     1       0.522  10.726  20.963  0.00  0.00    +0.000 S 
ENDBRANCH  11  17
ENDBRANCH   9  13
ENDBRANCH   1  10
BRANCH   8  18
ATOM     18  O   UNL     1       1.690   4.649  19.030  0.00  0.00    +0.000 OA
ATOM     19  H   UNL     1       1.604   5.459  19.568  0.00  0.00    +0.000 HD
ENDBRANCH   8  18
TORSDOF 4
ENDMDL
MODEL 9
REMARK VINA RESULT:      -5.4      4.655      6.317
REMARK  Name = 
REMARK  5 active torsions:
REMARK  status: ('A' for Active; 'I' for Inactive)
REMARK    1  A    between atoms: C_1  and  S_2
REMARK    2  A    between atoms: S_2  and  C_3
REMARK    3  A    between atoms: N_5  and  N_6
REMARK    4  A    between atoms: C_7  and  C_8
REMARK    5  A    between atoms: C_15  and  O_16
REMARK                            x       y       z     vdW  Elec       q    Type
REMARK                         _______ _______ _______ _____ _____    ______ ____
ROOT
ATOM      1  C   UNL     1       2.364   6.469  19.643  0.00  0.00    +0.000 A 
ATOM      2  C   UNL     1       1.914   5.464  20.510  0.00  0.00    +0.000 A 
ATOM      3  C   UNL     1       2.295   4.141  20.292  0.00  0.00    +0.000 A 
ATOM      4 BR   UNL     1       1.689   2.788  21.466  0.00  0.00    +0.000 Br
ATOM      5  C   UNL     1       3.118   3.805  19.220  0.00  0.00    +0.000 A 
ATOM      6  C   UNL     1       3.565   4.810  18.360  0.00  0.00    +0.000 A 
ATOM      7 BR   UNL     1       4.685   4.330  16.906  0.00  0.00    +0.000 Br
ATOM      8  C   UNL     1       3.192   6.144  18.566  0.00  0.00    +0.000 A 
ENDROOT
BRANCH   1  10
ATOM      9  N   UNL     1       1.569   8.621  18.906  0.00  0.00    +0.000 NA
ATOM     10  C   UNL     1       1.959   7.871  19.885  0.00  0.00    +0.000 C 
BRANCH   9  13
ATOM     11  C   UNL     1       0.146  10.549  18.637  0.00  0.00    +0.000 C 
ATOM     12  N   UNL     1      -0.581  10.144  17.654  0.00  0.00    +0.000 NA
ATOM     13  N   UNL     1       1.196   9.891  19.224  0.00  0.00    +0.000 N 
ATOM     14  H   UNL     1      -1.312  10.838  17.489  0.00  0.00    +0.000 HD
ATOM     15  H   UNL     1       1.568  10.340  20.055  0.00  0.00    +0.000 HD
BRANCH  11  17
ATOM     16  C   UNL     1      -2.040  12.047  19.222  0.00  0.00    +0.000 C 
ATOM     17  S   UNL     1      -0.237  12.100  19.350  0.00  0.00    +0.000 S 
ENDBRANCH  11  17
ENDBRANCH   9  13
ENDBRANCH   1  10
BRANCH   8  18
ATOM     18  O   UNL     1       3.632   7.134  17.727  0.00  0.00    +0.000 OA
ATOM     19  H   UNL     1       3.622   7.973  18.225  0.00  0.00    +0.000 HD
ENDBRANCH   8  18
TORSDOF 4
ENDMDL
