MODEL 1
REMARK VINA RESULT:      -8.9      0.000      0.000
REMARK  Name = 
REMARK  5 active torsions:
REMARK  status: ('A' for Active; 'I' for Inactive)
REMARK    1  A    between atoms: C_4  and  C_5
REMARK    2  A    between atoms: C_4  and  C_16
REMARK    3  A    between atoms: C_8  and  O_9
REMARK    4  A    between atoms: O_9  and  C_10
REMARK    5  A    between atoms: C_20  and  C_21
REMARK                            x       y       z     vdW  Elec       q    Type
REMARK                         _______ _______ _______ _____ _____    ______ ____
ROOT
ATOM      1  N   UNL     1      -0.998  12.708  22.542  0.00  0.00    +0.000 N 
ATOM      2  C   UNL     1      -0.518  12.236  21.373  0.00  0.00    +0.000 C 
ATOM      3  N   UNL     1      -0.660  10.992  20.996  0.00  0.00    +0.000 NA
ATOM      4  C   UNL     1      -0.138  10.959  19.547  0.00  0.00    +0.000 C 
ATOM      5  C   UNL     1       0.616  12.327  19.473  0.00  0.00    +0.000 C 
ATOM      6  N   UNL     1       1.453  12.722  18.564  0.00  0.00    +0.000 NA
ATOM      7  C   UNL     1       2.129  13.956  18.998  0.00  0.00    +0.000 C 
ATOM      8  C   UNL     1       1.139  15.021  19.459  0.00  0.00    +0.000 C 
ATOM      9  C   UNL     1       0.004  14.456  20.328  0.00  0.00    +0.000 C 
ATOM     10  N   UNL     1       0.215  13.042  20.566  0.00  0.00    +0.000 N 
ATOM     11  H   UNL     1      -1.495  11.967  23.027  0.00  0.00    +0.000 HD
ATOM     12  H   UNL     1      -0.272  13.072  23.148  0.00  0.00    +0.000 HD
ENDROOT
BRANCH   4  13
ATOM     13  C   UNL     1       0.860   9.843  19.253  0.00  0.00    +0.000 A 
ATOM     14  C   UNL     1       1.461   9.682  18.002  0.00  0.00    +0.000 A 
ATOM     15  C   UNL     1       2.256   8.561  17.748  0.00  0.00    +0.000 A 
ATOM     16  C   UNL     1       2.473   7.591  18.732  0.00  0.00    +0.000 A 
ATOM     17  C   UNL     1       1.868   7.735  19.973  0.00  0.00    +0.000 A 
ATOM     18  C   UNL     1       1.095   8.865  20.239  0.00  0.00    +0.000 A 
BRANCH  16  19
ATOM     19  O   UNL     1       3.230   6.533  18.336  0.00  0.00    +0.000 OA
BRANCH  19  20
ATOM     20  C   UNL     1       2.610   5.277  18.108  0.00  0.00    +0.000 C 
ATOM     21  F   UNL     1       1.386   5.349  17.544  0.00  0.00    +0.000 F 
ATOM     22  F   UNL     1       3.405   4.515  17.327  0.00  0.00    +0.000 F 
ATOM     23  F   UNL     1       2.472   4.654  19.301  0.00  0.00    +0.000 F 
ENDBRANCH  19  20
ENDBRANCH  16  19
ENDBRANCH   4  13
BRANCH   4  24
ATOM     24  C   UNL     1      -1.398  10.872  18.668  0.00  0.00    +0.000 A 
ATOM     25  C   UNL     1      -1.406   9.994  17.568  0.00  0.00    +0.000 A 
ATOM     26  C   UNL     1      -2.556   9.808  16.810  0.00  0.00    +0.000 A 
ATOM     27  C   UNL     1      -3.730  10.475  17.159  0.00  0.00    +0.000 A 
ATOM     28  C   UNL     1      -3.773  11.353  18.256  0.00  0.00    +0.000 A 
ATOM     29  C   UNL     1      -2.578  11.569  18.967  0.00  0.00    +0.000 A 
BRANCH  28  30
ATOM     30  C   UNL     1      -5.033  11.986  18.686  0.00  0.00    +0.000 A 
ATOM     31  C   UNL     1      -5.455  11.967  20.027  0.00  0.00    +0.000 A 
ATOM     32  C   UNL     1      -6.631  12.608  20.404  0.00  0.00    +0.000 A 
ATOM     33  C   UNL     1      -7.380  13.247  19.434  0.00  0.00    +0.000 A 
ATOM     34  N   UNL     1      -7.031  13.293  18.134  0.00  0.00    +0.000 NA
ATOM     35  C   UNL     1      -5.877  12.671  17.796  0.00  0.00    +0.000 A 
ATOM     36  F   UNL     1      -5.537  12.758  16.497  0.00  0.00    +0.000 F 
ENDBRANCH  28  30
ENDBRANCH   4  24
TORSDOF 5
ENDMDL
MODEL 2
REMARK VINA RESULT:      -8.8      1.198      1.514
REMARK  Name = 
REMARK  5 active torsions:
REMARK  status: ('A' for Active; 'I' for Inactive)
REMARK    1  A    between atoms: C_4  and  C_5
REMARK    2  A    between atoms: C_4  and  C_16
REMARK    3  A    between atoms: C_8  and  O_9
REMARK    4  A    between atoms: O_9  and  C_10
REMARK    5  A    between atoms: C_20  and  C_21
REMARK                            x       y       z     vdW  Elec       q    Type
REMARK                         _______ _______ _______ _____ _____    ______ ____
ROOT
ATOM      1  N   UNL     1      -1.230  11.402  23.079  0.00  0.00    +0.000 N 
ATOM      2  C   UNL     1      -0.611  11.225  21.894  0.00  0.00    +0.000 C 
ATOM      3  N   UNL     1      -0.700  10.118  21.203  0.00  0.00    +0.000 NA
ATOM      4  C   UNL     1      -0.008  10.436  19.863  0.00  0.00    +0.000 C 
ATOM      5  C   UNL     1       0.741  11.760  20.223  0.00  0.00    +0.000 C 
ATOM      6  N   UNL     1       1.678  12.349  19.546  0.00  0.00    +0.000 NA
ATOM      7  C   UNL     1       2.291  13.419  20.352  0.00  0.00    +0.000 C 
ATOM      8  C   UNL     1       1.247  14.359  20.947  0.00  0.00    +0.000 C 
ATOM      9  C   UNL     1       0.019  13.623  21.508  0.00  0.00    +0.000 C 
ATOM     10  N   UNL     1       0.209  12.189  21.406  0.00  0.00    +0.000 N 
ATOM     11  H   UNL     1      -1.776  10.576  23.302  0.00  0.00    +0.000 HD
ATOM     12  H   UNL     1      -0.583  11.585  23.837  0.00  0.00    +0.000 HD
ENDROOT
BRANCH   4  13
ATOM     13  C   UNL     1       1.024   9.405  19.417  0.00  0.00    +0.000 A 
ATOM     14  C   UNL     1       1.577   9.400  18.134  0.00  0.00    +0.000 A 
ATOM     15  C   UNL     1       2.408   8.350  17.735  0.00  0.00    +0.000 A 
ATOM     16  C   UNL     1       2.709   7.297  18.604  0.00  0.00    +0.000 A 
ATOM     17  C   UNL     1       2.153   7.285  19.876  0.00  0.00    +0.000 A 
ATOM     18  C   UNL     1       1.344   8.344  20.287  0.00  0.00    +0.000 A 
BRANCH  16  19
ATOM     19  O   UNL     1       3.494   6.323  18.072  0.00  0.00    +0.000 OA
BRANCH  19  20
ATOM     20  C   UNL     1       2.964   5.018  17.897  0.00  0.00    +0.000 C 
ATOM     21  F   UNL     1       3.054   4.223  18.985  0.00  0.00    +0.000 F 
ATOM     22  F   UNL     1       1.668   5.102  17.525  0.00  0.00    +0.000 F 
ATOM     23  F   UNL     1       3.649   4.417  16.897  0.00  0.00    +0.000 F 
ENDBRANCH  19  20
ENDBRANCH  16  19
ENDBRANCH   4  13
BRANCH   4  24
ATOM     24  C   UNL     1      -1.155  10.602  18.849  0.00  0.00    +0.000 A 
ATOM     25  C   UNL     1      -1.088   9.915  17.623  0.00  0.00    +0.000 A 
ATOM     26  C   UNL     1      -2.147   9.954  16.723  0.00  0.00    +0.000 A 
ATOM     27  C   UNL     1      -3.305  10.659  17.049  0.00  0.00    +0.000 A 
ATOM     28  C   UNL     1      -3.422  11.351  18.267  0.00  0.00    +0.000 A 
ATOM     29  C   UNL     1      -2.311  11.344  19.131  0.00  0.00    +0.000 A 
BRANCH  28  30
ATOM     30  C   UNL     1      -4.678  12.016  18.657  0.00  0.00    +0.000 A 
ATOM     31  C   UNL     1      -5.772  12.115  17.780  0.00  0.00    +0.000 A 
ATOM     32  C   UNL     1      -6.956  12.716  18.195  0.00  0.00    +0.000 A 
ATOM     33  C   UNL     1      -7.027  13.227  19.477  0.00  0.00    +0.000 A 
ATOM     34  N   UNL     1      -6.012  13.169  20.359  0.00  0.00    +0.000 NA
ATOM     35  C   UNL     1      -4.875  12.570  19.934  0.00  0.00    +0.000 A 
ATOM     36  F   UNL     1      -3.887  12.499  20.845  0.00  0.00    +0.000 F 
ENDBRANCH  28  30
ENDBRANCH   4  24
TORSDOF 5
ENDMDL
MODEL 3
REMARK VINA RESULT:      -8.7      1.004      1.332
REMARK  Name = 
REMARK  5 active torsions:
REMARK  status: ('A' for Active; 'I' for Inactive)
REMARK    1  A    between atoms: C_4  and  C_5
REMARK    2  A    between atoms: C_4  and  C_16
REMARK    3  A    between atoms: C_8  and  O_9
REMARK    4  A    between atoms: O_9  and  C_10
REMARK    5  A    between atoms: C_20  and  C_21
REMARK                            x       y       z     vdW  Elec       q    Type
REMARK                         _______ _______ _______ _____ _____    ______ ____
ROOT
ATOM      1  N   UNL     1      -0.498  13.219  22.204  0.00  0.00    +0.000 N 
ATOM      2  C   UNL     1      -0.151  12.509  21.111  0.00  0.00    +0.000 C 
ATOM      3  N   UNL     1      -0.508  11.264  20.928  0.00  0.00    +0.000 NA
ATOM      4  C   UNL     1      -0.060  10.935  19.491  0.00  0.00    +0.000 C 
ATOM      5  C   UNL     1       0.901  12.132  19.199  0.00  0.00    +0.000 C 
ATOM      6  N   UNL     1       1.753  12.246  18.226  0.00  0.00    +0.000 NA
ATOM      7  C   UNL     1       2.638  13.399  18.457  0.00  0.00    +0.000 C 
ATOM      8  C   UNL     1       1.854  14.670  18.771  0.00  0.00    +0.000 C 
ATOM      9  C   UNL     1       0.680  14.435  19.735  0.00  0.00    +0.000 C 
ATOM     10  N   UNL     1       0.669  13.055  20.179  0.00  0.00    +0.000 N 
ATOM     11  H   UNL     1      -1.087  12.650  22.804  0.00  0.00    +0.000 HD
ATOM     12  H   UNL     1       0.303  13.541  22.735  0.00  0.00    +0.000 HD
ENDROOT
BRANCH   4  13
ATOM     13  C   UNL     1       0.730   9.637  19.351  0.00  0.00    +0.000 A 
ATOM     14  C   UNL     1       0.965   8.780  20.429  0.00  0.00    +0.000 A 
ATOM     15  C   UNL     1       1.814   7.681  20.276  0.00  0.00    +0.000 A 
ATOM     16  C   UNL     1       2.434   7.413  19.051  0.00  0.00    +0.000 A 
ATOM     17  C   UNL     1       2.220   8.267  17.979  0.00  0.00    +0.000 A 
ATOM     18  C   UNL     1       1.353   9.350  18.120  0.00  0.00    +0.000 A 
BRANCH  16  19
ATOM     19  O   UNL     1       3.267   6.338  19.055  0.00  0.00    +0.000 OA
BRANCH  19  20
ATOM     20  C   UNL     1       3.021   5.261  18.163  0.00  0.00    +0.000 C 
ATOM     21  F   UNL     1       1.726   5.102  17.818  0.00  0.00    +0.000 F 
ATOM     22  F   UNL     1       3.753   5.427  17.040  0.00  0.00    +0.000 F 
ATOM     23  F   UNL     1       3.426   4.118  18.762  0.00  0.00    +0.000 F 
ENDBRANCH  19  20
ENDBRANCH  16  19
ENDBRANCH   4  13
BRANCH   4  24
ATOM     24  C   UNL     1      -1.354  10.933  18.658  0.00  0.00    +0.000 A 
ATOM     25  C   UNL     1      -1.382  10.228  17.440  0.00  0.00    +0.000 A 
ATOM     26  C   UNL     1      -2.557  10.114  16.706  0.00  0.00    +0.000 A 
ATOM     27  C   UNL     1      -3.735  10.677  17.196  0.00  0.00    +0.000 A 
ATOM     28  C   UNL     1      -3.759  11.380  18.414  0.00  0.00    +0.000 A 
ATOM     29  C   UNL     1      -2.541  11.532  19.103  0.00  0.00    +0.000 A 
BRANCH  28  30
ATOM     30  C   UNL     1      -5.018  11.894  18.982  0.00  0.00    +0.000 A 
ATOM     31  C   UNL     1      -5.158  13.232  19.391  0.00  0.00    +0.000 A 
ATOM     32  C   UNL     1      -6.373  13.693  19.887  0.00  0.00    +0.000 A 
ATOM     33  C   UNL     1      -7.429  12.807  19.986  0.00  0.00    +0.000 A 
ATOM     34  N   UNL     1      -7.354  11.514  19.617  0.00  0.00    +0.000 NA
ATOM     35  C   UNL     1      -6.163  11.094  19.127  0.00  0.00    +0.000 A 
ATOM     36  F   UNL     1      -6.124   9.806  18.740  0.00  0.00    +0.000 F 
ENDBRANCH  28  30
ENDBRANCH   4  24
TORSDOF 5
ENDMDL
MODEL 4
REMARK VINA RESULT:      -8.7      5.334     10.658
REMARK  Name = 
REMARK  5 active torsions:
REMARK  status: ('A' for Active; 'I' for Inactive)
REMARK    1  A    between atoms: C_4  and  C_5
REMARK    2  A    between atoms: C_4  and  C_16
REMARK    3  A    between atoms: C_8  and  O_9
REMARK    4  A    between atoms: O_9  and  C_10
REMARK    5  A    between atoms: C_20  and  C_21
REMARK                            x       y       z     vdW  Elec       q    Type
REMARK                         _______ _______ _______ _____ _____    ______ ____
ROOT
ATOM      1  N   UNL     1       5.009   2.646  20.679  0.00  0.00    +0.000 N 
ATOM      2  C   UNL     1       4.445   3.559  19.861  0.00  0.00    +0.000 C 
ATOM      3  N   UNL     1       4.726   4.835  19.919  0.00  0.00    +0.000 NA
ATOM      4  C   UNL     1       4.012   5.449  18.700  0.00  0.00    +0.000 C 
ATOM      5  C   UNL     1       3.048   4.283  18.303  0.00  0.00    +0.000 C 
ATOM      6  N   UNL     1       2.035   4.333  17.493  0.00  0.00    +0.000 NA
ATOM      7  C   UNL     1       1.242   3.097  17.594  0.00  0.00    +0.000 C 
ATOM      8  C   UNL     1       2.107   1.848  17.458  0.00  0.00    +0.000 C 
ATOM      9  C   UNL     1       3.431   1.941  18.234  0.00  0.00    +0.000 C 
ATOM     10  N   UNL     1       3.484   3.181  18.982  0.00  0.00    +0.000 N 
ATOM     11  H   UNL     1       5.681   3.104  21.285  0.00  0.00    +0.000 HD
ATOM     12  H   UNL     1       4.330   2.155  21.249  0.00  0.00    +0.000 HD
ENDROOT
BRANCH   4  13
ATOM     13  C   UNL     1       3.171   6.684  19.008  0.00  0.00    +0.000 A 
ATOM     14  C   UNL     1       2.434   6.816  20.188  0.00  0.00    +0.000 A 
ATOM     15  C   UNL     1       1.570   7.902  20.354  0.00  0.00    +0.000 A 
ATOM     16  C   UNL     1       1.434   8.876  19.360  0.00  0.00    +0.000 A 
ATOM     17  C   UNL     1       2.151   8.746  18.179  0.00  0.00    +0.000 A 
ATOM     18  C   UNL     1       3.033   7.677  18.019  0.00  0.00    +0.000 A 
BRANCH  16  19
ATOM     19  O   UNL     1       0.529   9.853  19.635  0.00  0.00    +0.000 OA
BRANCH  19  20
ATOM     20  C   UNL     1      -0.279  10.370  18.590  0.00  0.00    +0.000 C 
ATOM     21  F   UNL     1      -0.364   9.578  17.500  0.00  0.00    +0.000 F 
ATOM     22  F   UNL     1      -1.525  10.606  19.055  0.00  0.00    +0.000 F 
ATOM     23  F   UNL     1       0.250  11.551  18.194  0.00  0.00    +0.000 F 
ENDBRANCH  19  20
ENDBRANCH  16  19
ENDBRANCH   4  13
BRANCH   4  24
ATOM     24  C   UNL     1       5.129   5.733  17.680  0.00  0.00    +0.000 A 
ATOM     25  C   UNL     1       6.252   6.479  18.086  0.00  0.00    +0.000 A 
ATOM     26  C   UNL     1       7.330   6.671  17.230  0.00  0.00    +0.000 A 
ATOM     27  C   UNL     1       7.317   6.093  15.961  0.00  0.00    +0.000 A 
ATOM     28  C   UNL     1       6.222   5.330  15.516  0.00  0.00    +0.000 A 
ATOM     29  C   UNL     1       5.120   5.204  16.382  0.00  0.00    +0.000 A 
BRANCH  28  30
ATOM     30  C   UNL     1       6.244   4.638  14.215  0.00  0.00    +0.000 A 
ATOM     31  C   UNL     1       5.212   3.771  13.815  0.00  0.00    +0.000 A 
ATOM     32  C   UNL     1       5.247   3.165  12.564  0.00  0.00    +0.000 A 
ATOM     33  C   UNL     1       6.321   3.419  11.732  0.00  0.00    +0.000 A 
ATOM     34  N   UNL     1       7.341   4.234  12.061  0.00  0.00    +0.000 NA
ATOM     35  C   UNL     1       7.278   4.820  13.280  0.00  0.00    +0.000 A 
ATOM     36  F   UNL     1       8.294   5.651  13.571  0.00  0.00    +0.000 F 
ENDBRANCH  28  30
ENDBRANCH   4  24
TORSDOF 5
ENDMDL
MODEL 5
REMARK VINA RESULT:      -8.6      4.166      5.329
REMARK  Name = 
REMARK  5 active torsions:
REMARK  status: ('A' for Active; 'I' for Inactive)
REMARK    1  A    between atoms: C_4  and  C_5
REMARK    2  A    between atoms: C_4  and  C_16
REMARK    3  A    between atoms: C_8  and  O_9
REMARK    4  A    between atoms: O_9  and  C_10
REMARK    5  A    between atoms: C_20  and  C_21
REMARK                            x       y       z     vdW  Elec       q    Type
REMARK                         _______ _______ _______ _____ _____    ______ ____
ROOT
ATOM      1  N   UNL     1      -0.818   9.510  23.211  0.00  0.00    +0.000 N 
ATOM      2  C   UNL     1      -0.718  10.536  22.341  0.00  0.00    +0.000 C 
ATOM      3  N   UNL     1      -0.060  10.451  21.213  0.00  0.00    +0.000 NA
ATOM      4  C   UNL     1      -0.374  11.767  20.476  0.00  0.00    +0.000 C 
ATOM      5  C   UNL     1      -0.981  12.619  21.638  0.00  0.00    +0.000 C 
ATOM      6  N   UNL     1      -1.199  13.899  21.651  0.00  0.00    +0.000 NA
ATOM      7  C   UNL     1      -1.533  14.343  23.015  0.00  0.00    +0.000 C 
ATOM      8  C   UNL     1      -2.642  13.500  23.637  0.00  0.00    +0.000 C 
ATOM      9  C   UNL     1      -2.480  11.995  23.370  0.00  0.00    +0.000 C 
ATOM     10  N   UNL     1      -1.245  11.746  22.654  0.00  0.00    +0.000 N 
ATOM     11  H   UNL     1      -0.347   8.696  22.830  0.00  0.00    +0.000 HD
ATOM     12  H   UNL     1      -0.424   9.725  24.120  0.00  0.00    +0.000 HD
ENDROOT
BRANCH   4  13
ATOM     13  C   UNL     1       0.848  12.499  19.929  0.00  0.00    +0.000 A 
ATOM     14  C   UNL     1       1.861  12.991  20.755  0.00  0.00    +0.000 A 
ATOM     15  C   UNL     1       2.883  13.777  20.215  0.00  0.00    +0.000 A 
ATOM     16  C   UNL     1       2.918  14.076  18.849  0.00  0.00    +0.000 A 
ATOM     17  C   UNL     1       1.908  13.604  18.023  0.00  0.00    +0.000 A 
ATOM     18  C   UNL     1       0.901  12.799  18.553  0.00  0.00    +0.000 A 
BRANCH  16  19
ATOM     19  O   UNL     1       3.943  14.885  18.467  0.00  0.00    +0.000 OA
BRANCH  19  20
ATOM     20  C   UNL     1       3.667  16.216  18.060  0.00  0.00    +0.000 C 
ATOM     21  F   UNL     1       2.618  16.789  18.686  0.00  0.00    +0.000 F 
ATOM     22  F   UNL     1       4.762  16.984  18.253  0.00  0.00    +0.000 F 
ATOM     23  F   UNL     1       3.393  16.203  16.735  0.00  0.00    +0.000 F 
ENDBRANCH  19  20
ENDBRANCH  16  19
ENDBRANCH   4  13
BRANCH   4  24
ATOM     24  C   UNL     1      -1.376  11.380  19.373  0.00  0.00    +0.000 A 
ATOM     25  C   UNL     1      -1.053  10.329  18.494  0.00  0.00    +0.000 A 
ATOM     26  C   UNL     1      -1.969   9.880  17.551  0.00  0.00    +0.000 A 
ATOM     27  C   UNL     1      -3.239  10.454  17.491  0.00  0.00    +0.000 A 
ATOM     28  C   UNL     1      -3.610  11.498  18.357  0.00  0.00    +0.000 A 
ATOM     29  C   UNL     1      -2.641  11.974  19.259  0.00  0.00    +0.000 A 
BRANCH  28  30
ATOM     30  C   UNL     1      -4.980  12.043  18.362  0.00  0.00    +0.000 A 
ATOM     31  C   UNL     1      -5.674  12.323  17.173  0.00  0.00    +0.000 A 
ATOM     32  C   UNL     1      -6.980  12.801  17.215  0.00  0.00    +0.000 A 
ATOM     33  C   UNL     1      -7.571  13.009  18.447  0.00  0.00    +0.000 A 
ATOM     34  N   UNL     1      -6.956  12.765  19.619  0.00  0.00    +0.000 NA
ATOM     35  C   UNL     1      -5.689  12.291  19.550  0.00  0.00    +0.000 A 
ATOM     36  F   UNL     1      -5.108  12.029  20.734  0.00  0.00    +0.000 F 
ENDBRANCH  28  30
ENDBRANCH   4  24
TORSDOF 5
ENDMDL
MODEL 6
REMARK VINA RESULT:      -8.6      1.064      1.498
REMARK  Name = 
REMARK  5 active torsions:
REMARK  status: ('A' for Active; 'I' for Inactive)
REMARK    1  A    between atoms: C_4  and  C_5
REMARK    2  A    between atoms: C_4  and  C_16
REMARK    3  A    between atoms: C_8  and  O_9
REMARK    4  A    between atoms: O_9  and  C_10
REMARK    5  A    between atoms: C_20  and  C_21
REMARK                            x       y       z     vdW  Elec       q    Type
REMARK                         _______ _______ _______ _____ _____    ______ ____
ROOT
ATOM      1  N   UNL     1      -0.701  13.210  22.116  0.00  0.00    +0.000 N 
ATOM      2  C   UNL     1      -0.284  12.489  21.055  0.00  0.00    +0.000 C 
ATOM      3  N   UNL     1      -0.622  11.240  20.866  0.00  0.00    +0.000 NA
ATOM      4  C   UNL     1      -0.086  10.896  19.463  0.00  0.00    +0.000 C 
ATOM      5  C   UNL     1       0.885  12.096  19.215  0.00  0.00    +0.000 C 
ATOM      6  N   UNL     1       1.793  12.203  18.294  0.00  0.00    +0.000 NA
ATOM      7  C   UNL     1       2.656  13.365  18.564  0.00  0.00    +0.000 C 
ATOM      8  C   UNL     1       1.847  14.635  18.814  0.00  0.00    +0.000 C 
ATOM      9  C   UNL     1       0.618  14.403  19.708  0.00  0.00    +0.000 C 
ATOM     10  N   UNL     1       0.588  13.029  20.167  0.00  0.00    +0.000 N 
ATOM     11  H   UNL     1      -1.322  12.644  22.686  0.00  0.00    +0.000 HD
ATOM     12  H   UNL     1       0.064  13.542  22.691  0.00  0.00    +0.000 HD
ENDROOT
BRANCH   4  13
ATOM     13  C   UNL     1       0.719   9.602  19.387  0.00  0.00    +0.000 A 
ATOM     14  C   UNL     1       0.942   8.788  20.501  0.00  0.00    +0.000 A 
ATOM     15  C   UNL     1       1.804   7.693  20.405  0.00  0.00    +0.000 A 
ATOM     16  C   UNL     1       2.449   7.384  19.204  0.00  0.00    +0.000 A 
ATOM     17  C   UNL     1       2.246   8.195  18.095  0.00  0.00    +0.000 A 
ATOM     18  C   UNL     1       1.366   9.274  18.179  0.00  0.00    +0.000 A 
BRANCH  16  19
ATOM     19  O   UNL     1       3.292   6.319  19.263  0.00  0.00    +0.000 OA
BRANCH  19  20
ATOM     20  C   UNL     1       2.777   5.010  19.069  0.00  0.00    +0.000 C 
ATOM     21  F   UNL     1       1.623   4.958  18.370  0.00  0.00    +0.000 F 
ATOM     22  F   UNL     1       3.700   4.250  18.442  0.00  0.00    +0.000 F 
ATOM     23  F   UNL     1       2.542   4.466  20.285  0.00  0.00    +0.000 F 
ENDBRANCH  19  20
ENDBRANCH  16  19
ENDBRANCH   4  13
BRANCH   4  24
ATOM     24  C   UNL     1      -1.327  10.875  18.553  0.00  0.00    +0.000 A 
ATOM     25  C   UNL     1      -1.333  10.035  17.423  0.00  0.00    +0.000 A 
ATOM     26  C   UNL     1      -2.469   9.909  16.633  0.00  0.00    +0.000 A 
ATOM     27  C   UNL     1      -3.632  10.597  16.978  0.00  0.00    +0.000 A 
ATOM     28  C   UNL     1      -3.677  11.438  18.103  0.00  0.00    +0.000 A 
ATOM     29  C   UNL     1      -2.493  11.595  18.849  0.00  0.00    +0.000 A 
BRANCH  28  30
ATOM     30  C   UNL     1      -4.928  12.092  18.526  0.00  0.00    +0.000 A 
ATOM     31  C   UNL     1      -5.990  12.316  17.633  0.00  0.00    +0.000 A 
ATOM     32  C   UNL     1      -7.171  12.901  18.075  0.00  0.00    +0.000 A 
ATOM     33  C   UNL     1      -7.272  13.272  19.403  0.00  0.00    +0.000 A 
ATOM     34  N   UNL     1      -6.289  13.090  20.303  0.00  0.00    +0.000 NA
ATOM     35  C   UNL     1      -5.153  12.509  19.849  0.00  0.00    +0.000 A 
ATOM     36  F   UNL     1      -4.198  12.312  20.776  0.00  0.00    +0.000 F 
ENDBRANCH  28  30
ENDBRANCH   4  24
TORSDOF 5
ENDMDL
MODEL 7
REMARK VINA RESULT:      -8.6      5.314     10.615
REMARK  Name = 
REMARK  5 active torsions:
REMARK  status: ('A' for Active; 'I' for Inactive)
REMARK    1  A    between atoms: C_4  and  C_5
REMARK    2  A    between atoms: C_4  and  C_16
REMARK    3  A    between atoms: C_8  and  O_9
REMARK    4  A    between atoms: O_9  and  C_10
REMARK    5  A    between atoms: C_20  and  C_21
REMARK                            x       y       z     vdW  Elec       q    Type
REMARK                         _______ _______ _______ _____ _____    ______ ____
ROOT
ATOM      1  N   UNL     1       4.903   3.060  20.836  0.00  0.00    +0.000 N 
ATOM      2  C   UNL     1       4.357   3.858  19.896  0.00  0.00    +0.000 C 
ATOM      3  N   UNL     1       4.597   5.142  19.825  0.00  0.00    +0.000 NA
ATOM      4  C   UNL     1       3.929   5.594  18.512  0.00  0.00    +0.000 C 
ATOM      5  C   UNL     1       3.021   4.360  18.202  0.00  0.00    +0.000 C 
ATOM      6  N   UNL     1       2.051   4.286  17.343  0.00  0.00    +0.000 NA
ATOM      7  C   UNL     1       1.290   3.041  17.543  0.00  0.00    +0.000 C 
ATOM      8  C   UNL     1       2.197   1.815  17.588  0.00  0.00    +0.000 C 
ATOM      9  C   UNL     1       3.476   2.038  18.411  0.00  0.00    +0.000 C 
ATOM     10  N   UNL     1       3.453   3.354  19.019  0.00  0.00    +0.000 N 
ATOM     11  H   UNL     1       5.530   3.605  21.419  0.00  0.00    +0.000 HD
ATOM     12  H   UNL     1       4.210   2.612  21.423  0.00  0.00    +0.000 HD
ENDROOT
BRANCH   4  13
ATOM     13  C   UNL     1       3.038   6.826  18.641  0.00  0.00    +0.000 A 
ATOM     14  C   UNL     1       3.010   7.838  17.679  0.00  0.00    +0.000 A 
ATOM     15  C   UNL     1       2.285   9.009  17.916  0.00  0.00    +0.000 A 
ATOM     16  C   UNL     1       1.572   9.188  19.105  0.00  0.00    +0.000 A 
ATOM     17  C   UNL     1       1.605   8.195  20.074  0.00  0.00    +0.000 A 
ATOM     18  C   UNL     1       2.307   7.014  19.831  0.00  0.00    +0.000 A 
BRANCH  16  19
ATOM     19  O   UNL     1       0.947  10.390  19.223  0.00  0.00    +0.000 OA
BRANCH  19  20
ATOM     20  C   UNL     1      -0.425  10.500  18.878  0.00  0.00    +0.000 C 
ATOM     21  F   UNL     1      -1.281  10.085  19.836  0.00  0.00    +0.000 F 
ATOM     22  F   UNL     1      -0.712  11.782  18.565  0.00  0.00    +0.000 F 
ATOM     23  F   UNL     1      -0.645   9.741  17.780  0.00  0.00    +0.000 F 
ENDBRANCH  19  20
ENDBRANCH  16  19
ENDBRANCH   4  13
BRANCH   4  24
ATOM     24  C   UNL     1       5.089   5.804  17.522  0.00  0.00    +0.000 A 
ATOM     25  C   UNL     1       6.241   6.487  17.954  0.00  0.00    +0.000 A 
ATOM     26  C   UNL     1       7.351   6.609  17.128  0.00  0.00    +0.000 A 
ATOM     27  C   UNL     1       7.340   6.020  15.863  0.00  0.00    +0.000 A 
ATOM     28  C   UNL     1       6.216   5.318  15.394  0.00  0.00    +0.000 A 
ATOM     29  C   UNL     1       5.085   5.264  16.229  0.00  0.00    +0.000 A 
BRANCH  28  30
ATOM     30  C   UNL     1       6.234   4.614  14.099  0.00  0.00    +0.000 A 
ATOM     31  C   UNL     1       5.190   3.761  13.701  0.00  0.00    +0.000 A 
ATOM     32  C   UNL     1       5.221   3.142  12.456  0.00  0.00    +0.000 A 
ATOM     33  C   UNL     1       6.305   3.370  11.628  0.00  0.00    +0.000 A 
ATOM     34  N   UNL     1       7.336   4.170  11.955  0.00  0.00    +0.000 NA
ATOM     35  C   UNL     1       7.276   4.769  13.169  0.00  0.00    +0.000 A 
ATOM     36  F   UNL     1       8.305   5.585  13.459  0.00  0.00    +0.000 F 
ENDBRANCH  28  30
ENDBRANCH   4  24
TORSDOF 5
ENDMDL
MODEL 8
REMARK VINA RESULT:      -8.6      4.211      5.392
REMARK  Name = 
REMARK  5 active torsions:
REMARK  status: ('A' for Active; 'I' for Inactive)
REMARK    1  A    between atoms: C_4  and  C_5
REMARK    2  A    between atoms: C_4  and  C_16
REMARK    3  A    between atoms: C_8  and  O_9
REMARK    4  A    between atoms: O_9  and  C_10
REMARK    5  A    between atoms: C_20  and  C_21
REMARK                            x       y       z     vdW  Elec       q    Type
REMARK                         _______ _______ _______ _____ _____    ______ ____
ROOT
ATOM      1  N   UNL     1      -0.662   9.656  23.237  0.00  0.00    +0.000 N 
ATOM      2  C   UNL     1      -0.692  10.705  22.390  0.00  0.00    +0.000 C 
ATOM      3  N   UNL     1      -0.052  10.716  21.249  0.00  0.00    +0.000 NA
ATOM      4  C   UNL     1      -0.523  12.005  20.548  0.00  0.00    +0.000 C 
ATOM      5  C   UNL     1      -1.195  12.762  21.740  0.00  0.00    +0.000 C 
ATOM      6  N   UNL     1      -1.551  14.009  21.787  0.00  0.00    +0.000 NA
ATOM      7  C   UNL     1      -1.903  14.384  23.167  0.00  0.00    +0.000 C 
ATOM      8  C   UNL     1      -2.901  13.412  23.789  0.00  0.00    +0.000 C 
ATOM      9  C   UNL     1      -2.582  11.940  23.484  0.00  0.00    +0.000 C 
ATOM     10  N   UNL     1      -1.341  11.843  22.740  0.00  0.00    +0.000 N 
ATOM     11  H   UNL     1      -0.112   8.907  22.829  0.00  0.00    +0.000 HD
ATOM     12  H   UNL     1      -0.275   9.894  24.143  0.00  0.00    +0.000 HD
ENDROOT
BRANCH   4  13
ATOM     13  C   UNL     1       0.600  12.878  19.996  0.00  0.00    +0.000 A 
ATOM     14  C   UNL     1       0.600  13.365  18.687  0.00  0.00    +0.000 A 
ATOM     15  C   UNL     1       1.719  14.038  18.191  0.00  0.00    +0.000 A 
ATOM     16  C   UNL     1       2.849  14.245  18.988  0.00  0.00    +0.000 A 
ATOM     17  C   UNL     1       2.866  13.751  20.285  0.00  0.00    +0.000 A 
ATOM     18  C   UNL     1       1.741  13.102  20.792  0.00  0.00    +0.000 A 
BRANCH  16  19
ATOM     19  O   UNL     1       3.881  14.876  18.366  0.00  0.00    +0.000 OA
BRANCH  19  20
ATOM     20  C   UNL     1       3.824  16.280  18.168  0.00  0.00    +0.000 C 
ATOM     21  F   UNL     1       3.305  16.660  16.982  0.00  0.00    +0.000 F 
ATOM     22  F   UNL     1       3.103  16.847  19.160  0.00  0.00    +0.000 F 
ATOM     23  F   UNL     1       5.084  16.766  18.236  0.00  0.00    +0.000 F 
ENDBRANCH  19  20
ENDBRANCH  16  19
ENDBRANCH   4  13
BRANCH   4  24
ATOM     24  C   UNL     1      -1.499  11.535  19.455  0.00  0.00    +0.000 A 
ATOM     25  C   UNL     1      -1.145  10.437  18.649  0.00  0.00    +0.000 A 
ATOM     26  C   UNL     1      -2.037   9.914  17.720  0.00  0.00    +0.000 A 
ATOM     27  C   UNL     1      -3.314  10.463  17.603  0.00  0.00    +0.000 A 
ATOM     28  C   UNL     1      -3.716  11.553  18.395  0.00  0.00    +0.000 A 
ATOM     29  C   UNL     1      -2.770  12.100  19.283  0.00  0.00    +0.000 A 
BRANCH  28  30
ATOM     30  C   UNL     1      -5.094  12.075  18.344  0.00  0.00    +0.000 A 
ATOM     31  C   UNL     1      -5.702  12.453  17.134  0.00  0.00    +0.000 A 
ATOM     32  C   UNL     1      -7.016  12.906  17.118  0.00  0.00    +0.000 A 
ATOM     33  C   UNL     1      -7.704  12.992  18.314  0.00  0.00    +0.000 A 
ATOM     34  N   UNL     1      -7.174  12.651  19.503  0.00  0.00    +0.000 NA
ATOM     35  C   UNL     1      -5.896  12.203  19.490  0.00  0.00    +0.000 A 
ATOM     36  F   UNL     1      -5.401  11.842  20.688  0.00  0.00    +0.000 F 
ENDBRANCH  28  30
ENDBRANCH   4  24
TORSDOF 5
ENDMDL
MODEL 9
REMARK VINA RESULT:      -8.6      4.044      6.233
REMARK  Name = 
REMARK  5 active torsions:
REMARK  status: ('A' for Active; 'I' for Inactive)
REMARK    1  A    between atoms: C_4  and  C_5
REMARK    2  A    between atoms: C_4  and  C_16
REMARK    3  A    between atoms: C_8  and  O_9
REMARK    4  A    between atoms: O_9  and  C_10
REMARK    5  A    between atoms: C_20  and  C_21
REMARK                            x       y       z     vdW  Elec       q    Type
REMARK                         _______ _______ _______ _____ _____    ______ ____
ROOT
ATOM      1  N   UNL     1       2.512  11.635  17.489  0.00  0.00    +0.000 N 
ATOM      2  C   UNL     1       1.556  11.355  18.397  0.00  0.00    +0.000 C 
ATOM      3  N   UNL     1       0.636  12.215  18.751  0.00  0.00    +0.000 NA
ATOM      4  C   UNL     1      -0.330  11.413  19.643  0.00  0.00    +0.000 C 
ATOM      5  C   UNL     1       0.528  10.139  19.937  0.00  0.00    +0.000 C 
ATOM      6  N   UNL     1       0.312   9.228  20.836  0.00  0.00    +0.000 NA
ATOM      7  C   UNL     1       1.484   8.346  20.957  0.00  0.00    +0.000 C 
ATOM      8  C   UNL     1       1.941   7.810  19.603  0.00  0.00    +0.000 C 
ATOM      9  C   UNL     1       1.931   8.876  18.496  0.00  0.00    +0.000 C 
ATOM     10  N   UNL     1       1.566  10.165  19.049  0.00  0.00    +0.000 N 
ATOM     11  H   UNL     1       2.369  12.571  17.124  0.00  0.00    +0.000 HD
ATOM     12  H   UNL     1       3.449  11.568  17.870  0.00  0.00    +0.000 HD
ENDROOT
BRANCH   4  13
ATOM     13  C   UNL     1      -0.673  12.079  20.972  0.00  0.00    +0.000 A 
ATOM     14  C   UNL     1      -1.373  11.419  21.986  0.00  0.00    +0.000 A 
ATOM     15  C   UNL     1      -1.784  12.120  23.122  0.00  0.00    +0.000 A 
ATOM     16  C   UNL     1      -1.499  13.481  23.273  0.00  0.00    +0.000 A 
ATOM     17  C   UNL     1      -0.817  14.149  22.266  0.00  0.00    +0.000 A 
ATOM     18  C   UNL     1      -0.383  13.447  21.142  0.00  0.00    +0.000 A 
BRANCH  16  19
ATOM     19  O   UNL     1      -1.994  14.047  24.406  0.00  0.00    +0.000 OA
BRANCH  19  20
ATOM     20  C   UNL     1      -3.394  14.249  24.531  0.00  0.00    +0.000 C 
ATOM     21  F   UNL     1      -4.071  13.196  25.035  0.00  0.00    +0.000 F 
ATOM     22  F   UNL     1      -3.627  15.329  25.308  0.00  0.00    +0.000 F 
ATOM     23  F   UNL     1      -3.894  14.502  23.300  0.00  0.00    +0.000 F 
ENDBRANCH  19  20
ENDBRANCH  16  19
ENDBRANCH   4  13
BRANCH   4  24
ATOM     24  C   UNL     1      -1.572  11.163  18.769  0.00  0.00    +0.000 A 
ATOM     25  C   UNL     1      -1.542  10.123  17.821  0.00  0.00    +0.000 A 
ATOM     26  C   UNL     1      -2.673   9.797  17.082  0.00  0.00    +0.000 A 
ATOM     27  C   UNL     1      -3.866  10.486  17.303  0.00  0.00    +0.000 A 
ATOM     28  C   UNL     1      -3.946  11.524  18.248  0.00  0.00    +0.000 A 
ATOM     29  C   UNL     1      -2.769  11.873  18.935  0.00  0.00    +0.000 A 
BRANCH  28  30
ATOM     30  C   UNL     1      -5.225  12.190  18.552  0.00  0.00    +0.000 A 
ATOM     31  C   UNL     1      -6.164  12.492  17.551  0.00  0.00    +0.000 A 
ATOM     32  C   UNL     1      -7.377  13.087  17.879  0.00  0.00    +0.000 A 
ATOM     33  C   UNL     1      -7.632  13.389  19.204  0.00  0.00    +0.000 A 
ATOM     34  N   UNL     1      -6.770  13.131  20.205  0.00  0.00    +0.000 NA
ATOM     35  C   UNL     1      -5.601  12.542  19.860  0.00  0.00    +0.000 A 
ATOM     36  F   UNL     1      -4.771  12.268  20.883  0.00  0.00    +0.000 F 
ENDBRANCH  28  30
ENDBRANCH   4  24
TORSDOF 5
ENDMDL
