MODEL 1
REMARK VINA RESULT:      -8.3      0.000      0.000
REMARK  Name = 
REMARK  5 active torsions:
REMARK  status: ('A' for Active; 'I' for Inactive)
REMARK    1  A    between atoms: C_2  and  C_18
REMARK    2  A    between atoms: N_3  and  C_4
REMARK    3  A    between atoms: C_4  and  C_5
REMARK    4  A    between atoms: C_8  and  O_9
REMARK    5  A    between atoms: O_9  and  C_10
REMARK                            x       y       z     vdW  Elec       q    Type
REMARK                         _______ _______ _______ _____ _____    ______ ____
ROOT
ATOM      1  C   UNL     1       2.790   5.745  20.163  0.00  0.00    +0.000 C 
ENDROOT
BRANCH   1   2
ATOM      2  C   UNL     1       2.211   7.061  19.726  0.00  0.00    +0.000 A 
ATOM      3  C   UNL     1       2.328   7.493  18.398  0.00  0.00    +0.000 A 
ATOM      4  C   UNL     1       1.742   8.696  17.992  0.00  0.00    +0.000 A 
ATOM      5  C   UNL     1       1.042   9.482  18.909  0.00  0.00    +0.000 A 
ATOM      6  C   UNL     1       0.999   9.102  20.251  0.00  0.00    +0.000 A 
ATOM      7  C   UNL     1       1.560   7.887  20.653  0.00  0.00    +0.000 A 
BRANCH   5   8
ATOM      8  O   UNL     1       0.487  10.642  18.414  0.00  0.00    +0.000 OA
BRANCH   8   9
ATOM      9  C   UNL     1      -0.877  10.737  18.253  0.00  0.00    +0.000 A 
ATOM     10  C   UNL     1      -1.512  11.723  19.011  0.00  0.00    +0.000 A 
ATOM     11  C   UNL     1      -2.894  11.899  18.921  0.00  0.00    +0.000 A 
ATOM     12  C   UNL     1      -3.646  11.088  18.070  0.00  0.00    +0.000 A 
ATOM     13  C   UNL     1      -3.011  10.128  17.283  0.00  0.00    +0.000 A 
ATOM     14  C   UNL     1      -1.625   9.972  17.353  0.00  0.00    +0.000 A 
ENDBRANCH   8   9
ENDBRANCH   5   8
ENDBRANCH   1   2
BRANCH   1  17
ATOM     15  O   UNL     1       3.593   3.827  18.351  0.00  0.00    +0.000 OA
ATOM     16  C   UNL     1       4.460   4.540  18.849  0.00  0.00    +0.000 C 
ATOM     17  N   UNL     1       4.150   5.579  19.703  0.00  0.00    +0.000 N 
ATOM     18  H   UNL     1       4.887   6.039  20.219  0.00  0.00    +0.000 HD
BRANCH  16  19
ATOM     19  C   UNL     1       5.934   4.411  18.517  0.00  0.00    +0.000 C 
ATOM     20  C   UNL     1       6.775   5.607  19.066  0.00  0.00    +0.000 C 
ATOM     21  O   UNL     1       7.605   6.143  17.981  0.00  0.00    +0.000 OA
ATOM     22  C   UNL     1       7.148   5.556  16.857  0.00  0.00    +0.000 A 
ATOM     23  N   UNL     1       7.499   5.763  15.558  0.00  0.00    +0.000 NA
ATOM     24  C   UNL     1       6.788   4.932  14.817  0.00  0.00    +0.000 A 
ATOM     25  S   UNL     1       5.718   3.859  15.671  0.00  0.00    +0.000 S 
ATOM     26  C   UNL     1       6.216   4.594  17.089  0.00  0.00    +0.000 A 
ENDBRANCH  16  19
ENDBRANCH   1  17
TORSDOF 5
ENDMDL
MODEL 2
REMARK VINA RESULT:      -8.2      0.795      1.572
REMARK  Name = 
REMARK  5 active torsions:
REMARK  status: ('A' for Active; 'I' for Inactive)
REMARK    1  A    between atoms: C_2  and  C_18
REMARK    2  A    between atoms: N_3  and  C_4
REMARK    3  A    between atoms: C_4  and  C_5
REMARK    4  A    between atoms: C_8  and  O_9
REMARK    5  A    between atoms: O_9  and  C_10
REMARK                            x       y       z     vdW  Elec       q    Type
REMARK                         _______ _______ _______ _____ _____    ______ ____
ROOT
ATOM      1  C   UNL     1       3.277   5.808  19.467  0.00  0.00    +0.000 C 
ENDROOT
BRANCH   1   2
ATOM      2  C   UNL     1       2.553   7.105  19.238  0.00  0.00    +0.000 A 
ATOM      3  C   UNL     1       1.804   7.701  20.261  0.00  0.00    +0.000 A 
ATOM      4  C   UNL     1       1.176   8.933  20.051  0.00  0.00    +0.000 A 
ATOM      5  C   UNL     1       1.283   9.576  18.817  0.00  0.00    +0.000 A 
ATOM      6  C   UNL     1       1.953   8.945  17.767  0.00  0.00    +0.000 A 
ATOM      7  C   UNL     1       2.603   7.728  17.983  0.00  0.00    +0.000 A 
BRANCH   5   8
ATOM      8  O   UNL     1       0.645  10.791  18.709  0.00  0.00    +0.000 OA
BRANCH   8   9
ATOM      9  C   UNL     1      -0.710  10.838  18.470  0.00  0.00    +0.000 A 
ATOM     10  C   UNL     1      -1.199   9.910  17.548  0.00  0.00    +0.000 A 
ATOM     11  C   UNL     1      -2.559   9.877  17.235  0.00  0.00    +0.000 A 
ATOM     12  C   UNL     1      -3.436  10.774  17.846  0.00  0.00    +0.000 A 
ATOM     13  C   UNL     1      -2.959  11.677  18.796  0.00  0.00    +0.000 A 
ATOM     14  C   UNL     1      -1.603  11.690  19.128  0.00  0.00    +0.000 A 
ENDBRANCH   8   9
ENDBRANCH   5   8
ENDBRANCH   1   2
BRANCH   1  17
ATOM     15  O   UNL     1       5.041   3.690  19.555  0.00  0.00    +0.000 OA
ATOM     16  C   UNL     1       5.352   4.663  18.873  0.00  0.00    +0.000 C 
ATOM     17  N   UNL     1       4.500   5.735  18.701  0.00  0.00    +0.000 N 
ATOM     18  H   UNL     1       4.844   6.583  18.272  0.00  0.00    +0.000 HD
BRANCH  16  19
ATOM     19  C   UNL     1       6.647   4.750  18.089  0.00  0.00    +0.000 C 
ATOM     20  C   UNL     1       7.252   6.189  18.097  0.00  0.00    +0.000 C 
ATOM     21  O   UNL     1       7.561   6.583  16.718  0.00  0.00    +0.000 OA
ATOM     22  C   UNL     1       6.979   5.649  15.940  0.00  0.00    +0.000 A 
ATOM     23  N   UNL     1       6.874   5.582  14.584  0.00  0.00    +0.000 NA
ATOM     24  C   UNL     1       6.235   4.464  14.290  0.00  0.00    +0.000 A 
ATOM     25  S   UNL     1       5.785   3.455  15.633  0.00  0.00    +0.000 S 
ATOM     26  C   UNL     1       6.449   4.613  16.642  0.00  0.00    +0.000 A 
ENDBRANCH  16  19
ENDBRANCH   1  17
TORSDOF 5
ENDMDL
MODEL 3
REMARK VINA RESULT:      -8.2      5.779      8.275
REMARK  Name = 
REMARK  5 active torsions:
REMARK  status: ('A' for Active; 'I' for Inactive)
REMARK    1  A    between atoms: C_2  and  C_18
REMARK    2  A    between atoms: N_3  and  C_4
REMARK    3  A    between atoms: C_4  and  C_5
REMARK    4  A    between atoms: C_8  and  O_9
REMARK    5  A    between atoms: O_9  and  C_10
REMARK                            x       y       z     vdW  Elec       q    Type
REMARK                         _______ _______ _______ _____ _____    ______ ____
ROOT
ATOM      1  C   UNL     1       7.854   8.604  17.485  0.00  0.00    +0.000 C 
ENDROOT
BRANCH   1   2
ATOM      2  C   UNL     1       7.224   7.295  17.872  0.00  0.00    +0.000 A 
ATOM      3  C   UNL     1       7.838   6.450  18.805  0.00  0.00    +0.000 A 
ATOM      4  C   UNL     1       7.217   5.258  19.194  0.00  0.00    +0.000 A 
ATOM      5  C   UNL     1       5.984   4.897  18.649  0.00  0.00    +0.000 A 
ATOM      6  C   UNL     1       5.412   5.690  17.653  0.00  0.00    +0.000 A 
ATOM      7  C   UNL     1       6.016   6.894  17.283  0.00  0.00    +0.000 A 
BRANCH   5   8
ATOM      8  O   UNL     1       5.443   3.715  19.104  0.00  0.00    +0.000 OA
BRANCH   8   9
ATOM      9  C   UNL     1       4.091   3.486  18.986  0.00  0.00    +0.000 A 
ATOM     10  C   UNL     1       3.708   2.612  17.965  0.00  0.00    +0.000 A 
ATOM     11  C   UNL     1       2.359   2.317  17.761  0.00  0.00    +0.000 A 
ATOM     12  C   UNL     1       1.388   2.894  18.579  0.00  0.00    +0.000 A 
ATOM     13  C   UNL     1       1.768   3.736  19.623  0.00  0.00    +0.000 A 
ATOM     14  C   UNL     1       3.120   4.009  19.844  0.00  0.00    +0.000 A 
ENDBRANCH   8   9
ENDBRANCH   5   8
ENDBRANCH   1   2
BRANCH   1  17
ATOM     15  O   UNL     1       8.498  11.264  17.823  0.00  0.00    +0.000 OA
ATOM     16  C   UNL     1       9.044  10.447  18.559  0.00  0.00    +0.000 C 
ATOM     17  N   UNL     1       8.728   9.104  18.522  0.00  0.00    +0.000 N 
ATOM     18  H   UNL     1       9.304   8.440  19.020  0.00  0.00    +0.000 HD
BRANCH  16  19
ATOM     19  C   UNL     1      10.046  10.832  19.630  0.00  0.00    +0.000 C 
ATOM     20  C   UNL     1       9.357  11.364  20.927  0.00  0.00    +0.000 C 
ATOM     21  O   UNL     1       9.974  12.641  21.304  0.00  0.00    +0.000 OA
ATOM     22  C   UNL     1      10.739  12.994  20.251  0.00  0.00    +0.000 A 
ATOM     23  N   UNL     1      11.454  14.132  20.033  0.00  0.00    +0.000 NA
ATOM     24  C   UNL     1      12.058  14.003  18.865  0.00  0.00    +0.000 A 
ATOM     25  S   UNL     1      11.811  12.498  18.030  0.00  0.00    +0.000 S 
ATOM     26  C   UNL     1      10.811  12.037  19.290  0.00  0.00    +0.000 A 
ENDBRANCH  16  19
ENDBRANCH   1  17
TORSDOF 5
ENDMDL
MODEL 4
REMARK VINA RESULT:      -8.1      5.541      7.987
REMARK  Name = 
REMARK  5 active torsions:
REMARK  status: ('A' for Active; 'I' for Inactive)
REMARK    1  A    between atoms: C_2  and  C_18
REMARK    2  A    between atoms: N_3  and  C_4
REMARK    3  A    between atoms: C_4  and  C_5
REMARK    4  A    between atoms: C_8  and  O_9
REMARK    5  A    between atoms: O_9  and  C_10
REMARK                            x       y       z     vdW  Elec       q    Type
REMARK                         _______ _______ _______ _____ _____    ______ ____
ROOT
ATOM      1  C   UNL     1       7.835   8.427  17.469  0.00  0.00    +0.000 C 
ENDROOT
BRANCH   1   2
ATOM      2  C   UNL     1       7.141   7.150  17.854  0.00  0.00    +0.000 A 
ATOM      3  C   UNL     1       7.659   6.326  18.862  0.00  0.00    +0.000 A 
ATOM      4  C   UNL     1       6.979   5.166  19.246  0.00  0.00    +0.000 A 
ATOM      5  C   UNL     1       5.781   4.815  18.622  0.00  0.00    +0.000 A 
ATOM      6  C   UNL     1       5.307   5.583  17.557  0.00  0.00    +0.000 A 
ATOM      7  C   UNL     1       5.971   6.756  17.191  0.00  0.00    +0.000 A 
BRANCH   5   8
ATOM      8  O   UNL     1       5.175   3.665  19.078  0.00  0.00    +0.000 OA
BRANCH   8   9
ATOM      9  C   UNL     1       3.807   3.621  19.227  0.00  0.00    +0.000 A 
ATOM     10  C   UNL     1       3.279   4.419  20.244  0.00  0.00    +0.000 A 
ATOM     11  C   UNL     1       1.903   4.442  20.479  0.00  0.00    +0.000 A 
ATOM     12  C   UNL     1       1.050   3.666  19.694  0.00  0.00    +0.000 A 
ATOM     13  C   UNL     1       1.568   2.898  18.652  0.00  0.00    +0.000 A 
ATOM     14  C   UNL     1       2.942   2.897  18.401  0.00  0.00    +0.000 A 
ENDBRANCH   8   9
ENDBRANCH   5   8
ENDBRANCH   1   2
BRANCH   1  17
ATOM     15  O   UNL     1       8.427  11.091  17.867  0.00  0.00    +0.000 OA
ATOM     16  C   UNL     1       8.968  10.270  18.604  0.00  0.00    +0.000 C 
ATOM     17  N   UNL     1       8.674   8.923  18.536  0.00  0.00    +0.000 N 
ATOM     18  H   UNL     1       9.248   8.260  19.038  0.00  0.00    +0.000 HD
BRANCH  16  19
ATOM     19  C   UNL     1       9.936  10.652  19.706  0.00  0.00    +0.000 C 
ATOM     20  C   UNL     1       9.211  11.240  20.958  0.00  0.00    +0.000 C 
ATOM     21  O   UNL     1       9.853  12.507  21.328  0.00  0.00    +0.000 OA
ATOM     22  C   UNL     1      10.672  12.807  20.300  0.00  0.00    +0.000 A 
ATOM     23  N   UNL     1      11.432  13.916  20.084  0.00  0.00    +0.000 NA
ATOM     24  C   UNL     1      12.080  13.737  18.946  0.00  0.00    +0.000 A 
ATOM     25  S   UNL     1      11.819  12.218  18.140  0.00  0.00    +0.000 S 
ATOM     26  C   UNL     1      10.753  11.823  19.367  0.00  0.00    +0.000 A 
ENDBRANCH  16  19
ENDBRANCH   1  17
TORSDOF 5
ENDMDL
MODEL 5
REMARK VINA RESULT:      -8.0      0.434      1.055
REMARK  Name = 
REMARK  5 active torsions:
REMARK  status: ('A' for Active; 'I' for Inactive)
REMARK    1  A    between atoms: C_2  and  C_18
REMARK    2  A    between atoms: N_3  and  C_4
REMARK    3  A    between atoms: C_4  and  C_5
REMARK    4  A    between atoms: C_8  and  O_9
REMARK    5  A    between atoms: O_9  and  C_10
REMARK                            x       y       z     vdW  Elec       q    Type
REMARK                         _______ _______ _______ _____ _____    ______ ____
ROOT
ATOM      1  C   UNL     1       2.870   5.579  19.669  0.00  0.00    +0.000 C 
ENDROOT
BRANCH   1   2
ATOM      2  C   UNL     1       2.270   6.935  19.423  0.00  0.00    +0.000 A 
ATOM      3  C   UNL     1       1.703   7.672  20.471  0.00  0.00    +0.000 A 
ATOM      4  C   UNL     1       1.193   8.953  20.239  0.00  0.00    +0.000 A 
ATOM      5  C   UNL     1       1.237   9.506  18.958  0.00  0.00    +0.000 A 
ATOM      6  C   UNL     1       1.719   8.743  17.894  0.00  0.00    +0.000 A 
ATOM      7  C   UNL     1       2.254   7.474  18.129  0.00  0.00    +0.000 A 
BRANCH   5   8
ATOM      8  O   UNL     1       0.725  10.779  18.829  0.00  0.00    +0.000 OA
BRANCH   8   9
ATOM      9  C   UNL     1      -0.627  10.961  18.648  0.00  0.00    +0.000 A 
ATOM     10  C   UNL     1      -1.180  12.083  19.271  0.00  0.00    +0.000 A 
ATOM     11  C   UNL     1      -2.543  12.355  19.150  0.00  0.00    +0.000 A 
ATOM     12  C   UNL     1      -3.359  11.506  18.403  0.00  0.00    +0.000 A 
ATOM     13  C   UNL     1      -2.806  10.408  17.746  0.00  0.00    +0.000 A 
ATOM     14  C   UNL     1      -1.436  10.152  17.846  0.00  0.00    +0.000 A 
ENDBRANCH   8   9
ENDBRANCH   5   8
ENDBRANCH   1   2
BRANCH   1  17
ATOM     15  O   UNL     1       4.131   3.247  18.912  0.00  0.00    +0.000 OA
ATOM     16  C   UNL     1       4.798   4.279  18.920  0.00  0.00    +0.000 C 
ATOM     17  N   UNL     1       4.237   5.507  19.206  0.00  0.00    +0.000 N 
ATOM     18  H   UNL     1       4.836   6.306  19.363  0.00  0.00    +0.000 HD
BRANCH  16  19
ATOM     19  C   UNL     1       6.265   4.324  18.540  0.00  0.00    +0.000 C 
ATOM     20  C   UNL     1       6.981   5.602  19.082  0.00  0.00    +0.000 C 
ATOM     21  O   UNL     1       7.708   6.243  17.981  0.00  0.00    +0.000 OA
ATOM     22  C   UNL     1       7.283   5.623  16.862  0.00  0.00    +0.000 A 
ATOM     23  N   UNL     1       7.564   5.887  15.556  0.00  0.00    +0.000 NA
ATOM     24  C   UNL     1       6.928   4.989  14.824  0.00  0.00    +0.000 A 
ATOM     25  S   UNL     1       6.018   3.789  15.693  0.00  0.00    +0.000 S 
ATOM     26  C   UNL     1       6.476   4.557  17.107  0.00  0.00    +0.000 A 
ENDBRANCH  16  19
ENDBRANCH   1  17
TORSDOF 5
ENDMDL
MODEL 6
REMARK VINA RESULT:      -7.9      5.558      7.937
REMARK  Name = 
REMARK  5 active torsions:
REMARK  status: ('A' for Active; 'I' for Inactive)
REMARK    1  A    between atoms: C_2  and  C_18
REMARK    2  A    between atoms: N_3  and  C_4
REMARK    3  A    between atoms: C_4  and  C_5
REMARK    4  A    between atoms: C_8  and  O_9
REMARK    5  A    between atoms: O_9  and  C_10
REMARK                            x       y       z     vdW  Elec       q    Type
REMARK                         _______ _______ _______ _____ _____    ______ ____
ROOT
ATOM      1  C   UNL     1       7.813   8.517  17.368  0.00  0.00    +0.000 C 
ENDROOT
BRANCH   1   2
ATOM      2  C   UNL     1       7.082   7.243  17.684  0.00  0.00    +0.000 A 
ATOM      3  C   UNL     1       5.840   6.963  17.100  0.00  0.00    +0.000 A 
ATOM      4  C   UNL     1       5.192   5.752  17.363  0.00  0.00    +0.000 A 
ATOM      5  C   UNL     1       5.774   4.814  18.218  0.00  0.00    +0.000 A 
ATOM      6  C   UNL     1       6.967   5.125  18.872  0.00  0.00    +0.000 A 
ATOM      7  C   UNL     1       7.629   6.323  18.589  0.00  0.00    +0.000 A 
BRANCH   5   8
ATOM      8  O   UNL     1       5.071   3.645  18.404  0.00  0.00    +0.000 OA
BRANCH   8   9
ATOM      9  C   UNL     1       3.740   3.691  18.755  0.00  0.00    +0.000 A 
ATOM     10  C   UNL     1       3.465   4.151  20.045  0.00  0.00    +0.000 A 
ATOM     11  C   UNL     1       2.147   4.233  20.497  0.00  0.00    +0.000 A 
ATOM     12  C   UNL     1       1.098   3.855  19.659  0.00  0.00    +0.000 A 
ATOM     13  C   UNL     1       1.365   3.432  18.357  0.00  0.00    +0.000 A 
ATOM     14  C   UNL     1       2.682   3.377  17.897  0.00  0.00    +0.000 A 
ENDBRANCH   8   9
ENDBRANCH   5   8
ENDBRANCH   1   2
BRANCH   1  17
ATOM     15  O   UNL     1       8.552  11.140  17.791  0.00  0.00    +0.000 OA
ATOM     16  C   UNL     1       8.989  10.292  18.566  0.00  0.00    +0.000 C 
ATOM     17  N   UNL     1       8.612   8.967  18.485  0.00  0.00    +0.000 N 
ATOM     18  H   UNL     1       9.108   8.272  19.027  0.00  0.00    +0.000 HD
BRANCH  16  19
ATOM     19  C   UNL     1       9.907  10.621  19.727  0.00  0.00    +0.000 C 
ATOM     20  C   UNL     1       9.131  11.190  20.957  0.00  0.00    +0.000 C 
ATOM     21  O   UNL     1       9.780  12.430  21.397  0.00  0.00    +0.000 OA
ATOM     22  C   UNL     1      10.657  12.740  20.422  0.00  0.00    +0.000 A 
ATOM     23  N   UNL     1      11.452  13.837  20.277  0.00  0.00    +0.000 NA
ATOM     24  C   UNL     1      12.154  13.675  19.170  0.00  0.00    +0.000 A 
ATOM     25  S   UNL     1      11.903  12.186  18.307  0.00  0.00    +0.000 S 
ATOM     26  C   UNL     1      10.766  11.781  19.466  0.00  0.00    +0.000 A 
ENDBRANCH  16  19
ENDBRANCH   1  17
TORSDOF 5
ENDMDL
MODEL 7
REMARK VINA RESULT:      -7.8      4.987      9.584
REMARK  Name = 
REMARK  5 active torsions:
REMARK  status: ('A' for Active; 'I' for Inactive)
REMARK    1  A    between atoms: C_2  and  C_18
REMARK    2  A    between atoms: N_3  and  C_4
REMARK    3  A    between atoms: C_4  and  C_5
REMARK    4  A    between atoms: C_8  and  O_9
REMARK    5  A    between atoms: O_9  and  C_10
REMARK                            x       y       z     vdW  Elec       q    Type
REMARK                         _______ _______ _______ _____ _____    ______ ____
ROOT
ATOM      1  C   UNL     1      -0.062  11.143  18.842  0.00  0.00    +0.000 C 
ENDROOT
BRANCH   1   2
ATOM      2  C   UNL     1       0.772   9.907  19.028  0.00  0.00    +0.000 A 
ATOM      3  C   UNL     1       0.832   9.260  20.270  0.00  0.00    +0.000 A 
ATOM      4  C   UNL     1       1.572   8.083  20.418  0.00  0.00    +0.000 A 
ATOM      5  C   UNL     1       2.263   7.545  19.331  0.00  0.00    +0.000 A 
ATOM      6  C   UNL     1       2.279   8.232  18.116  0.00  0.00    +0.000 A 
ATOM      7  C   UNL     1       1.519   9.394  17.959  0.00  0.00    +0.000 A 
BRANCH   5   8
ATOM      8  O   UNL     1       2.950   6.375  19.568  0.00  0.00    +0.000 OA
BRANCH   8   9
ATOM      9  C   UNL     1       2.272   5.178  19.623  0.00  0.00    +0.000 A 
ATOM     10  C   UNL     1       1.988   4.580  18.393  0.00  0.00    +0.000 A 
ATOM     11  C   UNL     1       1.302   3.366  18.341  0.00  0.00    +0.000 A 
ATOM     12  C   UNL     1       0.898   2.744  19.522  0.00  0.00    +0.000 A 
ATOM     13  C   UNL     1       1.213   3.316  20.754  0.00  0.00    +0.000 A 
ATOM     14  C   UNL     1       1.924   4.517  20.805  0.00  0.00    +0.000 A 
ENDBRANCH   8   9
ENDBRANCH   5   8
ENDBRANCH   1   2
BRANCH   1  17
ATOM     15  O   UNL     1       0.138  13.666  19.938  0.00  0.00    +0.000 OA
ATOM     16  C   UNL     1      -0.478  12.815  20.575  0.00  0.00    +0.000 C 
ATOM     17  N   UNL     1      -0.701  11.548  20.074  0.00  0.00    +0.000 N 
ATOM     18  H   UNL     1      -1.064  10.827  20.681  0.00  0.00    +0.000 HD
BRANCH  16  19
ATOM     19  C   UNL     1      -1.121  13.086  21.921  0.00  0.00    +0.000 C 
ATOM     20  C   UNL     1      -1.066  11.846  22.868  0.00  0.00    +0.000 C 
ATOM     21  O   UNL     1      -2.409  11.595  23.402  0.00  0.00    +0.000 OA
ATOM     22  C   UNL     1      -3.234  12.382  22.681  0.00  0.00    +0.000 A 
ATOM     23  N   UNL     1      -4.592  12.472  22.699  0.00  0.00    +0.000 NA
ATOM     24  C   UNL     1      -4.939  13.403  21.828  0.00  0.00    +0.000 A 
ATOM     25  S   UNL     1      -3.639  14.215  21.007  0.00  0.00    +0.000 S 
ATOM     26  C   UNL     1      -2.579  13.224  21.839  0.00  0.00    +0.000 A 
ENDBRANCH  16  19
ENDBRANCH   1  17
TORSDOF 5
ENDMDL
MODEL 8
REMARK VINA RESULT:      -7.8      5.760      8.492
REMARK  Name = 
REMARK  5 active torsions:
REMARK  status: ('A' for Active; 'I' for Inactive)
REMARK    1  A    between atoms: C_2  and  C_18
REMARK    2  A    between atoms: N_3  and  C_4
REMARK    3  A    between atoms: C_4  and  C_5
REMARK    4  A    between atoms: C_8  and  O_9
REMARK    5  A    between atoms: O_9  and  C_10
REMARK                            x       y       z     vdW  Elec       q    Type
REMARK                         _______ _______ _______ _____ _____    ______ ____
ROOT
ATOM      1  C   UNL     1       8.322   9.089  17.667  0.00  0.00    +0.000 C 
ENDROOT
BRANCH   1   2
ATOM      2  C   UNL     1       7.665   7.761  17.923  0.00  0.00    +0.000 A 
ATOM      3  C   UNL     1       8.204   6.859  18.850  0.00  0.00    +0.000 A 
ATOM      4  C   UNL     1       7.557   5.648  19.117  0.00  0.00    +0.000 A 
ATOM      5  C   UNL     1       6.372   5.324  18.455  0.00  0.00    +0.000 A 
ATOM      6  C   UNL     1       5.879   6.177  17.466  0.00  0.00    +0.000 A 
ATOM      7  C   UNL     1       6.509   7.399  17.218  0.00  0.00    +0.000 A 
BRANCH   5   8
ATOM      8  O   UNL     1       5.799   4.118  18.794  0.00  0.00    +0.000 OA
BRANCH   8   9
ATOM      9  C   UNL     1       4.452   3.914  18.589  0.00  0.00    +0.000 A 
ATOM     10  C   UNL     1       3.601   4.439  19.563  0.00  0.00    +0.000 A 
ATOM     11  C   UNL     1       2.219   4.283  19.449  0.00  0.00    +0.000 A 
ATOM     12  C   UNL     1       1.683   3.602  18.357  0.00  0.00    +0.000 A 
ATOM     13  C   UNL     1       2.526   3.110  17.361  0.00  0.00    +0.000 A 
ATOM     14  C   UNL     1       3.907   3.291  17.463  0.00  0.00    +0.000 A 
ENDBRANCH   8   9
ENDBRANCH   5   8
ENDBRANCH   1   2
BRANCH   1  17
ATOM     15  O   UNL     1       9.823  11.400  17.762  0.00  0.00    +0.000 OA
ATOM     16  C   UNL     1       9.641  10.794  18.815  0.00  0.00    +0.000 C 
ATOM     17  N   UNL     1       8.837   9.674  18.883  0.00  0.00    +0.000 N 
ATOM     18  H   UNL     1       8.836   9.109  19.721  0.00  0.00    +0.000 HD
BRANCH  16  19
ATOM     19  C   UNL     1      10.200  11.255  20.147  0.00  0.00    +0.000 C 
ATOM     20  C   UNL     1       9.088  11.444  21.227  0.00  0.00    +0.000 C 
ATOM     21  O   UNL     1       9.241  12.767  21.842  0.00  0.00    +0.000 OA
ATOM     22  C   UNL     1      10.136  13.418  21.071  0.00  0.00    +0.000 A 
ATOM     23  N   UNL     1      10.570  14.707  21.135  0.00  0.00    +0.000 NA
ATOM     24  C   UNL     1      11.467  14.872  20.179  0.00  0.00    +0.000 A 
ATOM     25  S   UNL     1      11.835  13.471  19.216  0.00  0.00    +0.000 S 
ATOM     26  C   UNL     1      10.695  12.635  20.112  0.00  0.00    +0.000 A 
ENDBRANCH  16  19
ENDBRANCH   1  17
TORSDOF 5
ENDMDL
MODEL 9
REMARK VINA RESULT:      -7.8      2.073      3.035
REMARK  Name = 
REMARK  5 active torsions:
REMARK  status: ('A' for Active; 'I' for Inactive)
REMARK    1  A    between atoms: C_2  and  C_18
REMARK    2  A    between atoms: N_3  and  C_4
REMARK    3  A    between atoms: C_4  and  C_5
REMARK    4  A    between atoms: C_8  and  O_9
REMARK    5  A    between atoms: O_9  and  C_10
REMARK                            x       y       z     vdW  Elec       q    Type
REMARK                         _______ _______ _______ _____ _____    ______ ____
ROOT
ATOM      1  C   UNL     1       2.745   5.858  19.992  0.00  0.00    +0.000 C 
ENDROOT
BRANCH   1   2
ATOM      2  C   UNL     1       2.202   7.212  19.631  0.00  0.00    +0.000 A 
ATOM      3  C   UNL     1       1.501   7.979  20.571  0.00  0.00    +0.000 A 
ATOM      4  C   UNL     1       1.044   9.258  20.238  0.00  0.00    +0.000 A 
ATOM      5  C   UNL     1       1.275   9.779  18.964  0.00  0.00    +0.000 A 
ATOM      6  C   UNL     1       1.893   8.985  17.997  0.00  0.00    +0.000 A 
ATOM      7  C   UNL     1       2.374   7.718  18.335  0.00  0.00    +0.000 A 
BRANCH   5   8
ATOM      8  O   UNL     1       0.801  11.052  18.734  0.00  0.00    +0.000 OA
BRANCH   8   9
ATOM      9  C   UNL     1       1.552  12.143  19.107  0.00  0.00    +0.000 A 
ATOM     10  C   UNL     1       2.370  12.689  18.114  0.00  0.00    +0.000 A 
ATOM     11  C   UNL     1       3.173  13.796  18.393  0.00  0.00    +0.000 A 
ATOM     12  C   UNL     1       3.160  14.362  19.667  0.00  0.00    +0.000 A 
ATOM     13  C   UNL     1       2.316  13.846  20.651  0.00  0.00    +0.000 A 
ATOM     14  C   UNL     1       1.493  12.756  20.362  0.00  0.00    +0.000 A 
ENDBRANCH   8   9
ENDBRANCH   5   8
ENDBRANCH   1   2
BRANCH   1  17
ATOM     15  O   UNL     1       3.694   3.577  18.767  0.00  0.00    +0.000 OA
ATOM     16  C   UNL     1       4.498   4.477  18.997  0.00  0.00    +0.000 C 
ATOM     17  N   UNL     1       4.105   5.687  19.532  0.00  0.00    +0.000 N 
ATOM     18  H   UNL     1       4.803   6.340  19.858  0.00  0.00    +0.000 HD
BRANCH  16  19
ATOM     19  C   UNL     1       5.970   4.388  18.644  0.00  0.00    +0.000 C 
ATOM     20  C   UNL     1       6.790   5.593  19.204  0.00  0.00    +0.000 C 
ATOM     21  O   UNL     1       7.593   6.168  18.119  0.00  0.00    +0.000 OA
ATOM     22  C   UNL     1       7.134   5.592  16.990  0.00  0.00    +0.000 A 
ATOM     23  N   UNL     1       7.463   5.832  15.691  0.00  0.00    +0.000 NA
ATOM     24  C   UNL     1       6.762   4.998  14.944  0.00  0.00    +0.000 A 
ATOM     25  S   UNL     1       5.728   3.885  15.790  0.00  0.00    +0.000 S 
ATOM     26  C   UNL     1       6.229   4.605  17.216  0.00  0.00    +0.000 A 
ENDBRANCH  16  19
ENDBRANCH   1  17
TORSDOF 5
ENDMDL
