MODEL 1
REMARK VINA RESULT:      -7.6      0.000      0.000
REMARK  Name = 
REMARK  13 active torsions:
REMARK  status: ('A' for Active; 'I' for Inactive)
REMARK    1  A    between atoms: C_1  and  O_2
REMARK    2  A    between atoms: O_2  and  C_3
REMARK    3  A    between atoms: C_8  and  O_9
REMARK    4  A    between atoms: O_9  and  C_10
REMARK    5  A    between atoms: C_10  and  C_11
REMARK    6  A    between atoms: C_11  and  C_12
REMARK    7  A    between atoms: C_12  and  C_13
REMARK    8  A    between atoms: C_13  and  C_14
REMARK    9  A    between atoms: C_14  and  N_15
REMARK   10  A    between atoms: C_24  and  C_25
REMARK   11  A    between atoms: C_28  and  N_29
REMARK   12  A    between atoms: N_29  and  C_30
REMARK   13  A    between atoms: N_29  and  C_31
REMARK                            x       y       z     vdW  Elec       q    Type
REMARK                         _______ _______ _______ _____ _____    ______ ____
ROOT
ATOM      1  C   UNL     1       0.891   9.699  19.245  0.00  0.00    +0.000 A 
ATOM      2  C   UNL     1       1.812   9.183  18.329  0.00  0.00    +0.000 A 
ATOM      3  C   UNL     1       2.425   7.980  18.594  0.00  0.00    +0.000 A 
ATOM      4  C   UNL     1       2.132   7.280  19.753  0.00  0.00    +0.000 A 
ATOM      5  C   UNL     1       1.233   7.749  20.687  0.00  0.00    +0.000 A 
ATOM      6  C   UNL     1       0.586   8.969  20.433  0.00  0.00    +0.000 A 
ATOM      7  C   UNL     1       2.881   6.025  19.758  0.00  0.00    +0.000 C 
ATOM      8  O   UNL     1       2.859   5.184  20.632  0.00  0.00    +0.000 OA
ATOM      9  C   UNL     1       3.657   5.983  18.485  0.00  0.00    +0.000 C 
ATOM     10  C   UNL     1       4.401   4.933  18.128  0.00  0.00    +0.000 C 
ATOM     11  C   UNL     1       3.413   7.264  17.725  0.00  0.00    +0.000 C 
ENDROOT
BRANCH  10  12
ATOM     12  C   UNL     1       5.149   4.903  16.873  0.00  0.00    +0.000 A 
ATOM     13  C   UNL     1       4.617   4.269  15.755  0.00  0.00    +0.000 A 
ATOM     14  C   UNL     1       5.345   4.218  14.556  0.00  0.00    +0.000 A 
ATOM     15  C   UNL     1       6.621   4.792  14.424  0.00  0.00    +0.000 A 
ATOM     16  C   UNL     1       7.132   5.417  15.574  0.00  0.00    +0.000 A 
ATOM     17  C   UNL     1       6.415   5.471  16.782  0.00  0.00    +0.000 A 
BRANCH  15  18
ATOM     18  N   UNL     1       7.335   4.711  13.239  0.00  0.00    +0.000 N 
ATOM     19  C   UNL     1       6.969   3.776  12.178  0.00  0.00    +0.000 C 
ATOM     20  C   UNL     1       8.346   5.693  12.860  0.00  0.00    +0.000 C 
ENDBRANCH  15  18
ENDBRANCH  10  12
BRANCH   1  22
ATOM     21  C   UNL     1      -0.971  10.773  18.212  0.00  0.00    +0.000 C 
ATOM     22  O   UNL     1       0.207  10.871  19.014  0.00  0.00    +0.000 OA
ENDBRANCH   1  22
BRANCH   6  23
ATOM     23  O   UNL     1      -0.348   9.506  21.288  0.00  0.00    +0.000 OA
BRANCH  23  24
ATOM     24  C   UNL     1       0.149  10.327  22.345  0.00  0.00    +0.000 C 
BRANCH  24  25
ATOM     25  C   UNL     1      -0.574  11.666  22.315  0.00  0.00    +0.000 C 
BRANCH  25  26
ATOM     26  C   UNL     1      -1.735  11.703  23.307  0.00  0.00    +0.000 C 
BRANCH  26  27
ATOM     27  C   UNL     1      -2.884  12.537  22.740  0.00  0.00    +0.000 C 
BRANCH  27  28
ATOM     28  C   UNL     1      -4.030  12.765  23.737  0.00  0.00    +0.000 C 
BRANCH  28  29
ATOM     29  N   UNL     1      -5.367  12.448  23.206  0.00  0.00    +0.000 NA
ATOM     30  C   UNL     1      -6.416  13.251  23.854  0.00  0.00    +0.000 C 
ATOM     31  C   UNL     1      -7.803  12.887  23.327  0.00  0.00    +0.000 C 
ATOM     32  C   UNL     1      -7.876  13.049  21.816  0.00  0.00    +0.000 C 
ATOM     33  C   UNL     1      -6.752  12.265  21.151  0.00  0.00    +0.000 C 
ATOM     34  C   UNL     1      -5.391  12.634  21.745  0.00  0.00    +0.000 C 
ENDBRANCH  28  29
ENDBRANCH  27  28
ENDBRANCH  26  27
ENDBRANCH  25  26
ENDBRANCH  24  25
ENDBRANCH  23  24
ENDBRANCH   6  23
TORSDOF 10
ENDMDL
MODEL 2
REMARK VINA RESULT:      -7.5      3.493      5.214
REMARK  Name = 
REMARK  13 active torsions:
REMARK  status: ('A' for Active; 'I' for Inactive)
REMARK    1  A    between atoms: C_1  and  O_2
REMARK    2  A    between atoms: O_2  and  C_3
REMARK    3  A    between atoms: C_8  and  O_9
REMARK    4  A    between atoms: O_9  and  C_10
REMARK    5  A    between atoms: C_10  and  C_11
REMARK    6  A    between atoms: C_11  and  C_12
REMARK    7  A    between atoms: C_12  and  C_13
REMARK    8  A    between atoms: C_13  and  C_14
REMARK    9  A    between atoms: C_14  and  N_15
REMARK   10  A    between atoms: C_24  and  C_25
REMARK   11  A    between atoms: C_28  and  N_29
REMARK   12  A    between atoms: N_29  and  C_30
REMARK   13  A    between atoms: N_29  and  C_31
REMARK                            x       y       z     vdW  Elec       q    Type
REMARK                         _______ _______ _______ _____ _____    ______ ____
ROOT
ATOM      1  C   UNL     1      -0.181  11.436  21.438  0.00  0.00    +0.000 A 
ATOM      2  C   UNL     1       0.257  10.122  21.250  0.00  0.00    +0.000 A 
ATOM      3  C   UNL     1       0.960   9.803  20.112  0.00  0.00    +0.000 A 
ATOM      4  C   UNL     1       1.239  10.771  19.160  0.00  0.00    +0.000 A 
ATOM      5  C   UNL     1       0.827  12.078  19.300  0.00  0.00    +0.000 A 
ATOM      6  C   UNL     1       0.118  12.431  20.460  0.00  0.00    +0.000 A 
ATOM      7  C   UNL     1       2.032  10.174  18.087  0.00  0.00    +0.000 C 
ATOM      8  O   UNL     1       2.437  10.746  17.096  0.00  0.00    +0.000 OA
ATOM      9  C   UNL     1       2.251   8.746  18.457  0.00  0.00    +0.000 C 
ATOM     10  C   UNL     1       3.004   7.919  17.728  0.00  0.00    +0.000 C 
ATOM     11  C   UNL     1       1.527   8.464  19.751  0.00  0.00    +0.000 C 
ENDROOT
BRANCH  10  12
ATOM     12  C   UNL     1       3.216   6.524  18.108  0.00  0.00    +0.000 A 
ATOM     13  C   UNL     1       4.484   6.082  18.473  0.00  0.00    +0.000 A 
ATOM     14  C   UNL     1       4.693   4.737  18.814  0.00  0.00    +0.000 A 
ATOM     15  C   UNL     1       3.658   3.787  18.807  0.00  0.00    +0.000 A 
ATOM     16  C   UNL     1       2.393   4.265  18.426  0.00  0.00    +0.000 A 
ATOM     17  C   UNL     1       2.170   5.608  18.077  0.00  0.00    +0.000 A 
BRANCH  15  18
ATOM     18  N   UNL     1       3.888   2.458  19.124  0.00  0.00    +0.000 N 
ATOM     19  C   UNL     1       4.387   2.051  20.436  0.00  0.00    +0.000 C 
ATOM     20  C   UNL     1       3.438   1.357  18.278  0.00  0.00    +0.000 C 
ENDBRANCH  15  18
ENDBRANCH  10  12
BRANCH   1  22
ATOM     21  C   UNL     1      -1.369  10.787  23.401  0.00  0.00    +0.000 C 
ATOM     22  O   UNL     1      -0.845  11.830  22.578  0.00  0.00    +0.000 OA
ENDBRANCH   1  22
BRANCH   6  23
ATOM     23  O   UNL     1      -0.312  13.715  20.705  0.00  0.00    +0.000 OA
BRANCH  23  24
ATOM     24  C   UNL     1      -1.536  14.111  20.085  0.00  0.00    +0.000 C 
BRANCH  24  25
ATOM     25  C   UNL     1      -2.522  14.538  21.162  0.00  0.00    +0.000 C 
BRANCH  25  26
ATOM     26  C   UNL     1      -3.901  13.918  20.942  0.00  0.00    +0.000 C 
BRANCH  26  27
ATOM     27  C   UNL     1      -3.757  12.484  20.431  0.00  0.00    +0.000 C 
BRANCH  27  28
ATOM     28  C   UNL     1      -4.519  12.214  19.126  0.00  0.00    +0.000 C 
BRANCH  28  29
ATOM     29  N   UNL     1      -3.669  11.763  18.010  0.00  0.00    +0.000 NA
ATOM     30  C   UNL     1      -2.672  10.774  18.448  0.00  0.00    +0.000 C 
ATOM     31  C   UNL     1      -1.770  10.341  17.294  0.00  0.00    +0.000 C 
ATOM     32  C   UNL     1      -2.588   9.785  16.137  0.00  0.00    +0.000 C 
ATOM     33  C   UNL     1      -3.660  10.786  15.725  0.00  0.00    +0.000 C 
ATOM     34  C   UNL     1      -4.504  11.220  16.924  0.00  0.00    +0.000 C 
ENDBRANCH  28  29
ENDBRANCH  27  28
ENDBRANCH  26  27
ENDBRANCH  25  26
ENDBRANCH  24  25
ENDBRANCH  23  24
ENDBRANCH   6  23
TORSDOF 10
ENDMDL
MODEL 3
REMARK VINA RESULT:      -7.4      2.357     11.411
REMARK  Name = 
REMARK  13 active torsions:
REMARK  status: ('A' for Active; 'I' for Inactive)
REMARK    1  A    between atoms: C_1  and  O_2
REMARK    2  A    between atoms: O_2  and  C_3
REMARK    3  A    between atoms: C_8  and  O_9
REMARK    4  A    between atoms: O_9  and  C_10
REMARK    5  A    between atoms: C_10  and  C_11
REMARK    6  A    between atoms: C_11  and  C_12
REMARK    7  A    between atoms: C_12  and  C_13
REMARK    8  A    between atoms: C_13  and  C_14
REMARK    9  A    between atoms: C_14  and  N_15
REMARK   10  A    between atoms: C_24  and  C_25
REMARK   11  A    between atoms: C_28  and  N_29
REMARK   12  A    between atoms: N_29  and  C_30
REMARK   13  A    between atoms: N_29  and  C_31
REMARK                            x       y       z     vdW  Elec       q    Type
REMARK                         _______ _______ _______ _____ _____    ______ ____
ROOT
ATOM      1  C   UNL     1       2.534   4.911  20.580  0.00  0.00    +0.000 A 
ATOM      2  C   UNL     1       1.836   6.060  20.962  0.00  0.00    +0.000 A 
ATOM      3  C   UNL     1       1.835   7.155  20.129  0.00  0.00    +0.000 A 
ATOM      4  C   UNL     1       2.513   7.124  18.922  0.00  0.00    +0.000 A 
ATOM      5  C   UNL     1       3.218   6.016  18.504  0.00  0.00    +0.000 A 
ATOM      6  C   UNL     1       3.224   4.880  19.331  0.00  0.00    +0.000 A 
ATOM      7  C   UNL     1       2.309   8.391  18.223  0.00  0.00    +0.000 C 
ATOM      8  O   UNL     1       2.771   8.694  17.143  0.00  0.00    +0.000 OA
ATOM      9  C   UNL     1       1.418   9.219  19.087  0.00  0.00    +0.000 C 
ATOM     10  C   UNL     1       0.966  10.419  18.716  0.00  0.00    +0.000 C 
ATOM     11  C   UNL     1       1.128   8.456  20.357  0.00  0.00    +0.000 C 
ENDROOT
BRANCH  10  12
ATOM     12  C   UNL     1       0.086  11.215  19.570  0.00  0.00    +0.000 A 
ATOM     13  C   UNL     1       0.576  11.789  20.739  0.00  0.00    +0.000 A 
ATOM     14  C   UNL     1      -0.274  12.533  21.572  0.00  0.00    +0.000 A 
ATOM     15  C   UNL     1      -1.633  12.732  21.278  0.00  0.00    +0.000 A 
ATOM     16  C   UNL     1      -2.097  12.131  20.096  0.00  0.00    +0.000 A 
ATOM     17  C   UNL     1      -1.258  11.381  19.255  0.00  0.00    +0.000 A 
BRANCH  15  18
ATOM     18  N   UNL     1      -2.463  13.449  22.126  0.00  0.00    +0.000 N 
ATOM     19  C   UNL     1      -3.696  14.075  21.653  0.00  0.00    +0.000 C 
ATOM     20  C   UNL     1      -2.305  13.439  23.577  0.00  0.00    +0.000 C 
ENDBRANCH  15  18
ENDBRANCH  10  12
BRANCH   1  22
ATOM     21  C   UNL     1       1.315   3.017  21.363  0.00  0.00    +0.000 C 
ATOM     22  O   UNL     1       2.532   3.765  21.344  0.00  0.00    +0.000 OA
ENDBRANCH   1  22
BRANCH   6  23
ATOM     23  O   UNL     1       3.873   3.716  18.989  0.00  0.00    +0.000 OA
BRANCH  23  24
ATOM     24  C   UNL     1       3.170   2.820  18.127  0.00  0.00    +0.000 C 
BRANCH  24  25
ATOM     25  C   UNL     1       3.403   3.237  16.682  0.00  0.00    +0.000 C 
BRANCH  25  26
ATOM     26  C   UNL     1       4.888   3.431  16.383  0.00  0.00    +0.000 C 
BRANCH  26  27
ATOM     27  C   UNL     1       5.094   4.687  15.536  0.00  0.00    +0.000 C 
BRANCH  27  28
ATOM     28  C   UNL     1       6.566   4.969  15.199  0.00  0.00    +0.000 C 
BRANCH  28  29
ATOM     29  N   UNL     1       7.362   5.470  16.332  0.00  0.00    +0.000 NA
ATOM     30  C   UNL     1       6.833   6.741  16.853  0.00  0.00    +0.000 C 
ATOM     31  C   UNL     1       7.688   7.273  18.001  0.00  0.00    +0.000 C 
ATOM     32  C   UNL     1       7.797   6.252  19.123  0.00  0.00    +0.000 C 
ATOM     33  C   UNL     1       8.287   4.919  18.573  0.00  0.00    +0.000 C 
ATOM     34  C   UNL     1       7.425   4.454  17.397  0.00  0.00    +0.000 C 
ENDBRANCH  28  29
ENDBRANCH  27  28
ENDBRANCH  26  27
ENDBRANCH  25  26
ENDBRANCH  24  25
ENDBRANCH  23  24
ENDBRANCH   6  23
TORSDOF 10
ENDMDL
MODEL 4
REMARK VINA RESULT:      -7.4      0.982      1.737
REMARK  Name = 
REMARK  13 active torsions:
REMARK  status: ('A' for Active; 'I' for Inactive)
REMARK    1  A    between atoms: C_1  and  O_2
REMARK    2  A    between atoms: O_2  and  C_3
REMARK    3  A    between atoms: C_8  and  O_9
REMARK    4  A    between atoms: O_9  and  C_10
REMARK    5  A    between atoms: C_10  and  C_11
REMARK    6  A    between atoms: C_11  and  C_12
REMARK    7  A    between atoms: C_12  and  C_13
REMARK    8  A    between atoms: C_13  and  C_14
REMARK    9  A    between atoms: C_14  and  N_15
REMARK   10  A    between atoms: C_24  and  C_25
REMARK   11  A    between atoms: C_28  and  N_29
REMARK   12  A    between atoms: N_29  and  C_30
REMARK   13  A    between atoms: N_29  and  C_31
REMARK                            x       y       z     vdW  Elec       q    Type
REMARK                         _______ _______ _______ _____ _____    ______ ____
ROOT
ATOM      1  C   UNL     1       0.990   9.449  19.154  0.00  0.00    +0.000 A 
ATOM      2  C   UNL     1       1.914   8.936  18.239  0.00  0.00    +0.000 A 
ATOM      3  C   UNL     1       2.540   7.742  18.513  0.00  0.00    +0.000 A 
ATOM      4  C   UNL     1       2.259   7.049  19.680  0.00  0.00    +0.000 A 
ATOM      5  C   UNL     1       1.358   7.517  20.612  0.00  0.00    +0.000 A 
ATOM      6  C   UNL     1       0.697   8.727  20.349  0.00  0.00    +0.000 A 
ATOM      7  C   UNL     1       3.022   5.803  19.694  0.00  0.00    +0.000 C 
ATOM      8  O   UNL     1       3.012   4.969  20.576  0.00  0.00    +0.000 OA
ATOM      9  C   UNL     1       3.794   5.757  18.419  0.00  0.00    +0.000 C 
ATOM     10  C   UNL     1       4.548   4.712  18.069  0.00  0.00    +0.000 C 
ATOM     11  C   UNL     1       3.533   7.029  17.648  0.00  0.00    +0.000 C 
ENDROOT
BRANCH  10  12
ATOM     12  C   UNL     1       5.292   4.678  16.812  0.00  0.00    +0.000 A 
ATOM     13  C   UNL     1       6.589   5.178  16.751  0.00  0.00    +0.000 A 
ATOM     14  C   UNL     1       7.295   5.169  15.537  0.00  0.00    +0.000 A 
ATOM     15  C   UNL     1       6.743   4.666  14.347  0.00  0.00    +0.000 A 
ATOM     16  C   UNL     1       5.428   4.177  14.443  0.00  0.00    +0.000 A 
ATOM     17  C   UNL     1       4.709   4.185  15.649  0.00  0.00    +0.000 A 
BRANCH  15  18
ATOM     18  N   UNL     1       7.446   4.688  13.154  0.00  0.00    +0.000 N 
ATOM     19  C   UNL     1       7.107   3.803  12.041  0.00  0.00    +0.000 C 
ATOM     20  C   UNL     1       8.408   5.735  12.825  0.00  0.00    +0.000 C 
ENDBRANCH  15  18
ENDBRANCH  10  12
BRANCH   1  22
ATOM     21  C   UNL     1      -0.876  10.496  18.102  0.00  0.00    +0.000 C 
ATOM     22  O   UNL     1       0.293  10.612  18.915  0.00  0.00    +0.000 OA
ENDBRANCH   1  22
BRANCH   6  23
ATOM     23  O   UNL     1      -0.240   9.262  21.203  0.00  0.00    +0.000 OA
BRANCH  23  24
ATOM     24  C   UNL     1       0.202  10.317  22.059  0.00  0.00    +0.000 C 
BRANCH  24  25
ATOM     25  C   UNL     1      -0.892  10.626  23.071  0.00  0.00    +0.000 C 
BRANCH  25  26
ATOM     26  C   UNL     1      -1.234  12.114  23.095  0.00  0.00    +0.000 C 
BRANCH  26  27
ATOM     27  C   UNL     1      -2.655  12.336  22.574  0.00  0.00    +0.000 C 
BRANCH  27  28
ATOM     28  C   UNL     1      -2.708  12.996  21.189  0.00  0.00    +0.000 C 
BRANCH  28  29
ATOM     29  N   UNL     1      -4.058  13.071  20.604  0.00  0.00    +0.000 NA
ATOM     30  C   UNL     1      -4.185  12.216  19.412  0.00  0.00    +0.000 C 
ATOM     31  C   UNL     1      -5.574  12.331  18.789  0.00  0.00    +0.000 C 
ATOM     32  C   UNL     1      -6.659  11.988  19.799  0.00  0.00    +0.000 C 
ATOM     33  C   UNL     1      -6.489  12.831  21.057  0.00  0.00    +0.000 C 
ATOM     34  C   UNL     1      -5.069  12.716  21.614  0.00  0.00    +0.000 C 
ENDBRANCH  28  29
ENDBRANCH  27  28
ENDBRANCH  26  27
ENDBRANCH  25  26
ENDBRANCH  24  25
ENDBRANCH  23  24
ENDBRANCH   6  23
TORSDOF 10
ENDMDL
MODEL 5
REMARK VINA RESULT:      -7.4      1.910     11.825
REMARK  Name = 
REMARK  13 active torsions:
REMARK  status: ('A' for Active; 'I' for Inactive)
REMARK    1  A    between atoms: C_1  and  O_2
REMARK    2  A    between atoms: O_2  and  C_3
REMARK    3  A    between atoms: C_8  and  O_9
REMARK    4  A    between atoms: O_9  and  C_10
REMARK    5  A    between atoms: C_10  and  C_11
REMARK    6  A    between atoms: C_11  and  C_12
REMARK    7  A    between atoms: C_12  and  C_13
REMARK    8  A    between atoms: C_13  and  C_14
REMARK    9  A    between atoms: C_14  and  N_15
REMARK   10  A    between atoms: C_24  and  C_25
REMARK   11  A    between atoms: C_28  and  N_29
REMARK   12  A    between atoms: N_29  and  C_30
REMARK   13  A    between atoms: N_29  and  C_31
REMARK                            x       y       z     vdW  Elec       q    Type
REMARK                         _______ _______ _______ _____ _____    ______ ____
ROOT
ATOM      1  C   UNL     1       2.382   6.046  20.213  0.00  0.00    +0.000 A 
ATOM      2  C   UNL     1       1.540   7.010  20.775  0.00  0.00    +0.000 A 
ATOM      3  C   UNL     1       1.369   8.212  20.129  0.00  0.00    +0.000 A 
ATOM      4  C   UNL     1       2.018   8.469  18.933  0.00  0.00    +0.000 A 
ATOM      5  C   UNL     1       2.859   7.552  18.342  0.00  0.00    +0.000 A 
ATOM      6  C   UNL     1       3.041   6.311  18.975  0.00  0.00    +0.000 A 
ATOM      7  C   UNL     1       1.624   9.791  18.447  0.00  0.00    +0.000 C 
ATOM      8  O   UNL     1       2.016  10.323  17.429  0.00  0.00    +0.000 OA
ATOM      9  C   UNL     1       0.647  10.337  19.433  0.00  0.00    +0.000 C 
ATOM     10  C   UNL     1       0.025  11.506  19.259  0.00  0.00    +0.000 C 
ATOM     11  C   UNL     1       0.494   9.348  20.563  0.00  0.00    +0.000 C 
ENDROOT
BRANCH  10  12
ATOM     12  C   UNL     1      -0.936  12.024  20.230  0.00  0.00    +0.000 A 
ATOM     13  C   UNL     1      -2.267  12.207  19.870  0.00  0.00    +0.000 A 
ATOM     14  C   UNL     1      -3.186  12.729  20.794  0.00  0.00    +0.000 A 
ATOM     15  C   UNL     1      -2.819  13.084  22.103  0.00  0.00    +0.000 A 
ATOM     16  C   UNL     1      -1.466  12.894  22.431  0.00  0.00    +0.000 A 
ATOM     17  C   UNL     1      -0.535  12.378  21.514  0.00  0.00    +0.000 A 
BRANCH  15  18
ATOM     18  N   UNL     1      -3.735  13.620  22.994  0.00  0.00    +0.000 N 
ATOM     19  C   UNL     1      -3.374  13.941  24.374  0.00  0.00    +0.000 C 
ATOM     20  C   UNL     1      -5.041  14.121  22.577  0.00  0.00    +0.000 C 
ENDBRANCH  15  18
ENDBRANCH  10  12
BRANCH   1  22
ATOM     21  C   UNL     1       1.409   3.953  20.813  0.00  0.00    +0.000 C 
ATOM     22  O   UNL     1       2.556   4.804  20.783  0.00  0.00    +0.000 OA
ENDBRANCH   1  22
BRANCH   6  23
ATOM     23  O   UNL     1       3.837   5.319  18.451  0.00  0.00    +0.000 OA
BRANCH  23  24
ATOM     24  C   UNL     1       3.281   4.549  17.385  0.00  0.00    +0.000 C 
BRANCH  24  25
ATOM     25  C   UNL     1       4.327   3.561  16.889  0.00  0.00    +0.000 C 
BRANCH  25  26
ATOM     26  C   UNL     1       4.660   3.783  15.415  0.00  0.00    +0.000 C 
BRANCH  26  27
ATOM     27  C   UNL     1       5.399   5.110  15.238  0.00  0.00    +0.000 C 
BRANCH  27  28
ATOM     28  C   UNL     1       6.928   4.965  15.209  0.00  0.00    +0.000 C 
BRANCH  28  29
ATOM     29  N   UNL     1       7.608   5.465  16.416  0.00  0.00    +0.000 NA
ATOM     30  C   UNL     1       7.049   6.750  16.865  0.00  0.00    +0.000 C 
ATOM     31  C   UNL     1       7.786   7.281  18.093  0.00  0.00    +0.000 C 
ATOM     32  C   UNL     1       7.756   6.270  19.230  0.00  0.00    +0.000 C 
ATOM     33  C   UNL     1       8.278   4.923  18.747  0.00  0.00    +0.000 C 
ATOM     34  C   UNL     1       7.539   4.460  17.491  0.00  0.00    +0.000 C 
ENDBRANCH  28  29
ENDBRANCH  27  28
ENDBRANCH  26  27
ENDBRANCH  25  26
ENDBRANCH  24  25
ENDBRANCH  23  24
ENDBRANCH   6  23
TORSDOF 10
ENDMDL
MODEL 6
REMARK VINA RESULT:      -7.4      3.456     11.086
REMARK  Name = 
REMARK  13 active torsions:
REMARK  status: ('A' for Active; 'I' for Inactive)
REMARK    1  A    between atoms: C_1  and  O_2
REMARK    2  A    between atoms: O_2  and  C_3
REMARK    3  A    between atoms: C_8  and  O_9
REMARK    4  A    between atoms: O_9  and  C_10
REMARK    5  A    between atoms: C_10  and  C_11
REMARK    6  A    between atoms: C_11  and  C_12
REMARK    7  A    between atoms: C_12  and  C_13
REMARK    8  A    between atoms: C_13  and  C_14
REMARK    9  A    between atoms: C_14  and  N_15
REMARK   10  A    between atoms: C_24  and  C_25
REMARK   11  A    between atoms: C_28  and  N_29
REMARK   12  A    between atoms: N_29  and  C_30
REMARK   13  A    between atoms: N_29  and  C_31
REMARK                            x       y       z     vdW  Elec       q    Type
REMARK                         _______ _______ _______ _____ _____    ______ ____
ROOT
ATOM      1  C   UNL     1       2.266   7.343  19.123  0.00  0.00    +0.000 A 
ATOM      2  C   UNL     1       1.951   8.682  18.875  0.00  0.00    +0.000 A 
ATOM      3  C   UNL     1       1.228   9.387  19.809  0.00  0.00    +0.000 A 
ATOM      4  C   UNL     1       0.817   8.783  20.986  0.00  0.00    +0.000 A 
ATOM      5  C   UNL     1       1.102   7.466  21.274  0.00  0.00    +0.000 A 
ATOM      6  C   UNL     1       1.850   6.728  20.342  0.00  0.00    +0.000 A 
ATOM      7  C   UNL     1       0.115   9.765  21.810  0.00  0.00    +0.000 C 
ATOM      8  O   UNL     1      -0.378   9.561  22.900  0.00  0.00    +0.000 OA
ATOM      9  C   UNL     1       0.139  11.053  21.058  0.00  0.00    +0.000 C 
ATOM     10  C   UNL     1      -0.355  12.189  21.557  0.00  0.00    +0.000 C 
ATOM     11  C   UNL     1       0.820  10.826  19.730  0.00  0.00    +0.000 C 
ENDROOT
BRANCH  10  12
ATOM     12  C   UNL     1      -0.316  13.445  20.811  0.00  0.00    +0.000 A 
ATOM     13  C   UNL     1       0.847  13.835  20.155  0.00  0.00    +0.000 A 
ATOM     14  C   UNL     1       0.892  15.053  19.458  0.00  0.00    +0.000 A 
ATOM     15  C   UNL     1      -0.209  15.923  19.388  0.00  0.00    +0.000 A 
ATOM     16  C   UNL     1      -1.364  15.502  20.068  0.00  0.00    +0.000 A 
ATOM     17  C   UNL     1      -1.422  14.288  20.773  0.00  0.00    +0.000 A 
BRANCH  15  18
ATOM     18  N   UNL     1      -0.138  17.133  18.716  0.00  0.00    +0.000 N 
ATOM     19  C   UNL     1       1.119  17.641  18.169  0.00  0.00    +0.000 C 
ATOM     20  C   UNL     1      -1.325  17.873  18.299  0.00  0.00    +0.000 C 
ENDBRANCH  15  18
ENDBRANCH  10  12
BRANCH   1  22
ATOM     21  C   UNL     1       3.848   7.330  17.339  0.00  0.00    +0.000 C 
ATOM     22  O   UNL     1       3.029   6.597  18.252  0.00  0.00    +0.000 OA
ENDBRANCH   1  22
BRANCH   6  23
ATOM     23  O   UNL     1       2.209   5.416  20.550  0.00  0.00    +0.000 OA
BRANCH  23  24
ATOM     24  C   UNL     1       1.166   4.445  20.459  0.00  0.00    +0.000 C 
BRANCH  24  25
ATOM     25  C   UNL     1       1.729   3.168  19.852  0.00  0.00    +0.000 C 
BRANCH  25  26
ATOM     26  C   UNL     1       2.236   3.396  18.429  0.00  0.00    +0.000 C 
BRANCH  26  27
ATOM     27  C   UNL     1       3.657   2.852  18.284  0.00  0.00    +0.000 C 
BRANCH  27  28
ATOM     28  C   UNL     1       4.657   3.466  19.275  0.00  0.00    +0.000 C 
BRANCH  28  29
ATOM     29  N   UNL     1       5.852   4.054  18.645  0.00  0.00    +0.000 NA
ATOM     30  C   UNL     1       5.664   4.257  17.200  0.00  0.00    +0.000 C 
ATOM     31  C   UNL     1       6.920   4.829  16.548  0.00  0.00    +0.000 C 
ATOM     32  C   UNL     1       7.337   6.134  17.210  0.00  0.00    +0.000 C 
ATOM     33  C   UNL     1       7.472   5.937  18.715  0.00  0.00    +0.000 C 
ATOM     34  C   UNL     1       6.205   5.320  19.310  0.00  0.00    +0.000 C 
ENDBRANCH  28  29
ENDBRANCH  27  28
ENDBRANCH  26  27
ENDBRANCH  25  26
ENDBRANCH  24  25
ENDBRANCH  23  24
ENDBRANCH   6  23
TORSDOF 10
ENDMDL
MODEL 7
REMARK VINA RESULT:      -7.3      1.264      2.215
REMARK  Name = 
REMARK  13 active torsions:
REMARK  status: ('A' for Active; 'I' for Inactive)
REMARK    1  A    between atoms: C_1  and  O_2
REMARK    2  A    between atoms: O_2  and  C_3
REMARK    3  A    between atoms: C_8  and  O_9
REMARK    4  A    between atoms: O_9  and  C_10
REMARK    5  A    between atoms: C_10  and  C_11
REMARK    6  A    between atoms: C_11  and  C_12
REMARK    7  A    between atoms: C_12  and  C_13
REMARK    8  A    between atoms: C_13  and  C_14
REMARK    9  A    between atoms: C_14  and  N_15
REMARK   10  A    between atoms: C_24  and  C_25
REMARK   11  A    between atoms: C_28  and  N_29
REMARK   12  A    between atoms: N_29  and  C_30
REMARK   13  A    between atoms: N_29  and  C_31
REMARK                            x       y       z     vdW  Elec       q    Type
REMARK                         _______ _______ _______ _____ _____    ______ ____
ROOT
ATOM      1  C   UNL     1      -0.457  11.092  18.676  0.00  0.00    +0.000 A 
ATOM      2  C   UNL     1       0.458  10.311  17.965  0.00  0.00    +0.000 A 
ATOM      3  C   UNL     1       1.126   9.298  18.613  0.00  0.00    +0.000 A 
ATOM      4  C   UNL     1       0.894   9.047  19.956  0.00  0.00    +0.000 A 
ATOM      5  C   UNL     1       0.003   9.791  20.699  0.00  0.00    +0.000 A 
ATOM      6  C   UNL     1      -0.700  10.822  20.056  0.00  0.00    +0.000 A 
ATOM      7  C   UNL     1       1.694   7.897  20.374  0.00  0.00    +0.000 C 
ATOM      8  O   UNL     1       1.730   7.420  21.489  0.00  0.00    +0.000 OA
ATOM      9  C   UNL     1       2.435   7.428  19.168  0.00  0.00    +0.000 C 
ATOM     10  C   UNL     1       3.211   6.341  19.176  0.00  0.00    +0.000 C 
ATOM     11  C   UNL     1       2.118   8.349  18.015  0.00  0.00    +0.000 C 
ENDROOT
BRANCH  10  12
ATOM     12  C   UNL     1       3.924   5.889  17.983  0.00  0.00    +0.000 A 
ATOM     13  C   UNL     1       4.712   6.777  17.258  0.00  0.00    +0.000 A 
ATOM     14  C   UNL     1       5.378   6.350  16.099  0.00  0.00    +0.000 A 
ATOM     15  C   UNL     1       5.287   5.032  15.619  0.00  0.00    +0.000 A 
ATOM     16  C   UNL     1       4.476   4.164  16.370  0.00  0.00    +0.000 A 
ATOM     17  C   UNL     1       3.800   4.580  17.530  0.00  0.00    +0.000 A 
BRANCH  15  18
ATOM     18  N   UNL     1       5.931   4.635  14.459  0.00  0.00    +0.000 N 
ATOM     19  C   UNL     1       7.345   4.919  14.224  0.00  0.00    +0.000 C 
ATOM     20  C   UNL     1       5.330   3.713  13.500  0.00  0.00    +0.000 C 
ENDBRANCH  15  18
ENDBRANCH  10  12
BRANCH   1  22
ATOM     21  C   UNL     1      -2.310  11.663  17.288  0.00  0.00    +0.000 C 
ATOM     22  O   UNL     1      -1.194  12.087  18.073  0.00  0.00    +0.000 OA
ENDBRANCH   1  22
BRANCH   6  23
ATOM     23  O   UNL     1      -1.631  11.602  20.704  0.00  0.00    +0.000 OA
BRANCH  23  24
ATOM     24  C   UNL     1      -1.147  12.792  21.327  0.00  0.00    +0.000 C 
BRANCH  24  25
ATOM     25  C   UNL     1      -1.162  12.602  22.837  0.00  0.00    +0.000 C 
BRANCH  25  26
ATOM     26  C   UNL     1      -2.325  11.718  23.283  0.00  0.00    +0.000 C 
BRANCH  26  27
ATOM     27  C   UNL     1      -3.408  12.568  23.948  0.00  0.00    +0.000 C 
BRANCH  27  28
ATOM     28  C   UNL     1      -4.001  13.643  23.025  0.00  0.00    +0.000 C 
BRANCH  28  29
ATOM     29  N   UNL     1      -5.438  13.477  22.747  0.00  0.00    +0.000 NA
ATOM     30  C   UNL     1      -5.671  12.730  21.500  0.00  0.00    +0.000 C 
ATOM     31  C   UNL     1      -7.162  12.598  21.199  0.00  0.00    +0.000 C 
ATOM     32  C   UNL     1      -7.899  11.935  22.353  0.00  0.00    +0.000 C 
ATOM     33  C   UNL     1      -7.608  12.673  23.653  0.00  0.00    +0.000 C 
ATOM     34  C   UNL     1      -6.103  12.819  23.884  0.00  0.00    +0.000 C 
ENDBRANCH  28  29
ENDBRANCH  27  28
ENDBRANCH  26  27
ENDBRANCH  25  26
ENDBRANCH  24  25
ENDBRANCH  23  24
ENDBRANCH   6  23
TORSDOF 10
ENDMDL
MODEL 8
REMARK VINA RESULT:      -7.3      1.589      2.367
REMARK  Name = 
REMARK  13 active torsions:
REMARK  status: ('A' for Active; 'I' for Inactive)
REMARK    1  A    between atoms: C_1  and  O_2
REMARK    2  A    between atoms: O_2  and  C_3
REMARK    3  A    between atoms: C_8  and  O_9
REMARK    4  A    between atoms: O_9  and  C_10
REMARK    5  A    between atoms: C_10  and  C_11
REMARK    6  A    between atoms: C_11  and  C_12
REMARK    7  A    between atoms: C_12  and  C_13
REMARK    8  A    between atoms: C_13  and  C_14
REMARK    9  A    between atoms: C_14  and  N_15
REMARK   10  A    between atoms: C_24  and  C_25
REMARK   11  A    between atoms: C_28  and  N_29
REMARK   12  A    between atoms: N_29  and  C_30
REMARK   13  A    between atoms: N_29  and  C_31
REMARK                            x       y       z     vdW  Elec       q    Type
REMARK                         _______ _______ _______ _____ _____    ______ ____
ROOT
ATOM      1  C   UNL     1       0.214  11.211  19.081  0.00  0.00    +0.000 A 
ATOM      2  C   UNL     1       1.087  10.418  18.329  0.00  0.00    +0.000 A 
ATOM      3  C   UNL     1       1.526   9.222  18.849  0.00  0.00    +0.000 A 
ATOM      4  C   UNL     1       1.108   8.802  20.101  0.00  0.00    +0.000 A 
ATOM      5  C   UNL     1       0.251   9.549  20.879  0.00  0.00    +0.000 A 
ATOM      6  C   UNL     1      -0.221  10.768  20.365  0.00  0.00    +0.000 A 
ATOM      7  C   UNL     1       1.685   7.488  20.384  0.00  0.00    +0.000 C 
ATOM      8  O   UNL     1       1.524   6.841  21.397  0.00  0.00    +0.000 OA
ATOM      9  C   UNL     1       2.487   7.105  19.185  0.00  0.00    +0.000 C 
ATOM     10  C   UNL     1       3.095   5.922  19.074  0.00  0.00    +0.000 C 
ATOM     11  C   UNL     1       2.437   8.235  18.186  0.00  0.00    +0.000 C 
ENDROOT
BRANCH  10  12
ATOM     12  C   UNL     1       3.870   5.557  17.890  0.00  0.00    +0.000 A 
ATOM     13  C   UNL     1       4.609   6.521  17.211  0.00  0.00    +0.000 A 
ATOM     14  C   UNL     1       5.334   6.176  16.059  0.00  0.00    +0.000 A 
ATOM     15  C   UNL     1       5.352   4.870  15.542  0.00  0.00    +0.000 A 
ATOM     16  C   UNL     1       4.589   3.924  16.247  0.00  0.00    +0.000 A 
ATOM     17  C   UNL     1       3.855   4.256  17.398  0.00  0.00    +0.000 A 
BRANCH  15  18
ATOM     18  N   UNL     1       6.054   4.554  14.390  0.00  0.00    +0.000 N 
ATOM     19  C   UNL     1       5.437   3.822  13.286  0.00  0.00    +0.000 C 
ATOM     20  C   UNL     1       7.365   5.118  14.087  0.00  0.00    +0.000 C 
ENDBRANCH  15  18
ENDBRANCH  10  12
BRANCH   1  22
ATOM     21  C   UNL     1       0.550  13.537  18.677  0.00  0.00    +0.000 C 
ATOM     22  O   UNL     1      -0.301  12.392  18.596  0.00  0.00    +0.000 OA
ENDBRANCH   1  22
BRANCH   6  23
ATOM     23  O   UNL     1      -1.101  11.572  21.052  0.00  0.00    +0.000 OA
BRANCH  23  24
ATOM     24  C   UNL     1      -1.029  11.529  22.478  0.00  0.00    +0.000 C 
BRANCH  24  25
ATOM     25  C   UNL     1      -2.371  11.956  23.055  0.00  0.00    +0.000 C 
BRANCH  25  26
ATOM     26  C   UNL     1      -3.032  13.038  22.205  0.00  0.00    +0.000 C 
BRANCH  26  27
ATOM     27  C   UNL     1      -4.446  13.317  22.715  0.00  0.00    +0.000 C 
BRANCH  27  28
ATOM     28  C   UNL     1      -5.487  13.469  21.596  0.00  0.00    +0.000 C 
BRANCH  28  29
ATOM     29  N   UNL     1      -5.642  12.276  20.746  0.00  0.00    +0.000 NA
ATOM     30  C   UNL     1      -6.988  11.693  20.863  0.00  0.00    +0.000 C 
ATOM     31  C   UNL     1      -7.128  10.434  20.010  0.00  0.00    +0.000 C 
ATOM     32  C   UNL     1      -6.806  10.722  18.551  0.00  0.00    +0.000 C 
ATOM     33  C   UNL     1      -5.438  11.381  18.436  0.00  0.00    +0.000 C 
ATOM     34  C   UNL     1      -5.335  12.608  19.344  0.00  0.00    +0.000 C 
ENDBRANCH  28  29
ENDBRANCH  27  28
ENDBRANCH  26  27
ENDBRANCH  25  26
ENDBRANCH  24  25
ENDBRANCH  23  24
ENDBRANCH   6  23
TORSDOF 10
ENDMDL
MODEL 9
REMARK VINA RESULT:      -7.3      0.971      1.576
REMARK  Name = 
REMARK  13 active torsions:
REMARK  status: ('A' for Active; 'I' for Inactive)
REMARK    1  A    between atoms: C_1  and  O_2
REMARK    2  A    between atoms: O_2  and  C_3
REMARK    3  A    between atoms: C_8  and  O_9
REMARK    4  A    between atoms: O_9  and  C_10
REMARK    5  A    between atoms: C_10  and  C_11
REMARK    6  A    between atoms: C_11  and  C_12
REMARK    7  A    between atoms: C_12  and  C_13
REMARK    8  A    between atoms: C_13  and  C_14
REMARK    9  A    between atoms: C_14  and  N_15
REMARK   10  A    between atoms: C_24  and  C_25
REMARK   11  A    between atoms: C_28  and  N_29
REMARK   12  A    between atoms: N_29  and  C_30
REMARK   13  A    between atoms: N_29  and  C_31
REMARK                            x       y       z     vdW  Elec       q    Type
REMARK                         _______ _______ _______ _____ _____    ______ ____
ROOT
ATOM      1  C   UNL     1       0.957   9.946  18.910  0.00  0.00    +0.000 A 
ATOM      2  C   UNL     1       1.859   9.361  18.017  0.00  0.00    +0.000 A 
ATOM      3  C   UNL     1       2.444   8.159  18.343  0.00  0.00    +0.000 A 
ATOM      4  C   UNL     1       2.142   7.528  19.539  0.00  0.00    +0.000 A 
ATOM      5  C   UNL     1       1.261   8.067  20.451  0.00  0.00    +0.000 A 
ATOM      6  C   UNL     1       0.642   9.288  20.136  0.00  0.00    +0.000 A 
ATOM      7  C   UNL     1       2.861   6.257  19.606  0.00  0.00    +0.000 C 
ATOM      8  O   UNL     1       2.823   5.464  20.524  0.00  0.00    +0.000 OA
ATOM      9  C   UNL     1       3.627   6.129  18.333  0.00  0.00    +0.000 C 
ATOM     10  C   UNL     1       4.342   5.043  18.028  0.00  0.00    +0.000 C 
ATOM     11  C   UNL     1       3.408   7.374  17.508  0.00  0.00    +0.000 C 
ENDROOT
BRANCH  10  12
ATOM     12  C   UNL     1       5.081   4.929  16.773  0.00  0.00    +0.000 A 
ATOM     13  C   UNL     1       6.367   5.446  16.666  0.00  0.00    +0.000 A 
ATOM     14  C   UNL     1       7.068   5.358  15.453  0.00  0.00    +0.000 A 
ATOM     15  C   UNL     1       6.520   4.757  14.307  0.00  0.00    +0.000 A 
ATOM     16  C   UNL     1       5.216   4.253  14.447  0.00  0.00    +0.000 A 
ATOM     17  C   UNL     1       4.501   4.338  15.654  0.00  0.00    +0.000 A 
BRANCH  15  18
ATOM     18  N   UNL     1       7.217   4.702  13.111  0.00  0.00    +0.000 N 
ATOM     19  C   UNL     1       8.352   5.580  12.837  0.00  0.00    +0.000 C 
ATOM     20  C   UNL     1       7.033   3.626  12.141  0.00  0.00    +0.000 C 
ENDBRANCH  15  18
ENDBRANCH  10  12
BRANCH   1  22
ATOM     21  C   UNL     1       0.990  12.330  18.946  0.00  0.00    +0.000 C 
ATOM     22  O   UNL     1       0.301  11.122  18.621  0.00  0.00    +0.000 OA
ENDBRANCH   1  22
BRANCH   6  23
ATOM     23  O   UNL     1      -0.273   9.892  20.967  0.00  0.00    +0.000 OA
BRANCH  23  24
ATOM     24  C   UNL     1       0.113  10.057  22.333  0.00  0.00    +0.000 C 
BRANCH  24  25
ATOM     25  C   UNL     1      -1.060  10.633  23.113  0.00  0.00    +0.000 C 
BRANCH  25  26
ATOM     26  C   UNL     1      -1.185  12.142  22.910  0.00  0.00    +0.000 C 
BRANCH  26  27
ATOM     27  C   UNL     1      -2.657  12.555  22.935  0.00  0.00    +0.000 C 
BRANCH  27  28
ATOM     28  C   UNL     1      -2.967  13.674  23.940  0.00  0.00    +0.000 C 
BRANCH  28  29
ATOM     29  N   UNL     1      -4.401  13.977  24.088  0.00  0.00    +0.000 NA
ATOM     30  C   UNL     1      -4.846  14.997  23.126  0.00  0.00    +0.000 C 
ATOM     31  C   UNL     1      -6.324  15.334  23.313  0.00  0.00    +0.000 C 
ATOM     32  C   UNL     1      -7.190  14.088  23.194  0.00  0.00    +0.000 C 
ATOM     33  C   UNL     1      -6.690  13.011  24.147  0.00  0.00    +0.000 C 
ATOM     34  C   UNL     1      -5.197  12.744  23.950  0.00  0.00    +0.000 C 
ENDBRANCH  28  29
ENDBRANCH  27  28
ENDBRANCH  26  27
ENDBRANCH  25  26
ENDBRANCH  24  25
ENDBRANCH  23  24
ENDBRANCH   6  23
TORSDOF 10
ENDMDL
