MODEL 1
REMARK VINA RESULT:      -8.4      0.000      0.000
REMARK  Name = 
REMARK  5 active torsions:
REMARK  status: ('A' for Active; 'I' for Inactive)
REMARK    1  A    between atoms: C_2  and  C_3
REMARK    2  A    between atoms: C_2  and  C_18
REMARK    3  A    between atoms: C_3  and  N_4
REMARK    4  A    between atoms: C_5  and  C_6
REMARK    5  A    between atoms: C_21  and  N_22
REMARK                            x       y       z     vdW  Elec       q    Type
REMARK                         _______ _______ _______ _____ _____    ______ ____
ROOT
ATOM      1  N   UNL     1       2.946   4.469  18.607  0.00  0.00    +0.000 N 
ATOM      2  C   UNL     1       4.235   3.845  18.349  0.00  0.00    +0.000 A 
ATOM      3  C   UNL     1       4.381   2.861  19.375  0.00  0.00    +0.000 A 
ATOM      4  N   UNL     1       3.281   3.005  20.188  0.00  0.00    +0.000 N 
ATOM      5  C   UNL     1       2.855   2.408  21.339  0.00  0.00    +0.000 A 
ATOM      6  C   UNL     1       1.618   2.925  21.708  0.00  0.00    +0.000 A 
ATOM      7  S   UNL     1       1.143   4.204  20.607  0.00  0.00    +0.000 S 
ATOM      8  C   UNL     1       2.536   3.952  19.733  0.00  0.00    +0.000 A 
ENDROOT
BRANCH   2   9
ATOM      9  C   UNL     1       5.252   4.146  17.291  0.00  0.00    +0.000 A 
ATOM     10  C   UNL     1       4.924   4.002  15.942  0.00  0.00    +0.000 A 
ATOM     11  C   UNL     1       5.871   4.269  14.955  0.00  0.00    +0.000 A 
ATOM     12  C   UNL     1       7.146   4.698  15.308  0.00  0.00    +0.000 A 
ATOM     13  C   UNL     1       7.471   4.876  16.650  0.00  0.00    +0.000 A 
ATOM     14  C   UNL     1       6.521   4.611  17.645  0.00  0.00    +0.000 A 
ENDBRANCH   2   9
BRANCH   1  15
ATOM     15  C   UNL     1       2.255   5.520  17.849  0.00  0.00    +0.000 C 
BRANCH  15  17
ATOM     16  O   UNL     1       4.012   7.162  17.589  0.00  0.00    +0.000 OA
ATOM     17  C   UNL     1       2.907   6.886  18.053  0.00  0.00    +0.000 C 
BRANCH  17  18
ATOM     18  C   UNL     1       2.163   7.938  18.804  0.00  0.00    +0.000 A 
ATOM     19  C   UNL     1       1.776   9.111  18.137  0.00  0.00    +0.000 A 
ATOM     20  C   UNL     1       1.058  10.107  18.812  0.00  0.00    +0.000 A 
ATOM     21  C   UNL     1       0.719   9.923  20.158  0.00  0.00    +0.000 A 
ATOM     22  C   UNL     1       1.119   8.765  20.835  0.00  0.00    +0.000 A 
ATOM     23  C   UNL     1       1.856   7.789  20.161  0.00  0.00    +0.000 A 
BRANCH  21  24
ATOM     24  N   UNL     1      -0.056  10.944  20.874  0.00  0.00    +0.000 N 
ATOM     25  O   UNL     1      -1.171  11.239  20.428  0.00  0.00    +0.000 OA
ATOM     26  O   UNL     1       0.448  11.425  21.900  0.00  0.00    +0.000 OA
ENDBRANCH  21  24
ENDBRANCH  17  18
ENDBRANCH  15  17
ENDBRANCH   1  15
TORSDOF 5
ENDMDL
MODEL 2
REMARK VINA RESULT:      -8.4      0.072      1.129
REMARK  Name = 
REMARK  5 active torsions:
REMARK  status: ('A' for Active; 'I' for Inactive)
REMARK    1  A    between atoms: C_2  and  C_3
REMARK    2  A    between atoms: C_2  and  C_18
REMARK    3  A    between atoms: C_3  and  N_4
REMARK    4  A    between atoms: C_5  and  C_6
REMARK    5  A    between atoms: C_21  and  N_22
REMARK                            x       y       z     vdW  Elec       q    Type
REMARK                         _______ _______ _______ _____ _____    ______ ____
ROOT
ATOM      1  N   UNL     1       2.951   4.483  18.592  0.00  0.00    +0.000 N 
ATOM      2  C   UNL     1       4.239   3.858  18.327  0.00  0.00    +0.000 A 
ATOM      3  C   UNL     1       4.389   2.874  19.352  0.00  0.00    +0.000 A 
ATOM      4  N   UNL     1       3.292   3.017  20.170  0.00  0.00    +0.000 N 
ATOM      5  C   UNL     1       2.871   2.419  21.322  0.00  0.00    +0.000 A 
ATOM      6  C   UNL     1       1.636   2.935  21.697  0.00  0.00    +0.000 A 
ATOM      7  S   UNL     1       1.157   4.216  20.598  0.00  0.00    +0.000 S 
ATOM      8  C   UNL     1       2.545   3.965  19.718  0.00  0.00    +0.000 A 
ENDROOT
BRANCH   2   9
ATOM      9  C   UNL     1       5.252   4.161  17.266  0.00  0.00    +0.000 A 
ATOM     10  C   UNL     1       4.910   4.043  15.918  0.00  0.00    +0.000 A 
ATOM     11  C   UNL     1       5.853   4.312  14.926  0.00  0.00    +0.000 A 
ATOM     12  C   UNL     1       7.137   4.714  15.275  0.00  0.00    +0.000 A 
ATOM     13  C   UNL     1       7.476   4.866  16.617  0.00  0.00    +0.000 A 
ATOM     14  C   UNL     1       6.531   4.600  17.616  0.00  0.00    +0.000 A 
ENDBRANCH   2   9
BRANCH   1  15
ATOM     15  C   UNL     1       2.257   5.535  17.837  0.00  0.00    +0.000 C 
BRANCH  15  17
ATOM     16  O   UNL     1       4.010   7.192  17.659  0.00  0.00    +0.000 OA
ATOM     17  C   UNL     1       2.887   6.907  18.071  0.00  0.00    +0.000 C 
BRANCH  17  18
ATOM     18  C   UNL     1       2.099   7.952  18.786  0.00  0.00    +0.000 A 
ATOM     19  C   UNL     1       1.850   7.801  20.159  0.00  0.00    +0.000 A 
ATOM     20  C   UNL     1       1.131   8.777  20.862  0.00  0.00    +0.000 A 
ATOM     21  C   UNL     1       0.668   9.914  20.187  0.00  0.00    +0.000 A 
ATOM     22  C   UNL     1       0.896  10.062  18.814  0.00  0.00    +0.000 A 
ATOM     23  C   UNL     1       1.592   9.072  18.117  0.00  0.00    +0.000 A 
BRANCH  21  24
ATOM     24  N   UNL     1      -0.064  10.959  20.912  0.00  0.00    +0.000 N 
ATOM     25  O   UNL     1       0.418  11.367  21.976  0.00  0.00    +0.000 OA
ATOM     26  O   UNL     1      -1.105  11.387  20.395  0.00  0.00    +0.000 OA
ENDBRANCH  21  24
ENDBRANCH  17  18
ENDBRANCH  15  17
ENDBRANCH   1  15
TORSDOF 5
ENDMDL
MODEL 3
REMARK VINA RESULT:      -8.4      0.132      1.123
REMARK  Name = 
REMARK  5 active torsions:
REMARK  status: ('A' for Active; 'I' for Inactive)
REMARK    1  A    between atoms: C_2  and  C_3
REMARK    2  A    between atoms: C_2  and  C_18
REMARK    3  A    between atoms: C_3  and  N_4
REMARK    4  A    between atoms: C_5  and  C_6
REMARK    5  A    between atoms: C_21  and  N_22
REMARK                            x       y       z     vdW  Elec       q    Type
REMARK                         _______ _______ _______ _____ _____    ______ ____
ROOT
ATOM      1  N   UNL     1       2.932   4.489  18.585  0.00  0.00    +0.000 N 
ATOM      2  C   UNL     1       4.226   3.872  18.330  0.00  0.00    +0.000 A 
ATOM      3  C   UNL     1       4.373   2.887  19.354  0.00  0.00    +0.000 A 
ATOM      4  N   UNL     1       3.269   3.023  20.164  0.00  0.00    +0.000 N 
ATOM      5  C   UNL     1       2.843   2.422  21.313  0.00  0.00    +0.000 A 
ATOM      6  C   UNL     1       1.602   2.931  21.678  0.00  0.00    +0.000 A 
ATOM      7  S   UNL     1       1.124   4.210  20.577  0.00  0.00    +0.000 S 
ATOM      8  C   UNL     1       2.521   3.968  19.708  0.00  0.00    +0.000 A 
ENDROOT
BRANCH   2   9
ATOM      9  C   UNL     1       5.245   4.181  17.276  0.00  0.00    +0.000 A 
ATOM     10  C   UNL     1       6.537   4.560  17.641  0.00  0.00    +0.000 A 
ATOM     11  C   UNL     1       7.486   4.861  16.664  0.00  0.00    +0.000 A 
ATOM     12  C   UNL     1       7.153   4.770  15.318  0.00  0.00    +0.000 A 
ATOM     13  C   UNL     1       5.875   4.361  14.945  0.00  0.00    +0.000 A 
ATOM     14  C   UNL     1       4.921   4.055  15.923  0.00  0.00    +0.000 A 
ENDBRANCH   2   9
BRANCH   1  15
ATOM     15  C   UNL     1       2.239   5.538  17.826  0.00  0.00    +0.000 C 
BRANCH  15  17
ATOM     16  O   UNL     1       3.968   7.211  17.579  0.00  0.00    +0.000 OA
ATOM     17  C   UNL     1       2.872   6.910  18.049  0.00  0.00    +0.000 C 
BRANCH  17  18
ATOM     18  C   UNL     1       2.122   7.936  18.828  0.00  0.00    +0.000 A 
ATOM     19  C   UNL     1       1.630   9.073  18.167  0.00  0.00    +0.000 A 
ATOM     20  C   UNL     1       0.903  10.043  18.869  0.00  0.00    +0.000 A 
ATOM     21  C   UNL     1       0.660   9.869  20.237  0.00  0.00    +0.000 A 
ATOM     22  C   UNL     1       1.163   8.748  20.907  0.00  0.00    +0.000 A 
ATOM     23  C   UNL     1       1.909   7.798  20.204  0.00  0.00    +0.000 A 
BRANCH  21  24
ATOM     24  N   UNL     1      -0.122  10.862  20.983  0.00  0.00    +0.000 N 
ATOM     25  O   UNL     1       0.197  11.083  22.158  0.00  0.00    +0.000 OA
ATOM     26  O   UNL     1      -1.037  11.438  20.376  0.00  0.00    +0.000 OA
ENDBRANCH  21  24
ENDBRANCH  17  18
ENDBRANCH  15  17
ENDBRANCH   1  15
TORSDOF 5
ENDMDL
MODEL 4
REMARK VINA RESULT:      -8.1      1.861      2.408
REMARK  Name = 
REMARK  5 active torsions:
REMARK  status: ('A' for Active; 'I' for Inactive)
REMARK    1  A    between atoms: C_2  and  C_3
REMARK    2  A    between atoms: C_2  and  C_18
REMARK    3  A    between atoms: C_3  and  N_4
REMARK    4  A    between atoms: C_5  and  C_6
REMARK    5  A    between atoms: C_21  and  N_22
REMARK                            x       y       z     vdW  Elec       q    Type
REMARK                         _______ _______ _______ _____ _____    ______ ____
ROOT
ATOM      1  N   UNL     1       3.184   5.109  19.234  0.00  0.00    +0.000 N 
ATOM      2  C   UNL     1       4.360   4.880  18.407  0.00  0.00    +0.000 A 
ATOM      3  C   UNL     1       4.097   3.654  17.722  0.00  0.00    +0.000 A 
ATOM      4  N   UNL     1       2.894   3.203  18.214  0.00  0.00    +0.000 N 
ATOM      5  C   UNL     1       2.128   2.093  18.005  0.00  0.00    +0.000 A 
ATOM      6  C   UNL     1       0.959   2.180  18.752  0.00  0.00    +0.000 A 
ATOM      7  S   UNL     1       0.978   3.629  19.740  0.00  0.00    +0.000 S 
ATOM      8  C   UNL     1       2.454   4.038  19.092  0.00  0.00    +0.000 A 
ENDROOT
BRANCH   2   9
ATOM      9  C   UNL     1       5.618   5.684  18.285  0.00  0.00    +0.000 A 
ATOM     10  C   UNL     1       5.702   6.719  17.353  0.00  0.00    +0.000 A 
ATOM     11  C   UNL     1       6.875   7.462  17.227  0.00  0.00    +0.000 A 
ATOM     12  C   UNL     1       7.966   7.185  18.043  0.00  0.00    +0.000 A 
ATOM     13  C   UNL     1       7.880   6.176  18.999  0.00  0.00    +0.000 A 
ATOM     14  C   UNL     1       6.702   5.430  19.130  0.00  0.00    +0.000 A 
ENDBRANCH   2   9
BRANCH   1  15
ATOM     15  C   UNL     1       2.880   6.238  20.122  0.00  0.00    +0.000 C 
BRANCH  15  17
ATOM     16  O   UNL     1       2.249   7.473  18.140  0.00  0.00    +0.000 OA
ATOM     17  C   UNL     1       2.218   7.390  19.367  0.00  0.00    +0.000 C 
BRANCH  17  18
ATOM     18  C   UNL     1       1.474   8.428  20.137  0.00  0.00    +0.000 A 
ATOM     19  C   UNL     1       1.236   8.224  21.506  0.00  0.00    +0.000 A 
ATOM     20  C   UNL     1       0.559   9.192  22.259  0.00  0.00    +0.000 A 
ATOM     21  C   UNL     1       0.125  10.371  21.641  0.00  0.00    +0.000 A 
ATOM     22  C   UNL     1       0.342  10.572  20.273  0.00  0.00    +0.000 A 
ATOM     23  C   UNL     1       0.996   9.591  19.524  0.00  0.00    +0.000 A 
BRANCH  21  24
ATOM     24  N   UNL     1      -0.563  11.408  22.420  0.00  0.00    +0.000 N 
ATOM     25  O   UNL     1      -1.450  11.046  23.202  0.00  0.00    +0.000 OA
ATOM     26  O   UNL     1      -0.187  12.579  22.265  0.00  0.00    +0.000 OA
ENDBRANCH  21  24
ENDBRANCH  17  18
ENDBRANCH  15  17
ENDBRANCH   1  15
TORSDOF 5
ENDMDL
MODEL 5
REMARK VINA RESULT:      -8.1      1.804      2.127
REMARK  Name = 
REMARK  5 active torsions:
REMARK  status: ('A' for Active; 'I' for Inactive)
REMARK    1  A    between atoms: C_2  and  C_3
REMARK    2  A    between atoms: C_2  and  C_18
REMARK    3  A    between atoms: C_3  and  N_4
REMARK    4  A    between atoms: C_5  and  C_6
REMARK    5  A    between atoms: C_21  and  N_22
REMARK                            x       y       z     vdW  Elec       q    Type
REMARK                         _______ _______ _______ _____ _____    ______ ____
ROOT
ATOM      1  N   UNL     1       3.181   5.087  19.234  0.00  0.00    +0.000 N 
ATOM      2  C   UNL     1       4.370   4.845  18.429  0.00  0.00    +0.000 A 
ATOM      3  C   UNL     1       4.124   3.602  17.771  0.00  0.00    +0.000 A 
ATOM      4  N   UNL     1       2.916   3.156  18.256  0.00  0.00    +0.000 N 
ATOM      5  C   UNL     1       2.159   2.037  18.062  0.00  0.00    +0.000 A 
ATOM      6  C   UNL     1       0.979   2.135  18.790  0.00  0.00    +0.000 A 
ATOM      7  S   UNL     1       0.976   3.607  19.743  0.00  0.00    +0.000 S 
ATOM      8  C   UNL     1       2.459   4.009  19.107  0.00  0.00    +0.000 A 
ENDROOT
BRANCH   2   9
ATOM      9  C   UNL     1       5.626   5.653  18.307  0.00  0.00    +0.000 A 
ATOM     10  C   UNL     1       5.711   6.678  17.364  0.00  0.00    +0.000 A 
ATOM     11  C   UNL     1       6.882   7.425  17.238  0.00  0.00    +0.000 A 
ATOM     12  C   UNL     1       7.969   7.161  18.063  0.00  0.00    +0.000 A 
ATOM     13  C   UNL     1       7.881   6.162  19.029  0.00  0.00    +0.000 A 
ATOM     14  C   UNL     1       6.706   5.412  19.161  0.00  0.00    +0.000 A 
ENDBRANCH   2   9
BRANCH   1  15
ATOM     15  C   UNL     1       2.859   6.235  20.091  0.00  0.00    +0.000 C 
BRANCH  15  17
ATOM     16  O   UNL     1       2.273   7.428  18.069  0.00  0.00    +0.000 OA
ATOM     17  C   UNL     1       2.215   7.371  19.296  0.00  0.00    +0.000 C 
BRANCH  17  18
ATOM     18  C   UNL     1       1.455   8.425  20.027  0.00  0.00    +0.000 A 
ATOM     19  C   UNL     1       1.012   9.559  19.327  0.00  0.00    +0.000 A 
ATOM     20  C   UNL     1       0.278  10.556  19.983  0.00  0.00    +0.000 A 
ATOM     21  C   UNL     1      -0.020  10.413  21.344  0.00  0.00    +0.000 A 
ATOM     22  C   UNL     1       0.435   9.295  22.053  0.00  0.00    +0.000 A 
ATOM     23  C   UNL     1       1.188   8.318  21.397  0.00  0.00    +0.000 A 
BRANCH  21  24
ATOM     24  N   UNL     1      -0.810  11.435  22.041  0.00  0.00    +0.000 N 
ATOM     25  O   UNL     1      -1.568  12.139  21.363  0.00  0.00    +0.000 OA
ATOM     26  O   UNL     1      -0.688  11.505  23.273  0.00  0.00    +0.000 OA
ENDBRANCH  21  24
ENDBRANCH  17  18
ENDBRANCH  15  17
ENDBRANCH   1  15
TORSDOF 5
ENDMDL
MODEL 6
REMARK VINA RESULT:      -8.1      1.796      2.498
REMARK  Name = 
REMARK  5 active torsions:
REMARK  status: ('A' for Active; 'I' for Inactive)
REMARK    1  A    between atoms: C_2  and  C_3
REMARK    2  A    between atoms: C_2  and  C_18
REMARK    3  A    between atoms: C_3  and  N_4
REMARK    4  A    between atoms: C_5  and  C_6
REMARK    5  A    between atoms: C_21  and  N_22
REMARK                            x       y       z     vdW  Elec       q    Type
REMARK                         _______ _______ _______ _____ _____    ______ ____
ROOT
ATOM      1  N   UNL     1       3.186   5.093  19.217  0.00  0.00    +0.000 N 
ATOM      2  C   UNL     1       4.384   4.849  18.427  0.00  0.00    +0.000 A 
ATOM      3  C   UNL     1       4.149   3.598  17.777  0.00  0.00    +0.000 A 
ATOM      4  N   UNL     1       2.938   3.152  18.255  0.00  0.00    +0.000 N 
ATOM      5  C   UNL     1       2.188   2.028  18.064  0.00  0.00    +0.000 A 
ATOM      6  C   UNL     1       1.000   2.128  18.779  0.00  0.00    +0.000 A 
ATOM      7  S   UNL     1       0.981   3.608  19.719  0.00  0.00    +0.000 S 
ATOM      8  C   UNL     1       2.469   4.010  19.093  0.00  0.00    +0.000 A 
ENDROOT
BRANCH   2   9
ATOM      9  C   UNL     1       5.637   5.661  18.309  0.00  0.00    +0.000 A 
ATOM     10  C   UNL     1       6.727   5.390  19.137  0.00  0.00    +0.000 A 
ATOM     11  C   UNL     1       7.892   6.151  19.040  0.00  0.00    +0.000 A 
ATOM     12  C   UNL     1       7.979   7.176  18.105  0.00  0.00    +0.000 A 
ATOM     13  C   UNL     1       6.908   7.431  17.253  0.00  0.00    +0.000 A 
ATOM     14  C   UNL     1       5.738   6.667  17.345  0.00  0.00    +0.000 A 
ENDBRANCH   2   9
BRANCH   1  15
ATOM     15  C   UNL     1       2.850   6.247  20.060  0.00  0.00    +0.000 C 
BRANCH  15  17
ATOM     16  O   UNL     1       2.352   7.443  18.018  0.00  0.00    +0.000 OA
ATOM     17  C   UNL     1       2.251   7.390  19.242  0.00  0.00    +0.000 C 
BRANCH  17  18
ATOM     18  C   UNL     1       1.482   8.458  19.945  0.00  0.00    +0.000 A 
ATOM     19  C   UNL     1       1.218   8.320  21.317  0.00  0.00    +0.000 A 
ATOM     20  C   UNL     1       0.516   9.317  22.007  0.00  0.00    +0.000 A 
ATOM     21  C   UNL     1       0.085  10.460  21.322  0.00  0.00    +0.000 A 
ATOM     22  C   UNL     1       0.328  10.595  19.950  0.00  0.00    +0.000 A 
ATOM     23  C   UNL     1       1.006   9.584  19.265  0.00  0.00    +0.000 A 
BRANCH  21  24
ATOM     24  N   UNL     1      -0.628  11.527  22.035  0.00  0.00    +0.000 N 
ATOM     25  O   UNL     1      -0.669  11.467  23.270  0.00  0.00    +0.000 OA
ATOM     26  O   UNL     1      -1.120  12.437  21.352  0.00  0.00    +0.000 OA
ENDBRANCH  21  24
ENDBRANCH  17  18
ENDBRANCH  15  17
ENDBRANCH   1  15
TORSDOF 5
ENDMDL
MODEL 7
REMARK VINA RESULT:      -8.0      1.850      2.361
REMARK  Name = 
REMARK  5 active torsions:
REMARK  status: ('A' for Active; 'I' for Inactive)
REMARK    1  A    between atoms: C_2  and  C_3
REMARK    2  A    between atoms: C_2  and  C_18
REMARK    3  A    between atoms: C_3  and  N_4
REMARK    4  A    between atoms: C_5  and  C_6
REMARK    5  A    between atoms: C_21  and  N_22
REMARK                            x       y       z     vdW  Elec       q    Type
REMARK                         _______ _______ _______ _____ _____    ______ ____
ROOT
ATOM      1  N   UNL     1       3.204   5.108  19.218  0.00  0.00    +0.000 N 
ATOM      2  C   UNL     1       4.382   4.891  18.391  0.00  0.00    +0.000 A 
ATOM      3  C   UNL     1       4.122   3.673  17.690  0.00  0.00    +0.000 A 
ATOM      4  N   UNL     1       2.918   3.215  18.173  0.00  0.00    +0.000 N 
ATOM      5  C   UNL     1       2.154   2.107  17.948  0.00  0.00    +0.000 A 
ATOM      6  C   UNL     1       0.982   2.183  18.693  0.00  0.00    +0.000 A 
ATOM      7  S   UNL     1       0.997   3.619  19.700  0.00  0.00    +0.000 S 
ATOM      8  C   UNL     1       2.475   4.038  19.060  0.00  0.00    +0.000 A 
ENDROOT
BRANCH   2   9
ATOM      9  C   UNL     1       5.640   5.698  18.282  0.00  0.00    +0.000 A 
ATOM     10  C   UNL     1       6.723   5.421  19.116  0.00  0.00    +0.000 A 
ATOM     11  C   UNL     1       7.891   6.177  19.028  0.00  0.00    +0.000 A 
ATOM     12  C   UNL     1       7.989   7.204  18.096  0.00  0.00    +0.000 A 
ATOM     13  C   UNL     1       6.924   7.465  17.238  0.00  0.00    +0.000 A 
ATOM     14  C   UNL     1       5.750   6.706  17.321  0.00  0.00    +0.000 A 
ENDBRANCH   2   9
BRANCH   1  15
ATOM     15  C   UNL     1       2.896   6.225  20.120  0.00  0.00    +0.000 C 
BRANCH  15  17
ATOM     16  O   UNL     1       2.215   7.462  18.155  0.00  0.00    +0.000 OA
ATOM     17  C   UNL     1       2.214   7.377  19.382  0.00  0.00    +0.000 C 
BRANCH  17  18
ATOM     18  C   UNL     1       1.487   8.412  20.171  0.00  0.00    +0.000 A 
ATOM     19  C   UNL     1       0.969   9.538  19.510  0.00  0.00    +0.000 A 
ATOM     20  C   UNL     1       0.263  10.516  20.223  0.00  0.00    +0.000 A 
ATOM     21  C   UNL     1       0.069  10.363  21.601  0.00  0.00    +0.000 A 
ATOM     22  C   UNL     1       0.599   9.253  22.270  0.00  0.00    +0.000 A 
ATOM     23  C   UNL     1       1.323   8.295  21.556  0.00  0.00    +0.000 A 
BRANCH  21  24
ATOM     24  N   UNL     1      -0.691  11.364  22.359  0.00  0.00    +0.000 N 
ATOM     25  O   UNL     1      -1.470  10.959  23.230  0.00  0.00    +0.000 OA
ATOM     26  O   UNL     1      -0.480  12.557  22.095  0.00  0.00    +0.000 OA
ENDBRANCH  21  24
ENDBRANCH  17  18
ENDBRANCH  15  17
ENDBRANCH   1  15
TORSDOF 5
ENDMDL
MODEL 8
REMARK VINA RESULT:      -7.9      0.959      1.010
REMARK  Name = 
REMARK  5 active torsions:
REMARK  status: ('A' for Active; 'I' for Inactive)
REMARK    1  A    between atoms: C_2  and  C_3
REMARK    2  A    between atoms: C_2  and  C_18
REMARK    3  A    between atoms: C_3  and  N_4
REMARK    4  A    between atoms: C_5  and  C_6
REMARK    5  A    between atoms: C_21  and  N_22
REMARK                            x       y       z     vdW  Elec       q    Type
REMARK                         _______ _______ _______ _____ _____    ______ ____
ROOT
ATOM      1  N   UNL     1       3.566   4.755  18.818  0.00  0.00    +0.000 N 
ATOM      2  C   UNL     1       4.057   3.927  17.726  0.00  0.00    +0.000 A 
ATOM      3  C   UNL     1       3.319   2.708  17.826  0.00  0.00    +0.000 A 
ATOM      4  N   UNL     1       2.541   2.835  18.954  0.00  0.00    +0.000 N 
ATOM      5  C   UNL     1       1.662   2.022  19.608  0.00  0.00    +0.000 A 
ATOM      6  C   UNL     1       1.116   2.696  20.694  0.00  0.00    +0.000 A 
ATOM      7  S   UNL     1       1.845   4.283  20.851  0.00  0.00    +0.000 S 
ATOM      8  C   UNL     1       2.758   3.985  19.493  0.00  0.00    +0.000 A 
ENDROOT
BRANCH   2   9
ATOM      9  C   UNL     1       5.126   4.209  16.714  0.00  0.00    +0.000 A 
ATOM     10  C   UNL     1       4.822   4.201  15.353  0.00  0.00    +0.000 A 
ATOM     11  C   UNL     1       5.816   4.451  14.407  0.00  0.00    +0.000 A 
ATOM     12  C   UNL     1       7.115   4.724  14.817  0.00  0.00    +0.000 A 
ATOM     13  C   UNL     1       7.420   4.766  16.176  0.00  0.00    +0.000 A 
ATOM     14  C   UNL     1       6.424   4.519  17.128  0.00  0.00    +0.000 A 
ENDBRANCH   2   9
BRANCH   1  15
ATOM     15  C   UNL     1       3.936   6.129  19.180  0.00  0.00    +0.000 C 
BRANCH  15  17
ATOM     16  O   UNL     1       3.633   7.205  17.034  0.00  0.00    +0.000 OA
ATOM     17  C   UNL     1       3.322   7.150  18.223  0.00  0.00    +0.000 C 
BRANCH  17  18
ATOM     18  C   UNL     1       2.282   8.088  18.735  0.00  0.00    +0.000 A 
ATOM     19  C   UNL     1       1.728   9.039  17.862  0.00  0.00    +0.000 A 
ATOM     20  C   UNL     1       0.734   9.918  18.310  0.00  0.00    +0.000 A 
ATOM     21  C   UNL     1       0.288   9.841  19.635  0.00  0.00    +0.000 A 
ATOM     22  C   UNL     1       0.849   8.910  20.516  0.00  0.00    +0.000 A 
ATOM     23  C   UNL     1       1.858   8.053  20.068  0.00  0.00    +0.000 A 
BRANCH  21  24
ATOM     24  N   UNL     1      -0.772  10.737  20.114  0.00  0.00    +0.000 N 
ATOM     25  O   UNL     1      -1.636  11.092  19.304  0.00  0.00    +0.000 OA
ATOM     26  O   UNL     1      -0.746  11.058  21.311  0.00  0.00    +0.000 OA
ENDBRANCH  21  24
ENDBRANCH  17  18
ENDBRANCH  15  17
ENDBRANCH   1  15
TORSDOF 5
ENDMDL
MODEL 9
REMARK VINA RESULT:      -7.8      1.138      1.863
REMARK  Name = 
REMARK  5 active torsions:
REMARK  status: ('A' for Active; 'I' for Inactive)
REMARK    1  A    between atoms: C_2  and  C_3
REMARK    2  A    between atoms: C_2  and  C_18
REMARK    3  A    between atoms: C_3  and  N_4
REMARK    4  A    between atoms: C_5  and  C_6
REMARK    5  A    between atoms: C_21  and  N_22
REMARK                            x       y       z     vdW  Elec       q    Type
REMARK                         _______ _______ _______ _____ _____    ______ ____
ROOT
ATOM      1  N   UNL     1       3.274   4.808  18.615  0.00  0.00    +0.000 N 
ATOM      2  C   UNL     1       3.817   4.024  17.514  0.00  0.00    +0.000 A 
ATOM      3  C   UNL     1       2.983   2.866  17.441  0.00  0.00    +0.000 A 
ATOM      4  N   UNL     1       2.100   2.974  18.491  0.00  0.00    +0.000 N 
ATOM      5  C   UNL     1       1.098   2.191  18.984  0.00  0.00    +0.000 A 
ATOM      6  C   UNL     1       0.490   2.828  20.061  0.00  0.00    +0.000 A 
ATOM      7  S   UNL     1       1.315   4.334  20.418  0.00  0.00    +0.000 S 
ATOM      8  C   UNL     1       2.343   4.061  19.139  0.00  0.00    +0.000 A 
ENDROOT
BRANCH   2   9
ATOM      9  C   UNL     1       5.006   4.290  16.643  0.00  0.00    +0.000 A 
ATOM     10  C   UNL     1       6.271   4.441  17.210  0.00  0.00    +0.000 A 
ATOM     11  C   UNL     1       7.379   4.700  16.404  0.00  0.00    +0.000 A 
ATOM     12  C   UNL     1       7.231   4.795  15.025  0.00  0.00    +0.000 A 
ATOM     13  C   UNL     1       5.977   4.613  14.448  0.00  0.00    +0.000 A 
ATOM     14  C   UNL     1       4.862   4.349  15.254  0.00  0.00    +0.000 A 
ENDBRANCH   2   9
BRANCH   1  15
ATOM     15  C   UNL     1       3.704   6.118  19.121  0.00  0.00    +0.000 C 
BRANCH  15  17
ATOM     16  O   UNL     1       3.639   7.424  17.087  0.00  0.00    +0.000 OA
ATOM     17  C   UNL     1       3.216   7.258  18.229  0.00  0.00    +0.000 C 
BRANCH  17  18
ATOM     18  C   UNL     1       2.161   8.178  18.744  0.00  0.00    +0.000 A 
ATOM     19  C   UNL     1       1.789   8.105  20.096  0.00  0.00    +0.000 A 
ATOM     20  C   UNL     1       0.816   8.971  20.612  0.00  0.00    +0.000 A 
ATOM     21  C   UNL     1       0.220   9.920  19.772  0.00  0.00    +0.000 A 
ATOM     22  C   UNL     1       0.572   9.986  18.419  0.00  0.00    +0.000 A 
ATOM     23  C   UNL     1       1.525   9.102  17.907  0.00  0.00    +0.000 A 
BRANCH  21  24
ATOM     24  N   UNL     1      -0.782  10.854  20.301  0.00  0.00    +0.000 N 
ATOM     25  O   UNL     1      -0.710  11.157  21.498  0.00  0.00    +0.000 OA
ATOM     26  O   UNL     1      -1.619  11.301  19.504  0.00  0.00    +0.000 OA
ENDBRANCH  21  24
ENDBRANCH  17  18
ENDBRANCH  15  17
ENDBRANCH   1  15
TORSDOF 5
ENDMDL
