MODEL 1
REMARK VINA RESULT:      -7.8      0.000      0.000
REMARK  Name = 
REMARK  5 active torsions:
REMARK  status: ('A' for Active; 'I' for Inactive)
REMARK    1  A    between atoms: C_1  and  C_2
REMARK    2  A    between atoms: C_2  and  C_3
REMARK    3  A    between atoms: C_7  and  O_8
REMARK    4  A    between atoms: O_8  and  C_9
REMARK    5  A    between atoms: C_14  and  N_15
REMARK                            x       y       z     vdW  Elec       q    Type
REMARK                         _______ _______ _______ _____ _____    ______ ____
ROOT
ATOM      1  C   UNL     1       6.661   5.057  18.144  0.00  0.00    +0.000 C 
ATOM      2  C   UNL     1       6.082   4.113  17.073  0.00  0.00    +0.000 C 
ATOM      3  N   UNL     1       6.954   4.747  16.136  0.00  0.00    +0.000 N 
ATOM      4  C   UNL     1       7.020   4.658  14.742  0.00  0.00    +0.000 A 
ATOM      5  C   UNL     1       6.314   3.675  14.074  0.00  0.00    +0.000 A 
ATOM      6  C   UNL     1       6.452   3.615  12.706  0.00  0.00    +0.000 A 
ATOM      7  N   UNL     1       7.232   4.452  12.020  0.00  0.00    +0.000 NA
ATOM      8  C   UNL     1       7.883   5.367  12.751  0.00  0.00    +0.000 A 
ATOM      9  N   UNL     1       7.812   5.520  14.082  0.00  0.00    +0.000 NA
ATOM     10  C   UNL     1       7.139   5.908  16.947  0.00  0.00    +0.000 C 
ENDROOT
BRANCH   6  11
ATOM     11  N   UNL     1       5.715   2.690  11.965  0.00  0.00    +0.000 N 
ATOM     12  H   UNL     1       4.868   2.403  12.438  0.00  0.00    +0.000 HD
ATOM     13  H   UNL     1       6.326   1.905  11.756  0.00  0.00    +0.000 HD
ENDBRANCH   6  11
BRANCH   1  14
ATOM     14  O   UNL     1       5.701   5.634  19.057  0.00  0.00    +0.000 OA
BRANCH  14  19
ATOM     15  C   UNL     1       2.493   3.790  19.415  0.00  0.00    +0.000 A 
ATOM     16  C   UNL     1       1.668   4.650  18.683  0.00  0.00    +0.000 A 
ATOM     17  C   UNL     1       2.200   5.794  18.086  0.00  0.00    +0.000 A 
ATOM     18  C   UNL     1       3.557   6.088  18.226  0.00  0.00    +0.000 A 
ATOM     19  C   UNL     1       4.388   5.241  18.958  0.00  0.00    +0.000 A 
ATOM     20  C   UNL     1       3.857   4.090  19.541  0.00  0.00    +0.000 A 
BRANCH  15  22
ATOM     21  C   UNL     1       1.703   2.854  21.594  0.00  0.00    +0.000 C 
ATOM     22  C   UNL     1       1.926   2.579  20.114  0.00  0.00    +0.000 C 
ENDBRANCH  15  22
ENDBRANCH  14  19
ENDBRANCH   1  14
TORSDOF 4
ENDMDL
MODEL 2
REMARK VINA RESULT:      -7.5      3.184      7.220
REMARK  Name = 
REMARK  5 active torsions:
REMARK  status: ('A' for Active; 'I' for Inactive)
REMARK    1  A    between atoms: C_1  and  C_2
REMARK    2  A    between atoms: C_2  and  C_3
REMARK    3  A    between atoms: C_7  and  O_8
REMARK    4  A    between atoms: O_8  and  C_9
REMARK    5  A    between atoms: C_14  and  N_15
REMARK                            x       y       z     vdW  Elec       q    Type
REMARK                         _______ _______ _______ _____ _____    ______ ____
ROOT
ATOM      1  C   UNL     1       5.303   5.553  16.246  0.00  0.00    +0.000 C 
ATOM      2  C   UNL     1       4.173   4.532  16.479  0.00  0.00    +0.000 C 
ATOM      3  N   UNL     1       3.837   5.271  17.655  0.00  0.00    +0.000 N 
ATOM      4  C   UNL     1       2.960   4.973  18.703  0.00  0.00    +0.000 A 
ATOM      5  C   UNL     1       2.070   3.922  18.588  0.00  0.00    +0.000 A 
ATOM      6  C   UNL     1       1.206   3.705  19.637  0.00  0.00    +0.000 A 
ATOM      7  N   UNL     1       1.197   4.463  20.734  0.00  0.00    +0.000 NA
ATOM      8  C   UNL     1       2.090   5.462  20.756  0.00  0.00    +0.000 A 
ATOM      9  N   UNL     1       2.980   5.754  19.797  0.00  0.00    +0.000 NA
ATOM     10  C   UNL     1       5.114   5.906  17.738  0.00  0.00    +0.000 C 
ENDROOT
BRANCH   6  11
ATOM     11  N   UNL     1       0.329   2.620  19.612  0.00  0.00    +0.000 N 
ATOM     12  H   UNL     1      -0.297   2.647  18.818  0.00  0.00    +0.000 HD
ATOM     13  H   UNL     1      -0.171   2.607  20.498  0.00  0.00    +0.000 HD
ENDBRANCH   6  11
BRANCH   1  14
ATOM     14  O   UNL     1       6.570   5.001  15.826  0.00  0.00    +0.000 OA
BRANCH  14  19
ATOM     15  C   UNL     1       6.249   3.522  12.430  0.00  0.00    +0.000 A 
ATOM     16  C   UNL     1       7.211   4.292  11.769  0.00  0.00    +0.000 A 
ATOM     17  C   UNL     1       7.940   5.256  12.467  0.00  0.00    +0.000 A 
ATOM     18  C   UNL     1       7.704   5.461  13.827  0.00  0.00    +0.000 A 
ATOM     19  C   UNL     1       6.743   4.703  14.496  0.00  0.00    +0.000 A 
ATOM     20  C   UNL     1       6.026   3.730  13.799  0.00  0.00    +0.000 A 
BRANCH  15  22
ATOM     21  C   UNL     1       4.113   3.138  11.189  0.00  0.00    +0.000 C 
ATOM     22  C   UNL     1       5.411   2.515  11.681  0.00  0.00    +0.000 C 
ENDBRANCH  15  22
ENDBRANCH  14  19
ENDBRANCH   1  14
TORSDOF 4
ENDMDL
MODEL 3
REMARK VINA RESULT:      -7.3      3.217      7.457
REMARK  Name = 
REMARK  5 active torsions:
REMARK  status: ('A' for Active; 'I' for Inactive)
REMARK    1  A    between atoms: C_1  and  C_2
REMARK    2  A    between atoms: C_2  and  C_3
REMARK    3  A    between atoms: C_7  and  O_8
REMARK    4  A    between atoms: O_8  and  C_9
REMARK    5  A    between atoms: C_14  and  N_15
REMARK                            x       y       z     vdW  Elec       q    Type
REMARK                         _______ _______ _______ _____ _____    ______ ____
ROOT
ATOM      1  C   UNL     1       4.829   4.684  16.141  0.00  0.00    +0.000 C 
ATOM      2  C   UNL     1       4.543   3.638  17.236  0.00  0.00    +0.000 C 
ATOM      3  N   UNL     1       3.697   4.610  17.852  0.00  0.00    +0.000 N 
ATOM      4  C   UNL     1       3.076   4.620  19.105  0.00  0.00    +0.000 A 
ATOM      5  C   UNL     1       3.036   3.470  19.870  0.00  0.00    +0.000 A 
ATOM      6  C   UNL     1       2.375   3.534  21.076  0.00  0.00    +0.000 A 
ATOM      7  N   UNL     1       1.781   4.644  21.517  0.00  0.00    +0.000 NA
ATOM      8  C   UNL     1       1.866   5.707  20.707  0.00  0.00    +0.000 A 
ATOM      9  N   UNL     1       2.491   5.757  19.522  0.00  0.00    +0.000 NA
ATOM     10  C   UNL     1       4.298   5.710  17.167  0.00  0.00    +0.000 C 
ENDROOT
BRANCH   6  11
ATOM     11  N   UNL     1       2.355   2.428  21.926  0.00  0.00    +0.000 N 
ATOM     12  H   UNL     1       1.850   1.645  21.531  0.00  0.00    +0.000 HD
ATOM     13  H   UNL     1       1.966   2.729  22.817  0.00  0.00    +0.000 HD
ENDBRANCH   6  11
BRANCH   1  14
ATOM     14  O   UNL     1       6.206   4.786  15.716  0.00  0.00    +0.000 OA
BRANCH  14  19
ATOM     15  C   UNL     1       6.174   3.473  12.238  0.00  0.00    +0.000 A 
ATOM     16  C   UNL     1       7.230   4.226  11.715  0.00  0.00    +0.000 A 
ATOM     17  C   UNL     1       7.922   5.124  12.529  0.00  0.00    +0.000 A 
ATOM     18  C   UNL     1       7.557   5.280  13.866  0.00  0.00    +0.000 A 
ATOM     19  C   UNL     1       6.502   4.539  14.398  0.00  0.00    +0.000 A 
ATOM     20  C   UNL     1       5.821   3.631  13.587  0.00  0.00    +0.000 A 
BRANCH  15  22
ATOM     21  C   UNL     1       3.995   3.105  11.070  0.00  0.00    +0.000 C 
ATOM     22  C   UNL     1       5.377   2.539  11.362  0.00  0.00    +0.000 C 
ENDBRANCH  15  22
ENDBRANCH  14  19
ENDBRANCH   1  14
TORSDOF 4
ENDMDL
MODEL 4
REMARK VINA RESULT:      -7.3      1.301      1.528
REMARK  Name = 
REMARK  5 active torsions:
REMARK  status: ('A' for Active; 'I' for Inactive)
REMARK    1  A    between atoms: C_1  and  C_2
REMARK    2  A    between atoms: C_2  and  C_3
REMARK    3  A    between atoms: C_7  and  O_8
REMARK    4  A    between atoms: O_8  and  C_9
REMARK    5  A    between atoms: C_14  and  N_15
REMARK                            x       y       z     vdW  Elec       q    Type
REMARK                         _______ _______ _______ _____ _____    ______ ____
ROOT
ATOM      1  C   UNL     1       5.186   5.708  17.585  0.00  0.00    +0.000 C 
ATOM      2  C   UNL     1       4.838   4.646  16.525  0.00  0.00    +0.000 C 
ATOM      3  N   UNL     1       5.997   5.076  15.808  0.00  0.00    +0.000 N 
ATOM      4  C   UNL     1       6.440   4.770  14.517  0.00  0.00    +0.000 A 
ATOM      5  C   UNL     1       5.855   3.740  13.808  0.00  0.00    +0.000 A 
ATOM      6  C   UNL     1       6.363   3.462  12.558  0.00  0.00    +0.000 A 
ATOM      7  N   UNL     1       7.383   4.136  12.027  0.00  0.00    +0.000 NA
ATOM      8  C   UNL     1       7.891   5.114  12.789  0.00  0.00    +0.000 A 
ATOM      9  N   UNL     1       7.467   5.473  14.009  0.00  0.00    +0.000 NA
ATOM     10  C   UNL     1       6.063   6.336  16.478  0.00  0.00    +0.000 C 
ENDROOT
BRANCH   6  11
ATOM     11  N   UNL     1       5.774   2.478  11.763  0.00  0.00    +0.000 N 
ATOM     12  H   UNL     1       5.104   2.861  11.107  0.00  0.00    +0.000 HD
ATOM     13  H   UNL     1       5.357   1.788  12.383  0.00  0.00    +0.000 HD
ENDBRANCH   6  11
BRANCH   1  14
ATOM     14  O   UNL     1       4.072   6.473  18.095  0.00  0.00    +0.000 OA
BRANCH  14  19
ATOM     15  C   UNL     1       1.669   3.928  19.348  0.00  0.00    +0.000 A 
ATOM     16  C   UNL     1       1.164   4.631  20.446  0.00  0.00    +0.000 A 
ATOM     17  C   UNL     1       1.621   5.921  20.724  0.00  0.00    +0.000 A 
ATOM     18  C   UNL     1       2.590   6.510  19.910  0.00  0.00    +0.000 A 
ATOM     19  C   UNL     1       3.104   5.816  18.815  0.00  0.00    +0.000 A 
ATOM     20  C   UNL     1       2.636   4.533  18.531  0.00  0.00    +0.000 A 
BRANCH  15  22
ATOM     21  C   UNL     1       2.342   1.716  18.396  0.00  0.00    +0.000 C 
ATOM     22  C   UNL     1       1.230   2.512  19.064  0.00  0.00    +0.000 C 
ENDBRANCH  15  22
ENDBRANCH  14  19
ENDBRANCH   1  14
TORSDOF 4
ENDMDL
MODEL 5
REMARK VINA RESULT:      -7.2      1.171      1.206
REMARK  Name = 
REMARK  5 active torsions:
REMARK  status: ('A' for Active; 'I' for Inactive)
REMARK    1  A    between atoms: C_1  and  C_2
REMARK    2  A    between atoms: C_2  and  C_3
REMARK    3  A    between atoms: C_7  and  O_8
REMARK    4  A    between atoms: O_8  and  C_9
REMARK    5  A    between atoms: C_14  and  N_15
REMARK                            x       y       z     vdW  Elec       q    Type
REMARK                         _______ _______ _______ _____ _____    ______ ____
ROOT
ATOM      1  C   UNL     1       5.474   5.672  17.721  0.00  0.00    +0.000 C 
ATOM      2  C   UNL     1       4.972   4.723  16.616  0.00  0.00    +0.000 C 
ATOM      3  N   UNL     1       6.154   5.055  15.885  0.00  0.00    +0.000 N 
ATOM      4  C   UNL     1       6.522   4.776  14.565  0.00  0.00    +0.000 A 
ATOM      5  C   UNL     1       5.798   3.866  13.819  0.00  0.00    +0.000 A 
ATOM      6  C   UNL     1       6.234   3.604  12.540  0.00  0.00    +0.000 A 
ATOM      7  N   UNL     1       7.313   4.184  12.012  0.00  0.00    +0.000 NA
ATOM      8  C   UNL     1       7.956   5.047  12.810  0.00  0.00    +0.000 A 
ATOM      9  N   UNL     1       7.611   5.381  14.062  0.00  0.00    +0.000 NA
ATOM     10  C   UNL     1       6.389   6.256  16.622  0.00  0.00    +0.000 C 
ENDROOT
BRANCH   6  11
ATOM     11  N   UNL     1       5.509   2.746  11.711  0.00  0.00    +0.000 N 
ATOM     12  H   UNL     1       4.907   2.123  12.233  0.00  0.00    +0.000 HD
ATOM     13  H   UNL     1       6.175   2.244  11.129  0.00  0.00    +0.000 HD
ENDBRANCH   6  11
BRANCH   1  14
ATOM     14  O   UNL     1       4.474   6.531  18.311  0.00  0.00    +0.000 OA
BRANCH  14  19
ATOM     15  C   UNL     1       2.620   4.189  20.523  0.00  0.00    +0.000 A 
ATOM     16  C   UNL     1       1.578   5.038  20.910  0.00  0.00    +0.000 A 
ATOM     17  C   UNL     1       1.515   6.342  20.416  0.00  0.00    +0.000 A 
ATOM     18  C   UNL     1       2.498   6.806  19.541  0.00  0.00    +0.000 A 
ATOM     19  C   UNL     1       3.545   5.970  19.153  0.00  0.00    +0.000 A 
ATOM     20  C   UNL     1       3.598   4.663  19.636  0.00  0.00    +0.000 A 
BRANCH  15  22
ATOM     21  C   UNL     1       1.479   2.405  21.851  0.00  0.00    +0.000 C 
ATOM     22  C   UNL     1       2.737   2.795  21.090  0.00  0.00    +0.000 C 
ENDBRANCH  15  22
ENDBRANCH  14  19
ENDBRANCH   1  14
TORSDOF 4
ENDMDL
MODEL 6
REMARK VINA RESULT:      -7.1      5.344      8.544
REMARK  Name = 
REMARK  5 active torsions:
REMARK  status: ('A' for Active; 'I' for Inactive)
REMARK    1  A    between atoms: C_1  and  C_2
REMARK    2  A    between atoms: C_2  and  C_3
REMARK    3  A    between atoms: C_7  and  O_8
REMARK    4  A    between atoms: O_8  and  C_9
REMARK    5  A    between atoms: C_14  and  N_15
REMARK                            x       y       z     vdW  Elec       q    Type
REMARK                         _______ _______ _______ _____ _____    ______ ____
ROOT
ATOM      1  C   UNL     1       2.705   7.615  17.872  0.00  0.00    +0.000 C 
ATOM      2  C   UNL     1       2.289   7.470  19.349  0.00  0.00    +0.000 C 
ATOM      3  N   UNL     1       1.477   8.632  19.166  0.00  0.00    +0.000 N 
ATOM      4  C   UNL     1       0.790   9.423  20.092  0.00  0.00    +0.000 A 
ATOM      5  C   UNL     1       0.629   8.988  21.394  0.00  0.00    +0.000 A 
ATOM      6  C   UNL     1      -0.091   9.793  22.247  0.00  0.00    +0.000 A 
ATOM      7  N   UNL     1      -0.633  10.950  21.864  0.00  0.00    +0.000 NA
ATOM      8  C   UNL     1      -0.432  11.287  20.583  0.00  0.00    +0.000 A 
ATOM      9  N   UNL     1       0.260  10.585  19.674  0.00  0.00    +0.000 NA
ATOM     10  C   UNL     1       2.188   9.065  18.005  0.00  0.00    +0.000 C 
ENDROOT
BRANCH   6  11
ATOM     11  N   UNL     1      -0.233   9.445  23.591  0.00  0.00    +0.000 N 
ATOM     12  H   UNL     1      -0.152  10.243  24.208  0.00  0.00    +0.000 HD
ATOM     13  H   UNL     1       0.455   8.725  23.798  0.00  0.00    +0.000 HD
ENDBRANCH   6  11
BRANCH   1  14
ATOM     14  O   UNL     1       4.107   7.408  17.593  0.00  0.00    +0.000 OA
BRANCH  14  19
ATOM     15  C   UNL     1       5.705   4.863  15.404  0.00  0.00    +0.000 A 
ATOM     16  C   UNL     1       5.189   3.710  16.004  0.00  0.00    +0.000 A 
ATOM     17  C   UNL     1       4.323   3.813  17.094  0.00  0.00    +0.000 A 
ATOM     18  C   UNL     1       3.976   5.069  17.595  0.00  0.00    +0.000 A 
ATOM     19  C   UNL     1       4.489   6.225  17.009  0.00  0.00    +0.000 A 
ATOM     20  C   UNL     1       5.342   6.120  15.910  0.00  0.00    +0.000 A 
BRANCH  15  22
ATOM     21  C   UNL     1       6.224   3.763  13.220  0.00  0.00    +0.000 C 
ATOM     22  C   UNL     1       6.686   4.772  14.261  0.00  0.00    +0.000 C 
ENDBRANCH  15  22
ENDBRANCH  14  19
ENDBRANCH   1  14
TORSDOF 4
ENDMDL
MODEL 7
REMARK VINA RESULT:      -7.0      4.799      8.081
REMARK  Name = 
REMARK  5 active torsions:
REMARK  status: ('A' for Active; 'I' for Inactive)
REMARK    1  A    between atoms: C_1  and  C_2
REMARK    2  A    between atoms: C_2  and  C_3
REMARK    3  A    between atoms: C_7  and  O_8
REMARK    4  A    between atoms: O_8  and  C_9
REMARK    5  A    between atoms: C_14  and  N_15
REMARK                            x       y       z     vdW  Elec       q    Type
REMARK                         _______ _______ _______ _____ _____    ______ ____
ROOT
ATOM      1  C   UNL     1       2.823   5.289  19.336  0.00  0.00    +0.000 C 
ATOM      2  C   UNL     1       2.096   5.723  20.624  0.00  0.00    +0.000 C 
ATOM      3  N   UNL     1       1.818   6.963  19.972  0.00  0.00    +0.000 N 
ATOM      4  C   UNL     1       1.296   8.161  20.469  0.00  0.00    +0.000 A 
ATOM      5  C   UNL     1       0.731   8.203  21.729  0.00  0.00    +0.000 A 
ATOM      6  C   UNL     1       0.199   9.403  22.145  0.00  0.00    +0.000 A 
ATOM      7  N   UNL     1       0.204  10.499  21.385  0.00  0.00    +0.000 NA
ATOM      8  C   UNL     1       0.767  10.362  20.176  0.00  0.00    +0.000 A 
ATOM      9  N   UNL     1       1.322   9.248  19.678  0.00  0.00    +0.000 NA
ATOM     10  C   UNL     1       2.856   6.797  19.003  0.00  0.00    +0.000 C 
ENDROOT
BRANCH   6  11
ATOM     11  N   UNL     1      -0.326   9.530  23.431  0.00  0.00    +0.000 N 
ATOM     12  H   UNL     1      -0.379  10.495  23.734  0.00  0.00    +0.000 HD
ATOM     13  H   UNL     1       0.240   8.960  24.054  0.00  0.00    +0.000 HD
ENDBRANCH   6  11
BRANCH   1  14
ATOM     14  O   UNL     1       4.079   4.600  19.527  0.00  0.00    +0.000 OA
BRANCH  14  19
ATOM     15  C   UNL     1       5.827   4.531  16.247  0.00  0.00    +0.000 A 
ATOM     16  C   UNL     1       7.084   4.982  16.664  0.00  0.00    +0.000 A 
ATOM     17  C   UNL     1       7.313   5.276  18.009  0.00  0.00    +0.000 A 
ATOM     18  C   UNL     1       6.285   5.129  18.942  0.00  0.00    +0.000 A 
ATOM     19  C   UNL     1       5.027   4.685  18.537  0.00  0.00    +0.000 A 
ATOM     20  C   UNL     1       4.804   4.378  17.194  0.00  0.00    +0.000 A 
BRANCH  15  22
ATOM     21  C   UNL     1       6.788   4.466  13.940  0.00  0.00    +0.000 C 
ATOM     22  C   UNL     1       5.542   4.262  14.790  0.00  0.00    +0.000 C 
ENDBRANCH  15  22
ENDBRANCH  14  19
ENDBRANCH   1  14
TORSDOF 4
ENDMDL
MODEL 8
REMARK VINA RESULT:      -6.9      5.500      8.222
REMARK  Name = 
REMARK  5 active torsions:
REMARK  status: ('A' for Active; 'I' for Inactive)
REMARK    1  A    between atoms: C_1  and  C_2
REMARK    2  A    between atoms: C_2  and  C_3
REMARK    3  A    between atoms: C_7  and  O_8
REMARK    4  A    between atoms: O_8  and  C_9
REMARK    5  A    between atoms: C_14  and  N_15
REMARK                            x       y       z     vdW  Elec       q    Type
REMARK                         _______ _______ _______ _____ _____    ______ ____
ROOT
ATOM      1  C   UNL     1       2.583   7.835  17.857  0.00  0.00    +0.000 C 
ATOM      2  C   UNL     1       2.156   7.631  19.323  0.00  0.00    +0.000 C 
ATOM      3  N   UNL     1       1.374   8.819  19.192  0.00  0.00    +0.000 N 
ATOM      4  C   UNL     1       0.701   9.582  20.152  0.00  0.00    +0.000 A 
ATOM      5  C   UNL     1       0.524   9.091  21.431  0.00  0.00    +0.000 A 
ATOM      6  C   UNL     1      -0.181   9.873  22.318  0.00  0.00    +0.000 A 
ATOM      7  N   UNL     1      -0.694  11.059  21.988  0.00  0.00    +0.000 NA
ATOM      8  C   UNL     1      -0.478  11.451  20.724  0.00  0.00    +0.000 A 
ATOM      9  N   UNL     1       0.201  10.776  19.787  0.00  0.00    +0.000 NA
ATOM     10  C   UNL     1       2.101   9.289  18.056  0.00  0.00    +0.000 C 
ENDROOT
BRANCH   6  11
ATOM     11  N   UNL     1      -0.338   9.465  23.643  0.00  0.00    +0.000 N 
ATOM     12  H   UNL     1      -0.658  10.215  24.243  0.00  0.00    +0.000 HD
ATOM     13  H   UNL     1       0.548   9.074  23.953  0.00  0.00    +0.000 HD
ENDBRANCH   6  11
BRANCH   1  14
ATOM     14  O   UNL     1       3.981   7.607  17.573  0.00  0.00    +0.000 OA
BRANCH  14  19
ATOM     15  C   UNL     1       4.335   3.950  17.010  0.00  0.00    +0.000 A 
ATOM     16  C   UNL     1       5.199   3.984  15.910  0.00  0.00    +0.000 A 
ATOM     17  C   UNL     1       5.645   5.207  15.406  0.00  0.00    +0.000 A 
ATOM     18  C   UNL     1       5.222   6.401  15.993  0.00  0.00    +0.000 A 
ATOM     19  C   UNL     1       4.357   6.379  17.087  0.00  0.00    +0.000 A 
ATOM     20  C   UNL     1       3.924   5.155  17.598  0.00  0.00    +0.000 A 
BRANCH  15  22
ATOM     21  C   UNL     1       2.313   2.745  17.851  0.00  0.00    +0.000 C 
ATOM     22  C   UNL     1       3.797   2.641  17.534  0.00  0.00    +0.000 C 
ENDBRANCH  15  22
ENDBRANCH  14  19
ENDBRANCH   1  14
TORSDOF 4
ENDMDL
MODEL 9
REMARK VINA RESULT:      -6.9      3.466      7.011
REMARK  Name = 
REMARK  5 active torsions:
REMARK  status: ('A' for Active; 'I' for Inactive)
REMARK    1  A    between atoms: C_1  and  C_2
REMARK    2  A    between atoms: C_2  and  C_3
REMARK    3  A    between atoms: C_7  and  O_8
REMARK    4  A    between atoms: O_8  and  C_9
REMARK    5  A    between atoms: C_14  and  N_15
REMARK                            x       y       z     vdW  Elec       q    Type
REMARK                         _______ _______ _______ _____ _____    ______ ____
ROOT
ATOM      1  C   UNL     1       4.983   4.310  16.306  0.00  0.00    +0.000 C 
ATOM      2  C   UNL     1       4.771   3.315  17.464  0.00  0.00    +0.000 C 
ATOM      3  N   UNL     1       3.659   4.118  17.863  0.00  0.00    +0.000 N 
ATOM      4  C   UNL     1       2.877   4.086  19.022  0.00  0.00    +0.000 A 
ATOM      5  C   UNL     1       2.971   3.020  19.895  0.00  0.00    +0.000 A 
ATOM      6  C   UNL     1       2.146   3.028  20.997  0.00  0.00    +0.000 A 
ATOM      7  N   UNL     1       1.273   4.007  21.239  0.00  0.00    +0.000 NA
ATOM      8  C   UNL     1       1.247   4.996  20.336  0.00  0.00    +0.000 A 
ATOM      9  N   UNL     1       2.011   5.092  19.238  0.00  0.00    +0.000 NA
ATOM     10  C   UNL     1       4.106   5.268  17.143  0.00  0.00    +0.000 C 
ENDROOT
BRANCH   6  11
ATOM     11  N   UNL     1       2.238   2.014  21.952  0.00  0.00    +0.000 N 
ATOM     12  H   UNL     1       2.655   1.170  21.580  0.00  0.00    +0.000 HD
ATOM     13  H   UNL     1       1.305   1.854  22.323  0.00  0.00    +0.000 HD
ENDBRANCH   6  11
BRANCH   1  14
ATOM     14  O   UNL     1       6.354   4.684  16.045  0.00  0.00    +0.000 OA
BRANCH  14  19
ATOM     15  C   UNL     1       7.819   7.609  17.811  0.00  0.00    +0.000 A 
ATOM     16  C   UNL     1       8.282   6.957  18.959  0.00  0.00    +0.000 A 
ATOM     17  C   UNL     1       8.109   5.579  19.101  0.00  0.00    +0.000 A 
ATOM     18  C   UNL     1       7.466   4.848  18.101  0.00  0.00    +0.000 A 
ATOM     19  C   UNL     1       6.996   5.488  16.955  0.00  0.00    +0.000 A 
ATOM     20  C   UNL     1       7.182   6.863  16.809  0.00  0.00    +0.000 A 
BRANCH  15  22
ATOM     21  C   UNL     1       8.864   9.687  18.729  0.00  0.00    +0.000 C 
ATOM     22  C   UNL     1       7.945   9.105  17.664  0.00  0.00    +0.000 C 
ENDBRANCH  15  22
ENDBRANCH  14  19
ENDBRANCH   1  14
TORSDOF 4
ENDMDL
