MODEL 1
REMARK VINA RESULT:      -6.5      0.000      0.000
REMARK  Name = 
REMARK  10 active torsions:
REMARK  status: ('A' for Active; 'I' for Inactive)
REMARK    1  A    between atoms: C_1  and  O_2
REMARK    2  A    between atoms: O_2  and  C_3
REMARK    3  A    between atoms: C_5  and  C_6
REMARK    4  A    between atoms: C_24  and  O_25
REMARK    5  A    between atoms: O_25  and  C_26
REMARK    6  A    between atoms: C_27  and  O_28
REMARK    7  A    between atoms: O_28  and  C_29
REMARK    8  A    between atoms: N_31  and  C_32
REMARK    9  A    between atoms: C_32  and  C_33
REMARK   10  A    between atoms: C_32  and  C_34
REMARK                            x       y       z     vdW  Elec       q    Type
REMARK                         _______ _______ _______ _____ _____    ______ ____
ROOT
ATOM      1  C   UNL     1       7.857  15.122  22.430  0.00  0.00    +0.000 A 
ATOM      2  C   UNL     1       9.102  14.618  22.037  0.00  0.00    +0.000 A 
ATOM      3  C   UNL     1       9.403  14.226  20.726  0.00  0.00    +0.000 A 
ATOM      4  C   UNL     1       8.395  14.456  19.770  0.00  0.00    +0.000 A 
ATOM      5  C   UNL     1       7.149  15.032  20.115  0.00  0.00    +0.000 A 
ATOM      6  C   UNL     1       6.881  15.358  21.455  0.00  0.00    +0.000 A 
ENDROOT
BRANCH   3   7
ATOM      7  C   UNL     1      10.699  13.437  20.365  0.00  0.00    +0.000 C 
ATOM      8  C   UNL     1      11.599  14.273  19.357  0.00  0.00    +0.000 A 
ATOM      9  C   UNL     1      12.013  15.529  19.802  0.00  0.00    +0.000 A 
ATOM     10  C   UNL     1      11.376  16.553  19.154  0.00  0.00    +0.000 A 
ATOM     11  C   UNL     1      10.740  16.371  17.943  0.00  0.00    +0.000 A 
ATOM     12  C   UNL     1      10.823  15.181  17.253  0.00  0.00    +0.000 A 
ATOM     13  C   UNL     1      11.301  14.085  17.976  0.00  0.00    +0.000 A 
ATOM     14  C   UNL     1      11.228  12.670  17.441  0.00  0.00    +0.000 C 
ATOM     15  C   UNL     1      10.175  11.985  18.274  0.00  0.00    +0.000 C 
ATOM     16  C   UNL     1       9.874  10.524  18.101  0.00  0.00    +0.000 C 
ATOM     17  O   UNL     1       9.123  10.221  19.296  0.00  0.00    +0.000 OA
ATOM     18  C   UNL     1       9.466  11.109  20.296  0.00  0.00    +0.000 C 
ATOM     19  O   UNL     1       9.020  11.080  21.428  0.00  0.00    +0.000 OA
ATOM     20  C   UNL     1      10.523  12.030  19.762  0.00  0.00    +0.000 C 
ATOM     21  O   UNL     1       9.911  17.415  17.653  0.00  0.00    +0.000 OA
ATOM     22  C   UNL     1       9.842  18.010  18.970  0.00  0.00    +0.000 C 
ATOM     23  O   UNL     1      11.036  17.742  19.733  0.00  0.00    +0.000 OA
ENDBRANCH   3   7
BRANCH   1  25
ATOM     24  C   UNL     1       8.164  16.305  24.488  0.00  0.00    +0.000 C 
ATOM     25  O   UNL     1       7.503  15.285  23.745  0.00  0.00    +0.000 OA
ENDBRANCH   1  25
BRANCH   5  26
ATOM     26  O   UNL     1       6.252  15.080  19.078  0.00  0.00    +0.000 OA
ATOM     27  C   UNL     1       6.758  14.709  17.800  0.00  0.00    +0.000 C 
ENDBRANCH   5  26
BRANCH   6  28
ATOM     28  O   UNL     1       5.551  15.669  21.844  0.00  0.00    +0.000 OA
BRANCH  28  29
ATOM     29  C   UNL     1       4.560  14.679  21.886  0.00  0.00    +0.000 C 
ATOM     30  O   UNL     1       4.534  13.720  22.636  0.00  0.00    +0.000 OA
ATOM     31  N   UNL     1       3.591  14.989  20.972  0.00  0.00    +0.000 N 
ATOM     32  H   UNL     1       3.847  15.769  20.383  0.00  0.00    +0.000 HD
BRANCH  31  33
ATOM     33  C   UNL     1       2.774  13.946  20.326  0.00  0.00    +0.000 C 
ATOM     34  C   UNL     1       1.317  13.991  20.751  0.00  0.00    +0.000 C 
BRANCH  33  35
ATOM     35  C   UNL     1       2.905  13.839  18.788  0.00  0.00    +0.000 C 
ATOM     36  N   UNL     1       3.192  15.005  18.141  0.00  0.00    +0.000 N 
ATOM     37  O   UNL     1       2.952  12.780  18.173  0.00  0.00    +0.000 OA
ATOM     38  H   UNL     1       2.858  15.867  18.543  0.00  0.00    +0.000 HD
ATOM     39  H   UNL     1       3.214  14.964  17.134  0.00  0.00    +0.000 HD
ENDBRANCH  33  35
ENDBRANCH  31  33
ENDBRANCH  28  29
ENDBRANCH   6  28
TORSDOF 7
ENDMDL
MODEL 2
REMARK VINA RESULT:      -6.4      8.123     12.383
REMARK  Name = 
REMARK  10 active torsions:
REMARK  status: ('A' for Active; 'I' for Inactive)
REMARK    1  A    between atoms: C_1  and  O_2
REMARK    2  A    between atoms: O_2  and  C_3
REMARK    3  A    between atoms: C_5  and  C_6
REMARK    4  A    between atoms: C_24  and  O_25
REMARK    5  A    between atoms: O_25  and  C_26
REMARK    6  A    between atoms: C_27  and  O_28
REMARK    7  A    between atoms: O_28  and  C_29
REMARK    8  A    between atoms: N_31  and  C_32
REMARK    9  A    between atoms: C_32  and  C_33
REMARK   10  A    between atoms: C_32  and  C_34
REMARK                            x       y       z     vdW  Elec       q    Type
REMARK                         _______ _______ _______ _____ _____    ______ ____
ROOT
ATOM      1  C   UNL     1      -0.629  12.415  22.385  0.00  0.00    +0.000 A 
ATOM      2  C   UNL     1      -1.695  12.672  23.254  0.00  0.00    +0.000 A 
ATOM      3  C   UNL     1      -2.279  13.935  23.415  0.00  0.00    +0.000 A 
ATOM      4  C   UNL     1      -1.793  14.949  22.567  0.00  0.00    +0.000 A 
ATOM      5  C   UNL     1      -0.766  14.710  21.622  0.00  0.00    +0.000 A 
ATOM      6  C   UNL     1      -0.180  13.437  21.540  0.00  0.00    +0.000 A 
ENDROOT
BRANCH   3   7
ATOM      7  C   UNL     1      -3.286  14.252  24.564  0.00  0.00    +0.000 C 
ATOM      8  C   UNL     1      -4.779  14.219  24.023  0.00  0.00    +0.000 A 
ATOM      9  C   UNL     1      -5.198  13.017  23.452  0.00  0.00    +0.000 A 
ATOM     10  C   UNL     1      -5.334  13.098  22.092  0.00  0.00    +0.000 A 
ATOM     11  C   UNL     1      -5.455  14.309  21.439  0.00  0.00    +0.000 A 
ATOM     12  C   UNL     1      -5.582  15.494  22.130  0.00  0.00    +0.000 A 
ATOM     13  C   UNL     1      -5.260  15.449  23.489  0.00  0.00    +0.000 A 
ATOM     14  C   UNL     1      -5.117  16.703  24.327  0.00  0.00    +0.000 C 
ATOM     15  C   UNL     1      -3.641  16.826  24.607  0.00  0.00    +0.000 C 
ATOM     16  C   UNL     1      -3.105  17.911  25.496  0.00  0.00    +0.000 C 
ATOM     17  O   UNL     1      -1.769  17.443  25.780  0.00  0.00    +0.000 OA
ATOM     18  C   UNL     1      -1.724  16.069  25.661  0.00  0.00    +0.000 C 
ATOM     19  O   UNL     1      -0.737  15.389  25.874  0.00  0.00    +0.000 OA
ATOM     20  C   UNL     1      -3.101  15.583  25.316  0.00  0.00    +0.000 C 
ATOM     21  O   UNL     1      -5.246  14.175  20.097  0.00  0.00    +0.000 OA
ATOM     22  C   UNL     1      -4.622  12.869  20.104  0.00  0.00    +0.000 C 
ATOM     23  O   UNL     1      -5.066  12.078  21.224  0.00  0.00    +0.000 OA
ENDBRANCH   3   7
BRANCH   1  25
ATOM     24  C   UNL     1      -0.546  10.099  22.983  0.00  0.00    +0.000 C 
ATOM     25  O   UNL     1       0.079  11.240  22.404  0.00  0.00    +0.000 OA
ENDBRANCH   1  25
BRANCH   5  26
ATOM     26  O   UNL     1      -0.346  15.837  20.962  0.00  0.00    +0.000 OA
ATOM     27  C   UNL     1      -1.105  16.204  19.815  0.00  0.00    +0.000 C 
ENDBRANCH   5  26
BRANCH   6  28
ATOM     28  O   UNL     1       1.023  13.269  20.804  0.00  0.00    +0.000 OA
BRANCH  28  29
ATOM     29  C   UNL     1       1.002  12.823  19.476  0.00  0.00    +0.000 C 
ATOM     30  O   UNL     1       0.838  13.516  18.488  0.00  0.00    +0.000 OA
ATOM     31  N   UNL     1       1.243  11.477  19.461  0.00  0.00    +0.000 N 
ATOM     32  H   UNL     1       1.255  11.073  20.386  0.00  0.00    +0.000 HD
BRANCH  31  33
ATOM     33  C   UNL     1       0.715  10.608  18.394  0.00  0.00    +0.000 C 
ATOM     34  C   UNL     1       1.447   9.282  18.296  0.00  0.00    +0.000 C 
BRANCH  33  35
ATOM     35  C   UNL     1      -0.820  10.402  18.387  0.00  0.00    +0.000 C 
ATOM     36  N   UNL     1      -1.350   9.982  17.202  0.00  0.00    +0.000 N 
ATOM     37  O   UNL     1      -1.520  10.411  19.392  0.00  0.00    +0.000 OA
ATOM     38  H   UNL     1      -0.891  10.264  16.350  0.00  0.00    +0.000 HD
ATOM     39  H   UNL     1      -2.354   9.908  17.163  0.00  0.00    +0.000 HD
ENDBRANCH  33  35
ENDBRANCH  31  33
ENDBRANCH  28  29
ENDBRANCH   6  28
TORSDOF 7
ENDMDL
MODEL 3
REMARK VINA RESULT:      -6.3      8.741     12.712
REMARK  Name = 
REMARK  10 active torsions:
REMARK  status: ('A' for Active; 'I' for Inactive)
REMARK    1  A    between atoms: C_1  and  O_2
REMARK    2  A    between atoms: O_2  and  C_3
REMARK    3  A    between atoms: C_5  and  C_6
REMARK    4  A    between atoms: C_24  and  O_25
REMARK    5  A    between atoms: O_25  and  C_26
REMARK    6  A    between atoms: C_27  and  O_28
REMARK    7  A    between atoms: O_28  and  C_29
REMARK    8  A    between atoms: N_31  and  C_32
REMARK    9  A    between atoms: C_32  and  C_33
REMARK   10  A    between atoms: C_32  and  C_34
REMARK                            x       y       z     vdW  Elec       q    Type
REMARK                         _______ _______ _______ _____ _____    ______ ____
ROOT
ATOM      1  C   UNL     1      -0.968  12.097  22.519  0.00  0.00    +0.000 A 
ATOM      2  C   UNL     1      -1.951  12.485  23.435  0.00  0.00    +0.000 A 
ATOM      3  C   UNL     1      -2.682  13.676  23.334  0.00  0.00    +0.000 A 
ATOM      4  C   UNL     1      -2.441  14.447  22.181  0.00  0.00    +0.000 A 
ATOM      5  C   UNL     1      -1.507  14.051  21.193  0.00  0.00    +0.000 A 
ATOM      6  C   UNL     1      -0.764  12.873  21.371  0.00  0.00    +0.000 A 
ENDROOT
BRANCH   3   7
ATOM      7  C   UNL     1      -3.583  14.206  24.492  0.00  0.00    +0.000 C 
ATOM      8  C   UNL     1      -5.101  14.278  24.029  0.00  0.00    +0.000 A 
ATOM      9  C   UNL     1      -5.671  13.078  23.605  0.00  0.00    +0.000 A 
ATOM     10  C   UNL     1      -5.877  13.041  22.252  0.00  0.00    +0.000 A 
ATOM     11  C   UNL     1      -5.915  14.189  21.486  0.00  0.00    +0.000 A 
ATOM     12  C   UNL     1      -5.881  15.442  22.057  0.00  0.00    +0.000 A 
ATOM     13  C   UNL     1      -5.487  15.495  23.396  0.00  0.00    +0.000 A 
ATOM     14  C   UNL     1      -5.171  16.802  24.094  0.00  0.00    +0.000 C 
ATOM     15  C   UNL     1      -3.676  16.796  24.288  0.00  0.00    +0.000 C 
ATOM     16  C   UNL     1      -2.983  17.900  25.034  0.00  0.00    +0.000 C 
ATOM     17  O   UNL     1      -1.686  17.323  25.301  0.00  0.00    +0.000 OA
ATOM     18  C   UNL     1      -1.786  15.947  25.321  0.00  0.00    +0.000 C 
ATOM     19  O   UNL     1      -0.861  15.191  25.554  0.00  0.00    +0.000 OA
ATOM     20  C   UNL     1      -3.222  15.578  25.094  0.00  0.00    +0.000 C 
ATOM     21  O   UNL     1      -5.799  13.905  20.156  0.00  0.00    +0.000 OA
ATOM     22  C   UNL     1      -5.309  12.547  20.266  0.00  0.00    +0.000 C 
ATOM     23  O   UNL     1      -5.763  11.919  21.481  0.00  0.00    +0.000 OA
ENDBRANCH   3   7
BRANCH   1  25
ATOM     24  C   UNL     1      -0.660   9.832  23.230  0.00  0.00    +0.000 C 
ATOM     25  O   UNL     1      -0.108  11.053  22.748  0.00  0.00    +0.000 OA
ENDBRANCH   1  25
BRANCH   5  26
ATOM     26  O   UNL     1      -1.325  14.977  20.197  0.00  0.00    +0.000 OA
ATOM     27  C   UNL     1      -1.720  16.309  20.507  0.00  0.00    +0.000 C 
ENDBRANCH   5  26
BRANCH   6  28
ATOM     28  O   UNL     1       0.357  12.622  20.537  0.00  0.00    +0.000 OA
BRANCH  28  29
ATOM     29  C   UNL     1       0.299  11.664  19.516  0.00  0.00    +0.000 C 
ATOM     30  O   UNL     1      -0.461  11.673  18.565  0.00  0.00    +0.000 OA
ATOM     31  N   UNL     1       1.273  10.730  19.735  0.00  0.00    +0.000 N 
ATOM     32  H   UNL     1       1.731  10.846  20.627  0.00  0.00    +0.000 HD
BRANCH  31  33
ATOM     33  C   UNL     1       1.130   9.338  19.271  0.00  0.00    +0.000 C 
ATOM     34  C   UNL     1       1.575   9.147  17.833  0.00  0.00    +0.000 C 
BRANCH  33  35
ATOM     35  C   UNL     1       1.734   8.251  20.194  0.00  0.00    +0.000 C 
ATOM     36  N   UNL     1       1.562   8.456  21.531  0.00  0.00    +0.000 N 
ATOM     37  O   UNL     1       2.167   7.175  19.798  0.00  0.00    +0.000 OA
ATOM     38  H   UNL     1       1.512   9.406  21.864  0.00  0.00    +0.000 HD
ATOM     39  H   UNL     1       2.008   7.792  22.146  0.00  0.00    +0.000 HD
ENDBRANCH  33  35
ENDBRANCH  31  33
ENDBRANCH  28  29
ENDBRANCH   6  28
TORSDOF 7
ENDMDL
MODEL 4
REMARK VINA RESULT:      -6.1      8.784     11.865
REMARK  Name = 
REMARK  10 active torsions:
REMARK  status: ('A' for Active; 'I' for Inactive)
REMARK    1  A    between atoms: C_1  and  O_2
REMARK    2  A    between atoms: O_2  and  C_3
REMARK    3  A    between atoms: C_5  and  C_6
REMARK    4  A    between atoms: C_24  and  O_25
REMARK    5  A    between atoms: O_25  and  C_26
REMARK    6  A    between atoms: C_27  and  O_28
REMARK    7  A    between atoms: O_28  and  C_29
REMARK    8  A    between atoms: N_31  and  C_32
REMARK    9  A    between atoms: C_32  and  C_33
REMARK   10  A    between atoms: C_32  and  C_34
REMARK                            x       y       z     vdW  Elec       q    Type
REMARK                         _______ _______ _______ _____ _____    ______ ____
ROOT
ATOM      1  C   UNL     1      -0.468  11.841  22.010  0.00  0.00    +0.000 A 
ATOM      2  C   UNL     1      -1.161  12.714  22.855  0.00  0.00    +0.000 A 
ATOM      3  C   UNL     1      -1.665  13.956  22.445  0.00  0.00    +0.000 A 
ATOM      4  C   UNL     1      -1.520  14.256  21.077  0.00  0.00    +0.000 A 
ATOM      5  C   UNL     1      -0.890  13.365  20.175  0.00  0.00    +0.000 A 
ATOM      6  C   UNL     1      -0.357  12.156  20.650  0.00  0.00    +0.000 A 
ENDROOT
BRANCH   3   7
ATOM      7  C   UNL     1      -2.205  15.015  23.456  0.00  0.00    +0.000 C 
ATOM      8  C   UNL     1      -3.770  15.215  23.272  0.00  0.00    +0.000 A 
ATOM      9  C   UNL     1      -4.558  14.076  23.437  0.00  0.00    +0.000 A 
ATOM     10  C   UNL     1      -5.075  13.618  22.255  0.00  0.00    +0.000 A 
ATOM     11  C   UNL     1      -5.157  14.417  21.133  0.00  0.00    +0.000 A 
ATOM     12  C   UNL     1      -4.847  15.758  21.174  0.00  0.00    +0.000 A 
ATOM     13  C   UNL     1      -4.148  16.191  22.305  0.00  0.00    +0.000 A 
ATOM     14  C   UNL     1      -3.529  17.570  22.393  0.00  0.00    +0.000 C 
ATOM     15  C   UNL     1      -2.041  17.343  22.313  0.00  0.00    +0.000 C 
ATOM     16  C   UNL     1      -1.071  18.480  22.455  0.00  0.00    +0.000 C 
ATOM     17  O   UNL     1       0.176  17.792  22.690  0.00  0.00    +0.000 OA
ATOM     18  C   UNL     1      -0.075  16.552  23.243  0.00  0.00    +0.000 C 
ATOM     19  O   UNL     1       0.785  15.759  23.579  0.00  0.00    +0.000 OA
ATOM     20  C   UNL     1      -1.557  16.412  23.425  0.00  0.00    +0.000 C 
ATOM     21  O   UNL     1      -5.387  13.677  20.009  0.00  0.00    +0.000 OA
ATOM     22  C   UNL     1      -5.046  12.372  20.535  0.00  0.00    +0.000 C 
ATOM     23  O   UNL     1      -5.275  12.300  21.956  0.00  0.00    +0.000 OA
ENDBRANCH   3   7
BRANCH   1  25
ATOM     24  C   UNL     1      -0.528   9.751  23.176  0.00  0.00    +0.000 C 
ATOM     25  O   UNL     1       0.213  10.743  22.471  0.00  0.00    +0.000 OA
ENDBRANCH   1  25
BRANCH   5  26
ATOM     26  O   UNL     1      -0.742  13.870  18.908  0.00  0.00    +0.000 OA
ATOM     27  C   UNL     1      -0.055  15.113  18.810  0.00  0.00    +0.000 C 
ENDBRANCH   5  26
BRANCH   6  28
ATOM     28  O   UNL     1       0.510  11.401  19.817  0.00  0.00    +0.000 OA
BRANCH  28  29
ATOM     29  C   UNL     1       0.015  10.385  18.989  0.00  0.00    +0.000 C 
ATOM     30  O   UNL     1       0.671   9.509  18.455  0.00  0.00    +0.000 OA
ATOM     31  N   UNL     1      -1.345  10.506  18.912  0.00  0.00    +0.000 N 
ATOM     32  H   UNL     1      -1.686  11.352  19.344  0.00  0.00    +0.000 HD
BRANCH  31  33
ATOM     33  C   UNL     1      -2.097  10.049  17.728  0.00  0.00    +0.000 C 
ATOM     34  C   UNL     1      -3.436   9.430  18.083  0.00  0.00    +0.000 C 
BRANCH  33  35
ATOM     35  C   UNL     1      -2.242  11.078  16.580  0.00  0.00    +0.000 C 
ATOM     36  N   UNL     1      -1.623  12.276  16.784  0.00  0.00    +0.000 N 
ATOM     37  O   UNL     1      -2.698  10.815  15.474  0.00  0.00    +0.000 OA
ATOM     38  H   UNL     1      -1.535  12.610  17.731  0.00  0.00    +0.000 HD
ATOM     39  H   UNL     1      -1.764  12.979  16.076  0.00  0.00    +0.000 HD
ENDBRANCH  33  35
ENDBRANCH  31  33
ENDBRANCH  28  29
ENDBRANCH   6  28
TORSDOF 7
ENDMDL
MODEL 5
REMARK VINA RESULT:      -6.1      6.944     12.311
REMARK  Name = 
REMARK  10 active torsions:
REMARK  status: ('A' for Active; 'I' for Inactive)
REMARK    1  A    between atoms: C_1  and  O_2
REMARK    2  A    between atoms: O_2  and  C_3
REMARK    3  A    between atoms: C_5  and  C_6
REMARK    4  A    between atoms: C_24  and  O_25
REMARK    5  A    between atoms: O_25  and  C_26
REMARK    6  A    between atoms: C_27  and  O_28
REMARK    7  A    between atoms: O_28  and  C_29
REMARK    8  A    between atoms: N_31  and  C_32
REMARK    9  A    between atoms: C_32  and  C_33
REMARK   10  A    between atoms: C_32  and  C_34
REMARK                            x       y       z     vdW  Elec       q    Type
REMARK                         _______ _______ _______ _____ _____    ______ ____
ROOT
ATOM      1  C   UNL     1      -1.782  11.943  21.771  0.00  0.00    +0.000 A 
ATOM      2  C   UNL     1      -3.029  12.558  21.924  0.00  0.00    +0.000 A 
ATOM      3  C   UNL     1      -3.762  13.103  20.862  0.00  0.00    +0.000 A 
ATOM      4  C   UNL     1      -3.214  12.916  19.578  0.00  0.00    +0.000 A 
ATOM      5  C   UNL     1      -1.990  12.234  19.376  0.00  0.00    +0.000 A 
ATOM      6  C   UNL     1      -1.271  11.753  20.481  0.00  0.00    +0.000 A 
ENDROOT
BRANCH   3   7
ATOM      7  C   UNL     1      -5.018  14.001  21.086  0.00  0.00    +0.000 C 
ATOM      8  C   UNL     1      -4.650  15.266  21.973  0.00  0.00    +0.000 A 
ATOM      9  C   UNL     1      -3.654  16.101  21.467  0.00  0.00    +0.000 A 
ATOM     10  C   UNL     1      -2.482  16.008  22.168  0.00  0.00    +0.000 A 
ATOM     11  C   UNL     1      -2.431  15.488  23.446  0.00  0.00    +0.000 A 
ATOM     12  C   UNL     1      -3.575  15.157  24.139  0.00  0.00    +0.000 A 
ATOM     13  C   UNL     1      -4.747  15.069  23.382  0.00  0.00    +0.000 A 
ATOM     14  C   UNL     1      -6.029  14.490  23.941  0.00  0.00    +0.000 C 
ATOM     15  C   UNL     1      -6.204  13.165  23.243  0.00  0.00    +0.000 C 
ATOM     16  C   UNL     1      -7.423  12.320  23.470  0.00  0.00    +0.000 C 
ATOM     17  O   UNL     1      -7.358  11.386  22.371  0.00  0.00    +0.000 OA
ATOM     18  C   UNL     1      -6.652  11.947  21.326  0.00  0.00    +0.000 C 
ATOM     19  O   UNL     1      -6.462  11.407  20.253  0.00  0.00    +0.000 OA
ATOM     20  C   UNL     1      -6.253  13.337  21.724  0.00  0.00    +0.000 C 
ATOM     21  O   UNL     1      -1.151  15.189  23.813  0.00  0.00    +0.000 OA
ATOM     22  C   UNL     1      -0.536  15.223  22.503  0.00  0.00    +0.000 C 
ATOM     23  O   UNL     1      -1.238  16.116  21.614  0.00  0.00    +0.000 OA
ENDBRANCH   3   7
BRANCH   1  25
ATOM     24  C   UNL     1      -0.886  10.249  23.206  0.00  0.00    +0.000 C 
ATOM     25  O   UNL     1      -0.976  11.621  22.834  0.00  0.00    +0.000 OA
ENDBRANCH   1  25
BRANCH   5  26
ATOM     26  O   UNL     1      -1.558  12.243  18.073  0.00  0.00    +0.000 OA
ATOM     27  C   UNL     1      -2.226  11.349  17.190  0.00  0.00    +0.000 C 
ENDBRANCH   5  26
BRANCH   6  28
ATOM     28  O   UNL     1       0.072  11.325  20.307  0.00  0.00    +0.000 OA
BRANCH  28  29
ATOM     29  C   UNL     1       1.136  12.234  20.383  0.00  0.00    +0.000 C 
ATOM     30  O   UNL     1       1.870  12.402  21.341  0.00  0.00    +0.000 OA
ATOM     31  N   UNL     1       1.251  12.877  19.182  0.00  0.00    +0.000 N 
ATOM     32  H   UNL     1       0.490  12.667  18.553  0.00  0.00    +0.000 HD
BRANCH  31  33
ATOM     33  C   UNL     1       1.800  14.242  19.084  0.00  0.00    +0.000 C 
ATOM     34  C   UNL     1       2.827  14.387  17.976  0.00  0.00    +0.000 C 
BRANCH  33  35
ATOM     35  C   UNL     1       0.759  15.387  19.036  0.00  0.00    +0.000 C 
ATOM     36  N   UNL     1       1.193  16.594  19.502  0.00  0.00    +0.000 N 
ATOM     37  O   UNL     1      -0.317  15.316  18.454  0.00  0.00    +0.000 OA
ATOM     38  H   UNL     1       1.893  16.600  20.228  0.00  0.00    +0.000 HD
ATOM     39  H   UNL     1       0.507  17.331  19.539  0.00  0.00    +0.000 HD
ENDBRANCH  33  35
ENDBRANCH  31  33
ENDBRANCH  28  29
ENDBRANCH   6  28
TORSDOF 7
ENDMDL
MODEL 6
REMARK VINA RESULT:      -6.1      6.723     10.662
REMARK  Name = 
REMARK  10 active torsions:
REMARK  status: ('A' for Active; 'I' for Inactive)
REMARK    1  A    between atoms: C_1  and  O_2
REMARK    2  A    between atoms: O_2  and  C_3
REMARK    3  A    between atoms: C_5  and  C_6
REMARK    4  A    between atoms: C_24  and  O_25
REMARK    5  A    between atoms: O_25  and  C_26
REMARK    6  A    between atoms: C_27  and  O_28
REMARK    7  A    between atoms: O_28  and  C_29
REMARK    8  A    between atoms: N_31  and  C_32
REMARK    9  A    between atoms: C_32  and  C_33
REMARK   10  A    between atoms: C_32  and  C_34
REMARK                            x       y       z     vdW  Elec       q    Type
REMARK                         _______ _______ _______ _____ _____    ______ ____
ROOT
ATOM      1  C   UNL     1      -0.810  10.768  19.196  0.00  0.00    +0.000 A 
ATOM      2  C   UNL     1      -1.258  12.077  19.399  0.00  0.00    +0.000 A 
ATOM      3  C   UNL     1      -1.086  12.780  20.599  0.00  0.00    +0.000 A 
ATOM      4  C   UNL     1      -0.335  12.124  21.593  0.00  0.00    +0.000 A 
ATOM      5  C   UNL     1       0.199  10.827  21.397  0.00  0.00    +0.000 A 
ATOM      6  C   UNL     1      -0.049  10.147  20.194  0.00  0.00    +0.000 A 
ENDROOT
BRANCH   3   7
ATOM      7  C   UNL     1      -1.810  14.132  20.888  0.00  0.00    +0.000 C 
ATOM      8  C   UNL     1      -0.786  15.343  20.800  0.00  0.00    +0.000 A 
ATOM      9  C   UNL     1      -0.128  15.503  19.580  0.00  0.00    +0.000 A 
ATOM     10  C   UNL     1       1.196  15.162  19.647  0.00  0.00    +0.000 A 
ATOM     11  C   UNL     1       1.873  15.086  20.848  0.00  0.00    +0.000 A 
ATOM     12  C   UNL     1       1.291  15.479  22.033  0.00  0.00    +0.000 A 
ATOM     13  C   UNL     1      -0.096  15.647  22.009  0.00  0.00    +0.000 A 
ATOM     14  C   UNL     1      -0.908  15.840  23.273  0.00  0.00    +0.000 C 
ATOM     15  C   UNL     1      -1.679  14.557  23.449  0.00  0.00    +0.000 C 
ATOM     16  C   UNL     1      -2.677  14.394  24.559  0.00  0.00    +0.000 C 
ATOM     17  O   UNL     1      -3.415  13.226  24.139  0.00  0.00    +0.000 OA
ATOM     18  C   UNL     1      -3.345  13.102  22.766  0.00  0.00    +0.000 C 
ATOM     19  O   UNL     1      -3.898  12.229  22.123  0.00  0.00    +0.000 OA
ATOM     20  C   UNL     1      -2.554  14.258  22.231  0.00  0.00    +0.000 C 
ATOM     21  O   UNL     1       3.058  14.422  20.712  0.00  0.00    +0.000 OA
ATOM     22  C   UNL     1       2.811  13.800  19.429  0.00  0.00    +0.000 C 
ATOM     23  O   UNL     1       1.898  14.579  18.630  0.00  0.00    +0.000 OA
ENDBRANCH   3   7
BRANCH   1  25
ATOM     24  C   UNL     1      -2.559  10.000  17.754  0.00  0.00    +0.000 C 
ATOM     25  O   UNL     1      -1.181  10.015  18.111  0.00  0.00    +0.000 OA
ENDBRANCH   1  25
BRANCH   5  26
ATOM     26  O   UNL     1       0.807  10.304  22.510  0.00  0.00    +0.000 OA
ATOM     27  C   UNL     1      -0.029   9.548  23.379  0.00  0.00    +0.000 C 
ENDBRANCH   5  26
BRANCH   6  28
ATOM     28  O   UNL     1       0.240   8.760  20.105  0.00  0.00    +0.000 OA
BRANCH  28  29
ATOM     29  C   UNL     1       1.490   8.308  19.661  0.00  0.00    +0.000 C 
ATOM     30  O   UNL     1       2.167   8.815  18.785  0.00  0.00    +0.000 OA
ATOM     31  N   UNL     1       1.855   7.222  20.407  0.00  0.00    +0.000 N 
ATOM     32  H   UNL     1       1.115   6.900  21.014  0.00  0.00    +0.000 HD
BRANCH  31  33
ATOM     33  C   UNL     1       2.736   6.171  19.865  0.00  0.00    +0.000 C 
ATOM     34  C   UNL     1       2.617   4.857  20.616  0.00  0.00    +0.000 C 
BRANCH  33  35
ATOM     35  C   UNL     1       2.664   5.950  18.335  0.00  0.00    +0.000 C 
ATOM     36  N   UNL     1       3.710   6.455  17.620  0.00  0.00    +0.000 N 
ATOM     37  O   UNL     1       1.853   5.216  17.782  0.00  0.00    +0.000 OA
ATOM     38  H   UNL     1       4.175   7.277  17.973  0.00  0.00    +0.000 HD
ATOM     39  H   UNL     1       3.644   6.378  16.617  0.00  0.00    +0.000 HD
ENDBRANCH  33  35
ENDBRANCH  31  33
ENDBRANCH  28  29
ENDBRANCH   6  28
TORSDOF 7
ENDMDL
MODEL 7
REMARK VINA RESULT:      -6.1      1.747      2.760
REMARK  Name = 
REMARK  10 active torsions:
REMARK  status: ('A' for Active; 'I' for Inactive)
REMARK    1  A    between atoms: C_1  and  O_2
REMARK    2  A    between atoms: O_2  and  C_3
REMARK    3  A    between atoms: C_5  and  C_6
REMARK    4  A    between atoms: C_24  and  O_25
REMARK    5  A    between atoms: O_25  and  C_26
REMARK    6  A    between atoms: C_27  and  O_28
REMARK    7  A    between atoms: O_28  and  C_29
REMARK    8  A    between atoms: N_31  and  C_32
REMARK    9  A    between atoms: C_32  and  C_33
REMARK   10  A    between atoms: C_32  and  C_34
REMARK                            x       y       z     vdW  Elec       q    Type
REMARK                         _______ _______ _______ _____ _____    ______ ____
ROOT
ATOM      1  C   UNL     1       7.638  15.553  19.781  0.00  0.00    +0.000 A 
ATOM      2  C   UNL     1       8.603  14.545  19.677  0.00  0.00    +0.000 A 
ATOM      3  C   UNL     1       9.615  14.338  20.623  0.00  0.00    +0.000 A 
ATOM      4  C   UNL     1       9.561  15.154  21.769  0.00  0.00    +0.000 A 
ATOM      5  C   UNL     1       8.556  16.136  21.945  0.00  0.00    +0.000 A 
ATOM      6  C   UNL     1       7.597  16.337  20.940  0.00  0.00    +0.000 A 
ENDROOT
BRANCH   3   7
ATOM      7  C   UNL     1      10.821  13.382  20.363  0.00  0.00    +0.000 C 
ATOM      8  C   UNL     1      11.788  13.991  19.260  0.00  0.00    +0.000 A 
ATOM      9  C   UNL     1      12.333  15.244  19.545  0.00  0.00    +0.000 A 
ATOM     10  C   UNL     1      11.795  16.240  18.775  0.00  0.00    +0.000 A 
ATOM     11  C   UNL     1      11.128  15.975  17.596  0.00  0.00    +0.000 A 
ATOM     12  C   UNL     1      11.083  14.707  17.059  0.00  0.00    +0.000 A 
ATOM     13  C   UNL     1      11.456  13.666  17.913  0.00  0.00    +0.000 A 
ATOM     14  C   UNL     1      11.235  12.210  17.558  0.00  0.00    +0.000 C 
ATOM     15  C   UNL     1      10.128  11.744  18.468  0.00  0.00    +0.000 C 
ATOM     16  C   UNL     1       9.678  10.311  18.477  0.00  0.00    +0.000 C 
ATOM     17  O   UNL     1       8.916  10.236  19.701  0.00  0.00    +0.000 OA
ATOM     18  C   UNL     1       9.359  11.201  20.583  0.00  0.00    +0.000 C 
ATOM     19  O   UNL     1       8.925  11.357  21.709  0.00  0.00    +0.000 OA
ATOM     20  C   UNL     1      10.496  11.937  19.940  0.00  0.00    +0.000 C 
ATOM     21  O   UNL     1      10.405  17.054  17.178  0.00  0.00    +0.000 OA
ATOM     22  C   UNL     1      10.413  17.811  18.411  0.00  0.00    +0.000 C 
ATOM     23  O   UNL     1      11.583  17.520  19.202  0.00  0.00    +0.000 OA
ENDBRANCH   3   7
BRANCH   1  25
ATOM     24  C   UNL     1       6.224  14.833  17.989  0.00  0.00    +0.000 C 
ATOM     25  O   UNL     1       6.802  15.891  18.748  0.00  0.00    +0.000 OA
ENDBRANCH   1  25
BRANCH   5  26
ATOM     26  O   UNL     1       8.725  16.908  23.066  0.00  0.00    +0.000 OA
ATOM     27  C   UNL     1      10.065  17.284  23.368  0.00  0.00    +0.000 C 
ENDBRANCH   5  26
BRANCH   6  28
ATOM     28  O   UNL     1       6.771  17.492  20.985  0.00  0.00    +0.000 OA
BRANCH  28  29
ATOM     29  C   UNL     1       5.424  17.403  21.362  0.00  0.00    +0.000 C 
ATOM     30  O   UNL     1       5.006  17.130  22.472  0.00  0.00    +0.000 OA
ATOM     31  N   UNL     1       4.645  17.723  20.285  0.00  0.00    +0.000 N 
ATOM     32  H   UNL     1       5.179  17.824  19.434  0.00  0.00    +0.000 HD
BRANCH  31  33
ATOM     33  C   UNL     1       3.287  17.173  20.122  0.00  0.00    +0.000 C 
ATOM     34  C   UNL     1       2.217  18.049  20.748  0.00  0.00    +0.000 C 
BRANCH  33  35
ATOM     35  C   UNL     1       2.895  16.752  18.685  0.00  0.00    +0.000 C 
ATOM     36  N   UNL     1       1.673  16.160  18.560  0.00  0.00    +0.000 N 
ATOM     37  O   UNL     1       3.512  17.080  17.679  0.00  0.00    +0.000 OA
ATOM     38  H   UNL     1       1.322  15.624  19.338  0.00  0.00    +0.000 HD
ATOM     39  H   UNL     1       1.432  15.820  17.642  0.00  0.00    +0.000 HD
ENDBRANCH  33  35
ENDBRANCH  31  33
ENDBRANCH  28  29
ENDBRANCH   6  28
TORSDOF 7
ENDMDL
MODEL 8
REMARK VINA RESULT:      -6.0      6.146     12.376
REMARK  Name = 
REMARK  10 active torsions:
REMARK  status: ('A' for Active; 'I' for Inactive)
REMARK    1  A    between atoms: C_1  and  O_2
REMARK    2  A    between atoms: O_2  and  C_3
REMARK    3  A    between atoms: C_5  and  C_6
REMARK    4  A    between atoms: C_24  and  O_25
REMARK    5  A    between atoms: O_25  and  C_26
REMARK    6  A    between atoms: C_27  and  O_28
REMARK    7  A    between atoms: O_28  and  C_29
REMARK    8  A    between atoms: N_31  and  C_32
REMARK    9  A    between atoms: C_32  and  C_33
REMARK   10  A    between atoms: C_32  and  C_34
REMARK                            x       y       z     vdW  Elec       q    Type
REMARK                         _______ _______ _______ _____ _____    ______ ____
ROOT
ATOM      1  C   UNL     1      -1.875  11.960  21.872  0.00  0.00    +0.000 A 
ATOM      2  C   UNL     1      -3.135  12.551  22.006  0.00  0.00    +0.000 A 
ATOM      3  C   UNL     1      -3.858  13.093  20.935  0.00  0.00    +0.000 A 
ATOM      4  C   UNL     1      -3.283  12.928  19.661  0.00  0.00    +0.000 A 
ATOM      5  C   UNL     1      -2.044  12.269  19.475  0.00  0.00    +0.000 A 
ATOM      6  C   UNL     1      -1.337  11.792  20.590  0.00  0.00    +0.000 A 
ENDROOT
BRANCH   3   7
ATOM      7  C   UNL     1      -5.135  13.967  21.143  0.00  0.00    +0.000 C 
ATOM      8  C   UNL     1      -4.802  15.239  22.034  0.00  0.00    +0.000 A 
ATOM      9  C   UNL     1      -3.816  16.093  21.539  0.00  0.00    +0.000 A 
ATOM     10  C   UNL     1      -2.651  16.023  22.254  0.00  0.00    +0.000 A 
ATOM     11  C   UNL     1      -2.606  15.505  23.533  0.00  0.00    +0.000 A 
ATOM     12  C   UNL     1      -3.751  15.153  24.212  0.00  0.00    +0.000 A 
ATOM     13  C   UNL     1      -4.911  15.042  23.441  0.00  0.00    +0.000 A 
ATOM     14  C   UNL     1      -6.188  14.437  23.986  0.00  0.00    +0.000 C 
ATOM     15  C   UNL     1      -6.329  13.110  23.287  0.00  0.00    +0.000 C 
ATOM     16  C   UNL     1      -7.535  12.240  23.500  0.00  0.00    +0.000 C 
ATOM     17  O   UNL     1      -7.438  11.307  22.403  0.00  0.00    +0.000 OA
ATOM     18  C   UNL     1      -6.731  11.881  21.366  0.00  0.00    +0.000 C 
ATOM     19  O   UNL     1      -6.517  11.344  20.296  0.00  0.00    +0.000 OA
ATOM     20  C   UNL     1      -6.364  13.279  21.767  0.00  0.00    +0.000 C 
ATOM     21  O   UNL     1      -1.324  15.232  23.915  0.00  0.00    +0.000 OA
ATOM     22  C   UNL     1      -0.695  15.277  22.613  0.00  0.00    +0.000 C 
ATOM     23  O   UNL     1      -1.402  16.156  21.715  0.00  0.00    +0.000 OA
ENDBRANCH   3   7
BRANCH   1  25
ATOM     24  C   UNL     1      -0.865  10.264  23.225  0.00  0.00    +0.000 C 
ATOM     25  O   UNL     1      -1.083  11.643  22.946  0.00  0.00    +0.000 OA
ENDBRANCH   1  25
BRANCH   5  26
ATOM     26  O   UNL     1      -1.588  12.298  18.181  0.00  0.00    +0.000 OA
ATOM     27  C   UNL     1      -2.115  11.301  17.313  0.00  0.00    +0.000 C 
ENDBRANCH   5  26
BRANCH   6  28
ATOM     28  O   UNL     1       0.017  11.389  20.438  0.00  0.00    +0.000 OA
BRANCH  28  29
ATOM     29  C   UNL     1       1.046  12.335  20.345  0.00  0.00    +0.000 C 
ATOM     30  O   UNL     1       1.674  12.807  21.275  0.00  0.00    +0.000 OA
ATOM     31  N   UNL     1       1.269  12.614  19.024  0.00  0.00    +0.000 N 
ATOM     32  H   UNL     1       0.580  12.195  18.417  0.00  0.00    +0.000 HD
BRANCH  31  33
ATOM     33  C   UNL     1       1.793  13.920  18.587  0.00  0.00    +0.000 C 
ATOM     34  C   UNL     1       0.953  15.086  19.076  0.00  0.00    +0.000 C 
BRANCH  33  35
ATOM     35  C   UNL     1       3.299  14.167  18.846  0.00  0.00    +0.000 C 
ATOM     36  N   UNL     1       4.130  13.869  17.806  0.00  0.00    +0.000 N 
ATOM     37  O   UNL     1       3.741  14.765  19.820  0.00  0.00    +0.000 OA
ATOM     38  H   UNL     1       3.858  13.131  17.176  0.00  0.00    +0.000 HD
ATOM     39  H   UNL     1       5.118  13.961  17.983  0.00  0.00    +0.000 HD
ENDBRANCH  33  35
ENDBRANCH  31  33
ENDBRANCH  28  29
ENDBRANCH   6  28
TORSDOF 7
ENDMDL
MODEL 9
REMARK VINA RESULT:      -6.0      6.337     10.312
REMARK  Name = 
REMARK  10 active torsions:
REMARK  status: ('A' for Active; 'I' for Inactive)
REMARK    1  A    between atoms: C_1  and  O_2
REMARK    2  A    between atoms: O_2  and  C_3
REMARK    3  A    between atoms: C_5  and  C_6
REMARK    4  A    between atoms: C_24  and  O_25
REMARK    5  A    between atoms: O_25  and  C_26
REMARK    6  A    between atoms: C_27  and  O_28
REMARK    7  A    between atoms: O_28  and  C_29
REMARK    8  A    between atoms: N_31  and  C_32
REMARK    9  A    between atoms: C_32  and  C_33
REMARK   10  A    between atoms: C_32  and  C_34
REMARK                            x       y       z     vdW  Elec       q    Type
REMARK                         _______ _______ _______ _____ _____    ______ ____
ROOT
ATOM      1  C   UNL     1      -0.289  10.791  18.705  0.00  0.00    +0.000 A 
ATOM      2  C   UNL     1      -0.707  12.110  18.913  0.00  0.00    +0.000 A 
ATOM      3  C   UNL     1      -0.490  12.815  20.104  0.00  0.00    +0.000 A 
ATOM      4  C   UNL     1       0.274  12.149  21.081  0.00  0.00    +0.000 A 
ATOM      5  C   UNL     1       0.778  10.841  20.879  0.00  0.00    +0.000 A 
ATOM      6  C   UNL     1       0.486  10.161  19.686  0.00  0.00    +0.000 A 
ENDROOT
BRANCH   3   7
ATOM      7  C   UNL     1      -1.180  14.182  20.405  0.00  0.00    +0.000 C 
ATOM      8  C   UNL     1      -0.142  15.375  20.261  0.00  0.00    +0.000 A 
ATOM      9  C   UNL     1       0.469  15.509  19.013  0.00  0.00    +0.000 A 
ATOM     10  C   UNL     1       1.789  15.147  19.032  0.00  0.00    +0.000 A 
ATOM     11  C   UNL     1       2.512  15.075  20.205  0.00  0.00    +0.000 A 
ATOM     12  C   UNL     1       1.985  15.492  21.408  0.00  0.00    +0.000 A 
ATOM     13  C   UNL     1       0.601  15.681  21.437  0.00  0.00    +0.000 A 
ATOM     14  C   UNL     1      -0.157  15.903  22.730  0.00  0.00    +0.000 C 
ATOM     15  C   UNL     1      -0.940  14.635  22.953  0.00  0.00    +0.000 C 
ATOM     16  C   UNL     1      -1.895  14.501  24.104  0.00  0.00    +0.000 C 
ATOM     17  O   UNL     1      -2.668  13.341  23.729  0.00  0.00    +0.000 OA
ATOM     18  C   UNL     1      -2.655  13.199  22.356  0.00  0.00    +0.000 C 
ATOM     19  O   UNL     1      -3.247  12.328  21.746  0.00  0.00    +0.000 OA
ATOM     20  C   UNL     1      -1.868  14.336  21.775  0.00  0.00    +0.000 C 
ATOM     21  O   UNL     1       3.680  14.390  20.031  0.00  0.00    +0.000 OA
ATOM     22  C   UNL     1       3.373  13.757  18.766  0.00  0.00    +0.000 C 
ATOM     23  O   UNL     1       2.441  14.542  17.995  0.00  0.00    +0.000 OA
ENDBRANCH   3   7
BRANCH   1  25
ATOM     24  C   UNL     1      -2.086  10.073  17.295  0.00  0.00    +0.000 C 
ATOM     25  O   UNL     1      -0.702  10.040  17.634  0.00  0.00    +0.000 OA
ENDBRANCH   1  25
BRANCH   5  26
ATOM     26  O   UNL     1       1.405  10.311  21.978  0.00  0.00    +0.000 OA
ATOM     27  C   UNL     1       0.574   9.589  22.880  0.00  0.00    +0.000 C 
ENDBRANCH   5  26
BRANCH   6  28
ATOM     28  O   UNL     1       0.746   8.767  19.596  0.00  0.00    +0.000 OA
BRANCH  28  29
ATOM     29  C   UNL     1       1.829   8.280  18.853  0.00  0.00    +0.000 C 
ATOM     30  O   UNL     1       2.422   8.877  17.972  0.00  0.00    +0.000 OA
ATOM     31  N   UNL     1       2.148   7.031  19.309  0.00  0.00    +0.000 N 
ATOM     32  H   UNL     1       1.477   6.676  19.975  0.00  0.00    +0.000 HD
BRANCH  31  33
ATOM     33  C   UNL     1       2.768   6.021  18.431  0.00  0.00    +0.000 C 
ATOM     34  C   UNL     1       4.240   5.805  18.730  0.00  0.00    +0.000 C 
BRANCH  33  35
ATOM     35  C   UNL     1       2.016   4.673  18.314  0.00  0.00    +0.000 C 
ATOM     36  N   UNL     1       1.896   3.966  19.474  0.00  0.00    +0.000 N 
ATOM     37  O   UNL     1       1.388   4.319  17.323  0.00  0.00    +0.000 OA
ATOM     38  H   UNL     1       2.622   4.061  20.166  0.00  0.00    +0.000 HD
ATOM     39  H   UNL     1       1.468   3.056  19.401  0.00  0.00    +0.000 HD
ENDBRANCH  33  35
ENDBRANCH  31  33
ENDBRANCH  28  29
ENDBRANCH   6  28
TORSDOF 7
ENDMDL
