MODEL 1
REMARK VINA RESULT:      -9.4      0.000      0.000
REMARK  Name = 
REMARK  9 active torsions:
REMARK  status: ('A' for Active; 'I' for Inactive)
REMARK    1  A    between atoms: C_1  and  C_2
REMARK    2  A    between atoms: C_5  and  C_6
REMARK    3  A    between atoms: C_10  and  C_11
REMARK    4  A    between atoms: C_11  and  C_12
REMARK    5  A    between atoms: C_11  and  N_13
REMARK    6  A    between atoms: C_18  and  N_19
REMARK    7  A    between atoms: C_24  and  C_25
REMARK    8  A    between atoms: C_25  and  C_26
REMARK    9  A    between atoms: C_25  and  O_27
REMARK                            x       y       z     vdW  Elec       q    Type
REMARK                         _______ _______ _______ _____ _____    ______ ____
ROOT
ATOM      1  N   UNL     1       1.981   6.525  20.543  0.00  0.00    +0.000 N 
ATOM      2  C   UNL     1       2.703   5.461  20.012  0.00  0.00    +0.000 A 
ATOM      3  N   UNL     1       2.079   4.282  20.069  0.00  0.00    +0.000 NA
ATOM      4  C   UNL     1       2.682   3.241  19.467  0.00  0.00    +0.000 A 
ATOM      5  C   UNL     1       3.848   3.354  18.759  0.00  0.00    +0.000 A 
ATOM      6  C   UNL     1       4.436   4.595  18.786  0.00  0.00    +0.000 A 
ATOM      7  N   UNL     1       3.911   5.640  19.461  0.00  0.00    +0.000 NA
ATOM      8  H   UNL     1       1.032   6.167  20.607  0.00  0.00    +0.000 HD
ENDROOT
BRANCH   6   9
ATOM      9  N   UNL     1       5.680   4.760  18.166  0.00  0.00    +0.000 N 
ATOM     10  C   UNL     1       6.837   4.914  18.897  0.00  0.00    +0.000 C 
ATOM     11  O   UNL     1       6.938   5.158  20.091  0.00  0.00    +0.000 OA
ATOM     12  O   UNL     1       7.922   4.708  18.087  0.00  0.00    +0.000 OA
ATOM     13  C   UNL     1       7.449   4.609  16.740  0.00  0.00    +0.000 C 
ATOM     14  C   UNL     1       5.976   4.248  16.855  0.00  0.00    +0.000 C 
BRANCH  14  15
ATOM     15  C   UNL     1       5.112   4.904  15.753  0.00  0.00    +0.000 C 
ATOM     16  C   UNL     1       5.160   6.424  15.756  0.00  0.00    +0.000 C 
BRANCH  15  17
ATOM     17  O   UNL     1       5.502   4.501  14.437  0.00  0.00    +0.000 OA
ATOM     18  H   UNL     1       6.318   4.975  14.178  0.00  0.00    +0.000 HD
ENDBRANCH  15  17
ENDBRANCH  14  15
ENDBRANCH   6   9
BRANCH   1  19
ATOM     19  C   UNL     1       2.106   7.794  19.830  0.00  0.00    +0.000 C 
ATOM     20  C   UNL     1       1.703   7.585  18.364  0.00  0.00    +0.000 C 
BRANCH  19  25
ATOM     21  C   UNL     1      -0.285  10.891  21.767  0.00  0.00    +0.000 A 
ATOM     22  C   UNL     1       0.098  10.987  20.420  0.00  0.00    +0.000 A 
ATOM     23  C   UNL     1       0.822   9.966  19.800  0.00  0.00    +0.000 A 
ATOM     24  F   UNL     1       1.160  10.123  18.511  0.00  0.00    +0.000 F 
ATOM     25  C   UNL     1       1.217   8.825  20.492  0.00  0.00    +0.000 A 
ATOM     26  C   UNL     1       0.813   8.698  21.827  0.00  0.00    +0.000 A 
ATOM     27  C   UNL     1       0.070   9.706  22.439  0.00  0.00    +0.000 A 
ATOM     28  F   UNL     1      -0.302   9.505  23.713  0.00  0.00    +0.000 F 
BRANCH  21  33
ATOM     29  C   UNL     1      -2.934  15.249  24.457  0.00  0.00    +0.000 C 
ATOM     30  C   UNL     1      -2.308  14.101  23.728  0.00  0.00    +0.000 A 
ATOM     31  C   UNL     1      -2.933  12.863  23.661  0.00  0.00    +0.000 A 
ATOM     32  C   UNL     1      -2.280  11.809  23.019  0.00  0.00    +0.000 A 
ATOM     33  C   UNL     1      -1.013  11.990  22.444  0.00  0.00    +0.000 A 
ATOM     34  C   UNL     1      -0.495  13.283  22.545  0.00  0.00    +0.000 A 
ATOM     35  N   UNL     1      -1.101  14.327  23.167  0.00  0.00    +0.000 NA
ENDBRANCH  21  33
ENDBRANCH  19  25
ENDBRANCH   1  19
TORSDOF 6
ENDMDL
MODEL 2
REMARK VINA RESULT:      -8.9      1.047      1.575
REMARK  Name = 
REMARK  9 active torsions:
REMARK  status: ('A' for Active; 'I' for Inactive)
REMARK    1  A    between atoms: C_1  and  C_2
REMARK    2  A    between atoms: C_5  and  C_6
REMARK    3  A    between atoms: C_10  and  C_11
REMARK    4  A    between atoms: C_11  and  C_12
REMARK    5  A    between atoms: C_11  and  N_13
REMARK    6  A    between atoms: C_18  and  N_19
REMARK    7  A    between atoms: C_24  and  C_25
REMARK    8  A    between atoms: C_25  and  C_26
REMARK    9  A    between atoms: C_25  and  O_27
REMARK                            x       y       z     vdW  Elec       q    Type
REMARK                         _______ _______ _______ _____ _____    ______ ____
ROOT
ATOM      1  N   UNL     1       1.834   6.862  20.389  0.00  0.00    +0.000 N 
ATOM      2  C   UNL     1       2.513   5.752  19.900  0.00  0.00    +0.000 A 
ATOM      3  N   UNL     1       1.822   4.610  19.949  0.00  0.00    +0.000 NA
ATOM      4  C   UNL     1       2.386   3.528  19.384  0.00  0.00    +0.000 A 
ATOM      5  C   UNL     1       3.581   3.564  18.718  0.00  0.00    +0.000 A 
ATOM      6  C   UNL     1       4.237   4.770  18.751  0.00  0.00    +0.000 A 
ATOM      7  N   UNL     1       3.749   5.853  19.392  0.00  0.00    +0.000 NA
ATOM      8  H   UNL     1       0.864   6.559  20.422  0.00  0.00    +0.000 HD
ENDROOT
BRANCH   6   9
ATOM      9  N   UNL     1       5.510   4.855  18.174  0.00  0.00    +0.000 N 
ATOM     10  C   UNL     1       6.647   4.951  18.946  0.00  0.00    +0.000 C 
ATOM     11  O   UNL     1       6.719   5.204  20.140  0.00  0.00    +0.000 OA
ATOM     12  O   UNL     1       7.747   4.673  18.178  0.00  0.00    +0.000 OA
ATOM     13  C   UNL     1       7.317   4.584  16.816  0.00  0.00    +0.000 C 
ATOM     14  C   UNL     1       5.823   4.310  16.881  0.00  0.00    +0.000 C 
BRANCH  14  15
ATOM     15  C   UNL     1       5.039   5.001  15.741  0.00  0.00    +0.000 C 
ATOM     16  C   UNL     1       5.123   6.520  15.767  0.00  0.00    +0.000 C 
BRANCH  15  17
ATOM     17  O   UNL     1       5.492   4.604  14.443  0.00  0.00    +0.000 OA
ATOM     18  H   UNL     1       5.840   5.384  13.966  0.00  0.00    +0.000 HD
ENDBRANCH  15  17
ENDBRANCH  14  15
ENDBRANCH   6   9
BRANCH   1  19
ATOM     19  C   UNL     1       2.057   8.111  19.664  0.00  0.00    +0.000 C 
ATOM     20  C   UNL     1       1.770   7.881  18.173  0.00  0.00    +0.000 C 
BRANCH  19  25
ATOM     21  C   UNL     1      -0.694  11.042  21.367  0.00  0.00    +0.000 A 
ATOM     22  C   UNL     1       0.270  10.390  22.152  0.00  0.00    +0.000 A 
ATOM     23  C   UNL     1       1.175   9.491  21.585  0.00  0.00    +0.000 A 
ATOM     24  F   UNL     1       2.068   8.898  22.392  0.00  0.00    +0.000 F 
ATOM     25  C   UNL     1       1.147   9.181  20.228  0.00  0.00    +0.000 A 
ATOM     26  C   UNL     1       0.215   9.850  19.425  0.00  0.00    +0.000 A 
ATOM     27  C   UNL     1      -0.674  10.767  19.987  0.00  0.00    +0.000 A 
ATOM     28  F   UNL     1      -1.523  11.386  19.153  0.00  0.00    +0.000 F 
BRANCH  21  33
ATOM     29  C   UNL     1      -4.446  14.790  23.631  0.00  0.00    +0.000 C 
ATOM     30  C   UNL     1      -3.519  13.765  23.056  0.00  0.00    +0.000 A 
ATOM     31  C   UNL     1      -3.302  12.551  23.693  0.00  0.00    +0.000 A 
ATOM     32  C   UNL     1      -2.383  11.653  23.146  0.00  0.00    +0.000 A 
ATOM     33  C   UNL     1      -1.686  11.964  21.969  0.00  0.00    +0.000 A 
ATOM     34  C   UNL     1      -2.006  13.199  21.399  0.00  0.00    +0.000 A 
ATOM     35  N   UNL     1      -2.889  14.095  21.909  0.00  0.00    +0.000 NA
ENDBRANCH  21  33
ENDBRANCH  19  25
ENDBRANCH   1  19
TORSDOF 6
ENDMDL
MODEL 3
REMARK VINA RESULT:      -8.5      1.301      1.473
REMARK  Name = 
REMARK  9 active torsions:
REMARK  status: ('A' for Active; 'I' for Inactive)
REMARK    1  A    between atoms: C_1  and  C_2
REMARK    2  A    between atoms: C_5  and  C_6
REMARK    3  A    between atoms: C_10  and  C_11
REMARK    4  A    between atoms: C_11  and  C_12
REMARK    5  A    between atoms: C_11  and  N_13
REMARK    6  A    between atoms: C_18  and  N_19
REMARK    7  A    between atoms: C_24  and  C_25
REMARK    8  A    between atoms: C_25  and  C_26
REMARK    9  A    between atoms: C_25  and  O_27
REMARK                            x       y       z     vdW  Elec       q    Type
REMARK                         _______ _______ _______ _____ _____    ______ ____
ROOT
ATOM      1  N   UNL     1       2.181   7.043  20.263  0.00  0.00    +0.000 N 
ATOM      2  C   UNL     1       2.947   5.904  20.039  0.00  0.00    +0.000 A 
ATOM      3  N   UNL     1       2.417   4.775  20.516  0.00  0.00    +0.000 NA
ATOM      4  C   UNL     1       3.058   3.628  20.228  0.00  0.00    +0.000 A 
ATOM      5  C   UNL     1       4.166   3.567  19.428  0.00  0.00    +0.000 A 
ATOM      6  C   UNL     1       4.661   4.779  19.013  0.00  0.00    +0.000 A 
ATOM      7  N   UNL     1       4.102   5.957  19.363  0.00  0.00    +0.000 NA
ATOM      8  H   UNL     1       1.266   6.676  20.513  0.00  0.00    +0.000 HD
ENDROOT
BRANCH   6   9
ATOM      9  N   UNL     1       5.849   4.800  18.273  0.00  0.00    +0.000 N 
ATOM     10  C   UNL     1       7.081   4.878  18.886  0.00  0.00    +0.000 C 
ATOM     11  O   UNL     1       7.317   5.166  20.051  0.00  0.00    +0.000 OA
ATOM     12  O   UNL     1       8.060   4.536  17.992  0.00  0.00    +0.000 OA
ATOM     13  C   UNL     1       7.453   4.420  16.701  0.00  0.00    +0.000 C 
ATOM     14  C   UNL     1       5.972   4.203  16.970  0.00  0.00    +0.000 C 
BRANCH  14  15
ATOM     15  C   UNL     1       5.067   4.886  15.919  0.00  0.00    +0.000 C 
ATOM     16  C   UNL     1       5.280   6.388  15.804  0.00  0.00    +0.000 C 
BRANCH  15  17
ATOM     17  O   UNL     1       5.262   4.361  14.602  0.00  0.00    +0.000 OA
ATOM     18  H   UNL     1       4.502   3.793  14.360  0.00  0.00    +0.000 HD
ENDBRANCH  15  17
ENDBRANCH  14  15
ENDBRANCH   6   9
BRANCH   1  19
ATOM     19  C   UNL     1       2.168   8.021  19.177  0.00  0.00    +0.000 C 
ATOM     20  C   UNL     1       1.661   7.340  17.898  0.00  0.00    +0.000 C 
BRANCH  19  25
ATOM     21  C   UNL     1      -0.243  11.460  20.368  0.00  0.00    +0.000 A 
ATOM     22  C   UNL     1       0.523  11.466  19.192  0.00  0.00    +0.000 A 
ATOM     23  C   UNL     1       1.252  10.342  18.798  0.00  0.00    +0.000 A 
ATOM     24  F   UNL     1       1.967  10.416  17.666  0.00  0.00    +0.000 F 
ATOM     25  C   UNL     1       1.272   9.178  19.562  0.00  0.00    +0.000 A 
ATOM     26  C   UNL     1       0.485   9.144  20.720  0.00  0.00    +0.000 A 
ATOM     27  C   UNL     1      -0.262  10.259  21.101  0.00  0.00    +0.000 A 
ATOM     28  F   UNL     1      -1.010  10.145  22.209  0.00  0.00    +0.000 F 
BRANCH  21  33
ATOM     29  C   UNL     1      -3.261  16.110  21.957  0.00  0.00    +0.000 C 
ATOM     30  C   UNL     1      -2.441  14.907  21.605  0.00  0.00    +0.000 A 
ATOM     31  C   UNL     1      -1.066  14.893  21.792  0.00  0.00    +0.000 A 
ATOM     32  C   UNL     1      -0.340  13.769  21.394  0.00  0.00    +0.000 A 
ATOM     33  C   UNL     1      -0.982  12.664  20.815  0.00  0.00    +0.000 A 
ATOM     34  C   UNL     1      -2.370  12.777  20.704  0.00  0.00    +0.000 A 
ATOM     35  N   UNL     1      -3.104  13.857  21.076  0.00  0.00    +0.000 NA
ENDBRANCH  21  33
ENDBRANCH  19  25
ENDBRANCH   1  19
TORSDOF 6
ENDMDL
MODEL 4
REMARK VINA RESULT:      -8.5      1.332      1.915
REMARK  Name = 
REMARK  9 active torsions:
REMARK  status: ('A' for Active; 'I' for Inactive)
REMARK    1  A    between atoms: C_1  and  C_2
REMARK    2  A    between atoms: C_5  and  C_6
REMARK    3  A    between atoms: C_10  and  C_11
REMARK    4  A    between atoms: C_11  and  C_12
REMARK    5  A    between atoms: C_11  and  N_13
REMARK    6  A    between atoms: C_18  and  N_19
REMARK    7  A    between atoms: C_24  and  C_25
REMARK    8  A    between atoms: C_25  and  C_26
REMARK    9  A    between atoms: C_25  and  O_27
REMARK                            x       y       z     vdW  Elec       q    Type
REMARK                         _______ _______ _______ _____ _____    ______ ____
ROOT
ATOM      1  N   UNL     1       2.079   6.968  20.216  0.00  0.00    +0.000 N 
ATOM      2  C   UNL     1       2.795   5.822  19.887  0.00  0.00    +0.000 A 
ATOM      3  N   UNL     1       2.173   4.675  20.172  0.00  0.00    +0.000 NA
ATOM      4  C   UNL     1       2.770   3.539  19.770  0.00  0.00    +0.000 A 
ATOM      5  C   UNL     1       3.927   3.515  19.041  0.00  0.00    +0.000 A 
ATOM      6  C   UNL     1       4.514   4.738  18.827  0.00  0.00    +0.000 A 
ATOM      7  N   UNL     1       3.997   5.892  19.299  0.00  0.00    +0.000 NA
ATOM      8  H   UNL     1       1.130   6.629  20.357  0.00  0.00    +0.000 HD
ENDROOT
BRANCH   6   9
ATOM      9  N   UNL     1       5.751   4.781  18.173  0.00  0.00    +0.000 N 
ATOM     10  C   UNL     1       6.935   4.884  18.871  0.00  0.00    +0.000 C 
ATOM     11  O   UNL     1       7.082   5.177  20.049  0.00  0.00    +0.000 OA
ATOM     12  O   UNL     1       7.981   4.561  18.049  0.00  0.00    +0.000 OA
ATOM     13  C   UNL     1       7.469   4.431  16.719  0.00  0.00    +0.000 C 
ATOM     14  C   UNL     1       5.977   4.186  16.883  0.00  0.00    +0.000 C 
BRANCH  14  15
ATOM     15  C   UNL     1       5.135   4.849  15.769  0.00  0.00    +0.000 C 
ATOM     16  C   UNL     1       5.210   6.369  15.761  0.00  0.00    +0.000 C 
BRANCH  15  17
ATOM     17  O   UNL     1       5.530   4.430  14.459  0.00  0.00    +0.000 OA
ATOM     18  H   UNL     1       5.316   3.483  14.340  0.00  0.00    +0.000 HD
ENDBRANCH  15  17
ENDBRANCH  14  15
ENDBRANCH   6   9
BRANCH   1  19
ATOM     19  C   UNL     1       2.195   8.079  19.276  0.00  0.00    +0.000 C 
ATOM     20  C   UNL     1       1.823   7.586  17.871  0.00  0.00    +0.000 C 
BRANCH  19  25
ATOM     21  C   UNL     1      -0.624  11.174  20.513  0.00  0.00    +0.000 A 
ATOM     22  C   UNL     1      -0.195  10.170  21.395  0.00  0.00    +0.000 A 
ATOM     23  C   UNL     1       0.744   9.215  21.001  0.00  0.00    +0.000 A 
ATOM     24  F   UNL     1       1.107   8.280  21.892  0.00  0.00    +0.000 F 
ATOM     25  C   UNL     1       1.276   9.199  19.714  0.00  0.00    +0.000 A 
ATOM     26  C   UNL     1       0.884  10.215  18.833  0.00  0.00    +0.000 A 
ATOM     27  C   UNL     1      -0.036  11.183  19.235  0.00  0.00    +0.000 A 
ATOM     28  F   UNL     1      -0.346  12.139  18.345  0.00  0.00    +0.000 F 
BRANCH  21  33
ATOM     29  C   UNL     1      -4.573  14.997  22.259  0.00  0.00    +0.000 C 
ATOM     30  C   UNL     1      -3.557  14.028  21.739  0.00  0.00    +0.000 A 
ATOM     31  C   UNL     1      -3.797  13.276  20.597  0.00  0.00    +0.000 A 
ATOM     32  C   UNL     1      -2.843  12.343  20.187  0.00  0.00    +0.000 A 
ATOM     33  C   UNL     1      -1.654  12.164  20.910  0.00  0.00    +0.000 A 
ATOM     34  C   UNL     1      -1.506  12.995  22.024  0.00  0.00    +0.000 A 
ATOM     35  N   UNL     1      -2.417  13.906  22.451  0.00  0.00    +0.000 NA
ENDBRANCH  21  33
ENDBRANCH  19  25
ENDBRANCH   1  19
TORSDOF 6
ENDMDL
MODEL 5
REMARK VINA RESULT:      -8.5      1.915      2.439
REMARK  Name = 
REMARK  9 active torsions:
REMARK  status: ('A' for Active; 'I' for Inactive)
REMARK    1  A    between atoms: C_1  and  C_2
REMARK    2  A    between atoms: C_5  and  C_6
REMARK    3  A    between atoms: C_10  and  C_11
REMARK    4  A    between atoms: C_11  and  C_12
REMARK    5  A    between atoms: C_11  and  N_13
REMARK    6  A    between atoms: C_18  and  N_19
REMARK    7  A    between atoms: C_24  and  C_25
REMARK    8  A    between atoms: C_25  and  C_26
REMARK    9  A    between atoms: C_25  and  O_27
REMARK                            x       y       z     vdW  Elec       q    Type
REMARK                         _______ _______ _______ _____ _____    ______ ____
ROOT
ATOM      1  N   UNL     1       1.986   7.279  20.087  0.00  0.00    +0.000 N 
ATOM      2  C   UNL     1       2.664   6.103  19.781  0.00  0.00    +0.000 A 
ATOM      3  N   UNL     1       1.988   4.984  20.053  0.00  0.00    +0.000 NA
ATOM      4  C   UNL     1       2.548   3.823  19.671  0.00  0.00    +0.000 A 
ATOM      5  C   UNL     1       3.723   3.748  18.973  0.00  0.00    +0.000 A 
ATOM      6  C   UNL     1       4.365   4.945  18.772  0.00  0.00    +0.000 A 
ATOM      7  N   UNL     1       3.883   6.121  19.226  0.00  0.00    +0.000 NA
ATOM      8  H   UNL     1       1.021   6.980  20.202  0.00  0.00    +0.000 HD
ENDROOT
BRANCH   6   9
ATOM      9  N   UNL     1       5.621   4.935  18.152  0.00  0.00    +0.000 N 
ATOM     10  C   UNL     1       6.787   5.015  18.881  0.00  0.00    +0.000 C 
ATOM     11  O   UNL     1       6.912   5.327  20.056  0.00  0.00    +0.000 OA
ATOM     12  O   UNL     1       7.845   4.641  18.095  0.00  0.00    +0.000 OA
ATOM     13  C   UNL     1       7.365   4.500  16.754  0.00  0.00    +0.000 C 
ATOM     14  C   UNL     1       5.862   4.306  16.881  0.00  0.00    +0.000 C 
BRANCH  14  15
ATOM     15  C   UNL     1       5.073   4.973  15.731  0.00  0.00    +0.000 C 
ATOM     16  C   UNL     1       5.215   6.488  15.683  0.00  0.00    +0.000 C 
BRANCH  15  17
ATOM     17  O   UNL     1       5.476   4.500  14.442  0.00  0.00    +0.000 OA
ATOM     18  H   UNL     1       6.174   3.822  14.546  0.00  0.00    +0.000 HD
ENDBRANCH  15  17
ENDBRANCH  14  15
ENDBRANCH   6   9
BRANCH   1  19
ATOM     19  C   UNL     1       2.174   8.381  19.147  0.00  0.00    +0.000 C 
ATOM     20  C   UNL     1       2.110   7.831  17.714  0.00  0.00    +0.000 C 
BRANCH  19  25
ATOM     21  C   UNL     1      -1.067  11.212  19.877  0.00  0.00    +0.000 A 
ATOM     22  C   UNL     1      -0.227  10.769  20.910  0.00  0.00    +0.000 A 
ATOM     23  C   UNL     1       0.836   9.901  20.654  0.00  0.00    +0.000 A 
ATOM     24  F   UNL     1       1.599   9.512  21.687  0.00  0.00    +0.000 F 
ATOM     25  C   UNL     1       1.094   9.417  19.374  0.00  0.00    +0.000 A 
ATOM     26  C   UNL     1       0.286   9.877  18.327  0.00  0.00    +0.000 A 
ATOM     27  C   UNL     1      -0.761  10.763  18.579  0.00  0.00    +0.000 A 
ATOM     28  F   UNL     1      -1.478  11.179  17.524  0.00  0.00    +0.000 F 
BRANCH  21  33
ATOM     29  C   UNL     1      -5.626  14.638  20.731  0.00  0.00    +0.000 C 
ATOM     30  C   UNL     1      -4.436  13.744  20.580  0.00  0.00    +0.000 A 
ATOM     31  C   UNL     1      -3.290  13.934  21.341  0.00  0.00    +0.000 A 
ATOM     32  C   UNL     1      -2.186  13.109  21.120  0.00  0.00    +0.000 A 
ATOM     33  C   UNL     1      -2.225  12.098  20.149  0.00  0.00    +0.000 A 
ATOM     34  C   UNL     1      -3.437  11.979  19.466  0.00  0.00    +0.000 A 
ATOM     35  N   UNL     1      -4.526  12.768  19.652  0.00  0.00    +0.000 NA
ENDBRANCH  21  33
ENDBRANCH  19  25
ENDBRANCH   1  19
TORSDOF 6
ENDMDL
MODEL 6
REMARK VINA RESULT:      -8.4      4.574     10.046
REMARK  Name = 
REMARK  9 active torsions:
REMARK  status: ('A' for Active; 'I' for Inactive)
REMARK    1  A    between atoms: C_1  and  C_2
REMARK    2  A    between atoms: C_5  and  C_6
REMARK    3  A    between atoms: C_10  and  C_11
REMARK    4  A    between atoms: C_11  and  C_12
REMARK    5  A    between atoms: C_11  and  N_13
REMARK    6  A    between atoms: C_18  and  N_19
REMARK    7  A    between atoms: C_24  and  C_25
REMARK    8  A    between atoms: C_25  and  C_26
REMARK    9  A    between atoms: C_25  and  O_27
REMARK                            x       y       z     vdW  Elec       q    Type
REMARK                         _______ _______ _______ _____ _____    ______ ____
ROOT
ATOM      1  N   UNL     1      -0.698  10.110  19.710  0.00  0.00    +0.000 N 
ATOM      2  C   UNL     1      -1.108  11.423  19.921  0.00  0.00    +0.000 A 
ATOM      3  N   UNL     1      -2.416  11.631  19.751  0.00  0.00    +0.000 NA
ATOM      4  C   UNL     1      -2.885  12.855  20.054  0.00  0.00    +0.000 A 
ATOM      5  C   UNL     1      -2.106  13.850  20.579  0.00  0.00    +0.000 A 
ATOM      6  C   UNL     1      -0.768  13.557  20.685  0.00  0.00    +0.000 A 
ATOM      7  N   UNL     1      -0.244  12.374  20.299  0.00  0.00    +0.000 NA
ATOM      8  H   UNL     1      -1.565   9.578  19.732  0.00  0.00    +0.000 HD
ENDROOT
BRANCH   6   9
ATOM      9  N   UNL     1       0.104  14.561  21.122  0.00  0.00    +0.000 N 
ATOM     10  C   UNL     1       0.263  14.846  22.461  0.00  0.00    +0.000 C 
ATOM     11  O   UNL     1      -0.442  14.480  23.390  0.00  0.00    +0.000 OA
ATOM     12  O   UNL     1       1.395  15.598  22.638  0.00  0.00    +0.000 OA
ATOM     13  C   UNL     1       1.876  15.975  21.343  0.00  0.00    +0.000 C 
ATOM     14  C   UNL     1       1.264  14.972  20.378  0.00  0.00    +0.000 C 
BRANCH  14  15
ATOM     15  C   UNL     1       0.899  15.601  19.013  0.00  0.00    +0.000 C 
ATOM     16  C   UNL     1       0.003  16.826  19.119  0.00  0.00    +0.000 C 
BRANCH  15  17
ATOM     17  O   UNL     1       2.052  16.020  18.276  0.00  0.00    +0.000 OA
ATOM     18  H   UNL     1       2.162  15.450  17.489  0.00  0.00    +0.000 HD
ENDBRANCH  15  17
ENDBRANCH  14  15
ENDBRANCH   6   9
BRANCH   1  19
ATOM     19  C   UNL     1       0.341   9.619  20.611  0.00  0.00    +0.000 C 
ATOM     20  C   UNL     1      -0.314   8.781  21.719  0.00  0.00    +0.000 C 
BRANCH  19  25
ATOM     21  C   UNL     1       3.031   7.151  18.218  0.00  0.00    +0.000 A 
ATOM     22  C   UNL     1       2.563   8.392  17.760  0.00  0.00    +0.000 A 
ATOM     23  C   UNL     1       1.742   9.193  18.555  0.00  0.00    +0.000 A 
ATOM     24  F   UNL     1       1.327  10.367  18.056  0.00  0.00    +0.000 F 
ATOM     25  C   UNL     1       1.331   8.789  19.822  0.00  0.00    +0.000 A 
ATOM     26  C   UNL     1       1.816   7.568  20.308  0.00  0.00    +0.000 A 
ATOM     27  C   UNL     1       2.656   6.779  19.522  0.00  0.00    +0.000 A 
ATOM     28  F   UNL     1       3.102   5.634  20.062  0.00  0.00    +0.000 F 
BRANCH  21  33
ATOM     29  C   UNL     1       6.289   3.900  14.743  0.00  0.00    +0.000 C 
ATOM     30  C   UNL     1       5.455   4.697  15.697  0.00  0.00    +0.000 A 
ATOM     31  C   UNL     1       4.523   4.085  16.524  0.00  0.00    +0.000 A 
ATOM     32  C   UNL     1       3.729   4.879  17.354  0.00  0.00    +0.000 A 
ATOM     33  C   UNL     1       3.865   6.275  17.361  0.00  0.00    +0.000 A 
ATOM     34  C   UNL     1       4.854   6.778  16.511  0.00  0.00    +0.000 A 
ATOM     35  N   UNL     1       5.638   6.034  15.689  0.00  0.00    +0.000 NA
ENDBRANCH  21  33
ENDBRANCH  19  25
ENDBRANCH   1  19
TORSDOF 6
ENDMDL
MODEL 7
REMARK VINA RESULT:      -8.4      4.931     10.688
REMARK  Name = 
REMARK  9 active torsions:
REMARK  status: ('A' for Active; 'I' for Inactive)
REMARK    1  A    between atoms: C_1  and  C_2
REMARK    2  A    between atoms: C_5  and  C_6
REMARK    3  A    between atoms: C_10  and  C_11
REMARK    4  A    between atoms: C_11  and  C_12
REMARK    5  A    between atoms: C_11  and  N_13
REMARK    6  A    between atoms: C_18  and  N_19
REMARK    7  A    between atoms: C_24  and  C_25
REMARK    8  A    between atoms: C_25  and  C_26
REMARK    9  A    between atoms: C_25  and  O_27
REMARK                            x       y       z     vdW  Elec       q    Type
REMARK                         _______ _______ _______ _____ _____    ______ ____
ROOT
ATOM      1  N   UNL     1       0.562  12.151  21.271  0.00  0.00    +0.000 N 
ATOM      2  C   UNL     1      -0.384  12.902  21.960  0.00  0.00    +0.000 A 
ATOM      3  N   UNL     1       0.097  14.003  22.544  0.00  0.00    +0.000 NA
ATOM      4  C   UNL     1      -0.793  14.826  23.126  0.00  0.00    +0.000 A 
ATOM      5  C   UNL     1      -2.146  14.620  23.086  0.00  0.00    +0.000 A 
ATOM      6  C   UNL     1      -2.545  13.446  22.497  0.00  0.00    +0.000 A 
ATOM      7  N   UNL     1      -1.676  12.547  21.989  0.00  0.00    +0.000 NA
ATOM      8  H   UNL     1       1.350  12.785  21.170  0.00  0.00    +0.000 HD
ENDROOT
BRANCH   6   9
ATOM      9  N   UNL     1      -3.908  13.122  22.508  0.00  0.00    +0.000 N 
ATOM     10  C   UNL     1      -4.491  12.485  23.581  0.00  0.00    +0.000 C 
ATOM     11  O   UNL     1      -3.928  11.926  24.512  0.00  0.00    +0.000 OA
ATOM     12  O   UNL     1      -5.853  12.597  23.496  0.00  0.00    +0.000 OA
ATOM     13  C   UNL     1      -6.166  13.159  22.217  0.00  0.00    +0.000 C 
ATOM     14  C   UNL     1      -4.894  13.855  21.760  0.00  0.00    +0.000 C 
BRANCH  14  15
ATOM     15  C   UNL     1      -4.673  13.756  20.233  0.00  0.00    +0.000 C 
ATOM     16  C   UNL     1      -4.948  12.374  19.659  0.00  0.00    +0.000 C 
BRANCH  15  17
ATOM     17  O   UNL     1      -5.505  14.659  19.498  0.00  0.00    +0.000 OA
ATOM     18  H   UNL     1      -6.288  14.895  20.037  0.00  0.00    +0.000 HD
ENDBRANCH  15  17
ENDBRANCH  14  15
ENDBRANCH   6   9
BRANCH   1  19
ATOM     19  C   UNL     1       0.103  11.546  20.023  0.00  0.00    +0.000 C 
ATOM     20  C   UNL     1       0.627  12.377  18.843  0.00  0.00    +0.000 C 
BRANCH  19  25
ATOM     21  C   UNL     1       1.733   7.497  19.926  0.00  0.00    +0.000 A 
ATOM     22  C   UNL     1       0.974   7.963  21.011  0.00  0.00    +0.000 A 
ATOM     23  C   UNL     1       0.418   9.243  21.008  0.00  0.00    +0.000 A 
ATOM     24  F   UNL     1      -0.292   9.627  22.079  0.00  0.00    +0.000 F 
ATOM     25  C   UNL     1       0.611  10.122  19.946  0.00  0.00    +0.000 A 
ATOM     26  C   UNL     1       1.337   9.661  18.840  0.00  0.00    +0.000 A 
ATOM     27  C   UNL     1       1.872   8.372  18.833  0.00  0.00    +0.000 A 
ATOM     28  F   UNL     1       2.534   7.991  17.730  0.00  0.00    +0.000 F 
BRANCH  21  33
ATOM     29  C   UNL     1       4.281   2.326  19.805  0.00  0.00    +0.000 C 
ATOM     30  C   UNL     1       3.603   3.656  19.905  0.00  0.00    +0.000 A 
ATOM     31  C   UNL     1       2.365   3.790  20.518  0.00  0.00    +0.000 A 
ATOM     32  C   UNL     1       1.748   5.042  20.533  0.00  0.00    +0.000 A 
ATOM     33  C   UNL     1       2.364   6.156  19.942  0.00  0.00    +0.000 A 
ATOM     34  C   UNL     1       3.619   5.910  19.381  0.00  0.00    +0.000 A 
ATOM     35  N   UNL     1       4.243   4.705  19.346  0.00  0.00    +0.000 NA
ENDBRANCH  21  33
ENDBRANCH  19  25
ENDBRANCH   1  19
TORSDOF 6
ENDMDL
MODEL 8
REMARK VINA RESULT:      -8.4      5.004      9.914
REMARK  Name = 
REMARK  9 active torsions:
REMARK  status: ('A' for Active; 'I' for Inactive)
REMARK    1  A    between atoms: C_1  and  C_2
REMARK    2  A    between atoms: C_5  and  C_6
REMARK    3  A    between atoms: C_10  and  C_11
REMARK    4  A    between atoms: C_11  and  C_12
REMARK    5  A    between atoms: C_11  and  N_13
REMARK    6  A    between atoms: C_18  and  N_19
REMARK    7  A    between atoms: C_24  and  C_25
REMARK    8  A    between atoms: C_25  and  C_26
REMARK    9  A    between atoms: C_25  and  O_27
REMARK                            x       y       z     vdW  Elec       q    Type
REMARK                         _______ _______ _______ _____ _____    ______ ____
ROOT
ATOM      1  N   UNL     1       0.259  11.558  20.585  0.00  0.00    +0.000 N 
ATOM      2  C   UNL     1      -1.051  12.022  20.643  0.00  0.00    +0.000 A 
ATOM      3  N   UNL     1      -1.267  12.964  21.565  0.00  0.00    +0.000 NA
ATOM      4  C   UNL     1      -2.487  13.529  21.587  0.00  0.00    +0.000 A 
ATOM      5  C   UNL     1      -3.469  13.234  20.682  0.00  0.00    +0.000 A 
ATOM      6  C   UNL     1      -3.170  12.228  19.796  0.00  0.00    +0.000 A 
ATOM      7  N   UNL     1      -1.992  11.569  19.805  0.00  0.00    +0.000 NA
ATOM      8  H   UNL     1       0.789  12.258  21.099  0.00  0.00    +0.000 HD
ENDROOT
BRANCH   6   9
ATOM      9  N   UNL     1      -4.163  11.805  18.904  0.00  0.00    +0.000 N 
ATOM     10  C   UNL     1      -5.485  11.719  19.283  0.00  0.00    +0.000 C 
ATOM     11  O   UNL     1      -5.940  11.756  20.418  0.00  0.00    +0.000 OA
ATOM     12  O   UNL     1      -6.276  11.625  18.168  0.00  0.00    +0.000 OA
ATOM     13  C   UNL     1      -5.417  11.447  17.037  0.00  0.00    +0.000 C 
ATOM     14  C   UNL     1      -4.057  11.962  17.479  0.00  0.00    +0.000 C 
BRANCH  14  15
ATOM     15  C   UNL     1      -2.886  11.149  16.879  0.00  0.00    +0.000 C 
ATOM     16  C   UNL     1      -3.179  10.570  15.503  0.00  0.00    +0.000 C 
BRANCH  15  17
ATOM     17  O   UNL     1      -1.695  11.929  16.731  0.00  0.00    +0.000 OA
ATOM     18  H   UNL     1      -1.238  11.995  17.594  0.00  0.00    +0.000 HD
ENDBRANCH  15  17
ENDBRANCH  14  15
ENDBRANCH   6   9
BRANCH   1  19
ATOM     19  C   UNL     1       0.770  11.269  19.247  0.00  0.00    +0.000 C 
ATOM     20  C   UNL     1       1.877  12.278  18.907  0.00  0.00    +0.000 C 
BRANCH  19  25
ATOM     21  C   UNL     1       2.138   7.129  19.034  0.00  0.00    +0.000 A 
ATOM     22  C   UNL     1       2.339   8.029  17.976  0.00  0.00    +0.000 A 
ATOM     23  C   UNL     1       1.940   9.363  18.077  0.00  0.00    +0.000 A 
ATOM     24  F   UNL     1       2.158  10.170  17.027  0.00  0.00    +0.000 F 
ATOM     25  C   UNL     1       1.304   9.853  19.214  0.00  0.00    +0.000 A 
ATOM     26  C   UNL     1       1.127   8.977  20.292  0.00  0.00    +0.000 A 
ATOM     27  C   UNL     1       1.548   7.650  20.201  0.00  0.00    +0.000 A 
ATOM     28  F   UNL     1       1.367   6.875  21.281  0.00  0.00    +0.000 F 
BRANCH  21  33
ATOM     29  C   UNL     1       3.821   1.632  18.589  0.00  0.00    +0.000 C 
ATOM     30  C   UNL     1       3.318   3.036  18.718  0.00  0.00    +0.000 A 
ATOM     31  C   UNL     1       2.134   3.436  18.112  0.00  0.00    +0.000 A 
ATOM     32  C   UNL     1       1.739   4.771  18.213  0.00  0.00    +0.000 A 
ATOM     33  C   UNL     1       2.518   5.701  18.917  0.00  0.00    +0.000 A 
ATOM     34  C   UNL     1       3.672   5.181  19.510  0.00  0.00    +0.000 A 
ATOM     35  N   UNL     1       4.086   3.891  19.425  0.00  0.00    +0.000 NA
ENDBRANCH  21  33
ENDBRANCH  19  25
ENDBRANCH   1  19
TORSDOF 6
ENDMDL
MODEL 9
REMARK VINA RESULT:      -8.2      4.855     11.042
REMARK  Name = 
REMARK  9 active torsions:
REMARK  status: ('A' for Active; 'I' for Inactive)
REMARK    1  A    between atoms: C_1  and  C_2
REMARK    2  A    between atoms: C_5  and  C_6
REMARK    3  A    between atoms: C_10  and  C_11
REMARK    4  A    between atoms: C_11  and  C_12
REMARK    5  A    between atoms: C_11  and  N_13
REMARK    6  A    between atoms: C_18  and  N_19
REMARK    7  A    between atoms: C_24  and  C_25
REMARK    8  A    between atoms: C_25  and  C_26
REMARK    9  A    between atoms: C_25  and  O_27
REMARK                            x       y       z     vdW  Elec       q    Type
REMARK                         _______ _______ _______ _____ _____    ______ ____
ROOT
ATOM      1  N   UNL     1       0.641  11.470  20.767  0.00  0.00    +0.000 N 
ATOM      2  C   UNL     1      -0.197  12.551  21.019  0.00  0.00    +0.000 A 
ATOM      3  N   UNL     1       0.256  13.723  20.568  0.00  0.00    +0.000 NA
ATOM      4  C   UNL     1      -0.566  14.782  20.681  0.00  0.00    +0.000 A 
ATOM      5  C   UNL     1      -1.842  14.694  21.168  0.00  0.00    +0.000 A 
ATOM      6  C   UNL     1      -2.208  13.458  21.642  0.00  0.00    +0.000 A 
ATOM      7  N   UNL     1      -1.377  12.395  21.635  0.00  0.00    +0.000 NA
ATOM      8  H   UNL     1       1.281  11.818  20.058  0.00  0.00    +0.000 HD
ENDROOT
BRANCH   6   9
ATOM      9  N   UNL     1      -3.464  13.318  22.245  0.00  0.00    +0.000 N 
ATOM     10  C   UNL     1      -4.521  12.730  21.584  0.00  0.00    +0.000 C 
ATOM     11  O   UNL     1      -4.606  12.480  20.390  0.00  0.00    +0.000 OA
ATOM     12  O   UNL     1      -5.501  12.406  22.484  0.00  0.00    +0.000 OA
ATOM     13  C   UNL     1      -5.144  12.981  23.745  0.00  0.00    +0.000 C 
ATOM     14  C   UNL     1      -3.645  13.224  23.668  0.00  0.00    +0.000 C 
BRANCH  14  15
ATOM     15  C   UNL     1      -3.209  14.510  24.407  0.00  0.00    +0.000 C 
ATOM     16  C   UNL     1      -4.043  15.734  24.060  0.00  0.00    +0.000 C 
BRANCH  15  17
ATOM     17  O   UNL     1      -3.280  14.377  25.830  0.00  0.00    +0.000 OA
ATOM     18  H   UNL     1      -2.879  13.526  26.100  0.00  0.00    +0.000 HD
ENDBRANCH  15  17
ENDBRANCH  14  15
ENDBRANCH   6   9
BRANCH   1  19
ATOM     19  C   UNL     1      -0.027  10.217  20.423  0.00  0.00    +0.000 C 
ATOM     20  C   UNL     1      -1.182  10.517  19.456  0.00  0.00    +0.000 C 
BRANCH  19  25
ATOM     21  C   UNL     1       2.705   7.429  18.469  0.00  0.00    +0.000 A 
ATOM     22  C   UNL     1       2.324   8.637  17.863  0.00  0.00    +0.000 A 
ATOM     23  C   UNL     1       1.487   9.542  18.520  0.00  0.00    +0.000 A 
ATOM     24  F   UNL     1       1.157  10.675  17.883  0.00  0.00    +0.000 F 
ATOM     25  C   UNL     1       0.975   9.278  19.788  0.00  0.00    +0.000 A 
ATOM     26  C   UNL     1       1.375   8.094  20.419  0.00  0.00    +0.000 A 
ATOM     27  C   UNL     1       2.230   7.201  19.774  0.00  0.00    +0.000 A 
ATOM     28  F   UNL     1       2.588   6.099  20.450  0.00  0.00    +0.000 F 
BRANCH  21  33
ATOM     29  C   UNL     1       6.076   3.749  15.580  0.00  0.00    +0.000 C 
ATOM     30  C   UNL     1       5.195   4.656  16.382  0.00  0.00    +0.000 A 
ATOM     31  C   UNL     1       4.042   4.185  16.994  0.00  0.00    +0.000 A 
ATOM     32  C   UNL     1       3.224   5.083  17.681  0.00  0.00    +0.000 A 
ATOM     33  C   UNL     1       3.556   6.444  17.760  0.00  0.00    +0.000 A 
ATOM     34  C   UNL     1       4.753   6.799  17.133  0.00  0.00    +0.000 A 
ATOM     35  N   UNL     1       5.567   5.951  16.453  0.00  0.00    +0.000 NA
ENDBRANCH  21  33
ENDBRANCH  19  25
ENDBRANCH   1  19
TORSDOF 6
ENDMDL
