MODEL 1
REMARK VINA RESULT:      -7.8      0.000      0.000
REMARK  Name = 
REMARK  6 active torsions:
REMARK  status: ('A' for Active; 'I' for Inactive)
REMARK    1  A    between atoms: C_5  and  C_6
REMARK    2  A    between atoms: C_8  and  N_9
REMARK    3  A    between atoms: N_10  and  C_11
REMARK    4  A    between atoms: C_14  and  N_15
REMARK    5  A    between atoms: C_22  and  O_23
REMARK    6  A    between atoms: N_24  and  C_25
REMARK                            x       y       z     vdW  Elec       q    Type
REMARK                         _______ _______ _______ _____ _____    ______ ____
ROOT
ATOM      1  C   UNL     1       0.478  10.271  20.170  0.00  0.00    +0.000 A 
ATOM      2  C   UNL     1       1.240   9.584  19.201  0.00  0.00    +0.000 A 
ATOM      3  C   UNL     1       1.813   8.322  19.432  0.00  0.00    +0.000 A 
ATOM      4  C   UNL     1       1.615   7.713  20.676  0.00  0.00    +0.000 A 
ATOM      5  C   UNL     1       0.847   8.338  21.654  0.00  0.00    +0.000 A 
ATOM      6  C   UNL     1       0.294   9.589  21.392  0.00  0.00    +0.000 A 
ENDROOT
BRANCH   1  11
ATOM      7  O   UNL     1      -0.757  14.430  18.277  0.00  0.00    +0.000 OA
ATOM      8  C   UNL     1      -0.497  13.333  18.711  0.00  0.00    +0.000 C 
ATOM      9  C   UNL     1      -1.296  12.030  19.029  0.00  0.00    +0.000 C 
ATOM     10 CL   UNL     1      -1.653  11.042  17.562  0.00  0.00    +0.000 Cl
ATOM     11  C   UNL     1      -0.080  11.738  19.965  0.00  0.00    +0.000 C 
ATOM     12  N   UNL     1       0.657  12.733  19.141  0.00  0.00    +0.000 N 
BRANCH  12  13
ATOM     13  C   UNL     1       1.901  13.308  19.436  0.00  0.00    +0.000 A 
ATOM     14  C   UNL     1       2.296  13.561  20.756  0.00  0.00    +0.000 A 
ATOM     15  C   UNL     1       3.542  14.131  21.032  0.00  0.00    +0.000 A 
ATOM     16  C   UNL     1       4.382  14.487  19.986  0.00  0.00    +0.000 A 
ATOM     17  F   UNL     1       5.571  15.042  20.250  0.00  0.00    +0.000 F 
ATOM     18  C   UNL     1       3.998  14.281  18.669  0.00  0.00    +0.000 A 
ATOM     19  C   UNL     1       2.764  13.684  18.396  0.00  0.00    +0.000 A 
ENDBRANCH  12  13
ENDBRANCH   1  11
BRANCH   3  20
ATOM     20  N   UNL     1       2.646   7.779  18.435  0.00  0.00    +0.000 NA
ATOM     21  N   UNL     1       2.888   6.567  18.617  0.00  0.00    +0.000 NA
BRANCH  21  22
ATOM     22  C   UNL     1       3.762   6.056  17.636  0.00  0.00    +0.000 A 
ATOM     23  C   UNL     1       4.532   6.959  16.892  0.00  0.00    +0.000 A 
ATOM     24  C   UNL     1       5.426   6.513  15.913  0.00  0.00    +0.000 A 
ATOM     25  C   UNL     1       5.559   5.136  15.677  0.00  0.00    +0.000 A 
ATOM     26  C   UNL     1       4.809   4.216  16.415  0.00  0.00    +0.000 A 
ATOM     27  C   UNL     1       3.921   4.679  17.390  0.00  0.00    +0.000 A 
BRANCH  25  28
ATOM     28  N   UNL     1       6.494   4.661  14.647  0.00  0.00    +0.000 N 
ATOM     29  O   UNL     1       6.139   3.707  13.943  0.00  0.00    +0.000 OA
ATOM     30  O   UNL     1       7.583   5.245  14.547  0.00  0.00    +0.000 OA
ENDBRANCH  25  28
ENDBRANCH  21  22
ENDBRANCH   3  20
BRANCH   6  31
ATOM     31  O   UNL     1      -0.443  10.214  22.363  0.00  0.00    +0.000 OA
ATOM     32  H   UNL     1      -0.368   9.713  23.194  0.00  0.00    +0.000 HD
ENDBRANCH   6  31
TORSDOF 6
ENDMDL
MODEL 2
REMARK VINA RESULT:      -7.7      0.254      1.060
REMARK  Name = 
REMARK  6 active torsions:
REMARK  status: ('A' for Active; 'I' for Inactive)
REMARK    1  A    between atoms: C_5  and  C_6
REMARK    2  A    between atoms: C_8  and  N_9
REMARK    3  A    between atoms: N_10  and  C_11
REMARK    4  A    between atoms: C_14  and  N_15
REMARK    5  A    between atoms: C_22  and  O_23
REMARK    6  A    between atoms: N_24  and  C_25
REMARK                            x       y       z     vdW  Elec       q    Type
REMARK                         _______ _______ _______ _____ _____    ______ ____
ROOT
ATOM      1  C   UNL     1       0.439  10.517  20.265  0.00  0.00    +0.000 A 
ATOM      2  C   UNL     1       1.191   9.804  19.307  0.00  0.00    +0.000 A 
ATOM      3  C   UNL     1       1.713   8.522  19.545  0.00  0.00    +0.000 A 
ATOM      4  C   UNL     1       1.471   7.919  20.784  0.00  0.00    +0.000 A 
ATOM      5  C   UNL     1       0.710   8.569  21.750  0.00  0.00    +0.000 A 
ATOM      6  C   UNL     1       0.209   9.841  21.482  0.00  0.00    +0.000 A 
ENDROOT
BRANCH   1  11
ATOM      7  O   UNL     1      -0.654  14.707  18.349  0.00  0.00    +0.000 OA
ATOM      8  C   UNL     1      -0.432  13.603  18.791  0.00  0.00    +0.000 C 
ATOM      9  C   UNL     1      -1.280  12.339  19.135  0.00  0.00    +0.000 C 
ATOM     10 CL   UNL     1      -1.703  11.352  17.685  0.00  0.00    +0.000 Cl
ATOM     11  C   UNL     1      -0.061  12.005  20.054  0.00  0.00    +0.000 C 
ATOM     12  N   UNL     1       0.702  12.960  19.207  0.00  0.00    +0.000 N 
BRANCH  12  13
ATOM     13  C   UNL     1       1.975  13.485  19.475  0.00  0.00    +0.000 A 
ATOM     14  C   UNL     1       2.867  13.802  18.443  0.00  0.00    +0.000 A 
ATOM     15  C   UNL     1       4.131  14.330  18.729  0.00  0.00    +0.000 A 
ATOM     16  C   UNL     1       4.520  14.504  20.049  0.00  0.00    +0.000 A 
ATOM     17  F   UNL     1       5.732  15.000  20.323  0.00  0.00    +0.000 F 
ATOM     18  C   UNL     1       3.667  14.164  21.089  0.00  0.00    +0.000 A 
ATOM     19  C   UNL     1       2.394  13.664  20.802  0.00  0.00    +0.000 A 
ENDBRANCH  12  13
ENDBRANCH   1  11
BRANCH   3  20
ATOM     20  N   UNL     1       2.543   7.951  18.561  0.00  0.00    +0.000 NA
ATOM     21  N   UNL     1       2.794   6.747  18.783  0.00  0.00    +0.000 NA
BRANCH  21  22
ATOM     22  C   UNL     1       3.665   6.208  17.814  0.00  0.00    +0.000 A 
ATOM     23  C   UNL     1       4.537   7.075  17.144  0.00  0.00    +0.000 A 
ATOM     24  C   UNL     1       5.433   6.599  16.180  0.00  0.00    +0.000 A 
ATOM     25  C   UNL     1       5.462   5.228  15.885  0.00  0.00    +0.000 A 
ATOM     26  C   UNL     1       4.608   4.342  16.548  0.00  0.00    +0.000 A 
ATOM     27  C   UNL     1       3.720   4.835  17.509  0.00  0.00    +0.000 A 
BRANCH  25  28
ATOM     28  N   UNL     1       6.398   4.722  14.870  0.00  0.00    +0.000 N 
ATOM     29  O   UNL     1       7.456   5.339  14.703  0.00  0.00    +0.000 OA
ATOM     30  O   UNL     1       6.067   3.705  14.242  0.00  0.00    +0.000 OA
ENDBRANCH  25  28
ENDBRANCH  21  22
ENDBRANCH   3  20
BRANCH   6  31
ATOM     31  O   UNL     1      -0.522  10.490  22.442  0.00  0.00    +0.000 OA
ATOM     32  H   UNL     1      -0.658  11.415  22.170  0.00  0.00    +0.000 HD
ENDBRANCH   6  31
TORSDOF 6
ENDMDL
MODEL 3
REMARK VINA RESULT:      -7.6      0.572      1.179
REMARK  Name = 
REMARK  6 active torsions:
REMARK  status: ('A' for Active; 'I' for Inactive)
REMARK    1  A    between atoms: C_5  and  C_6
REMARK    2  A    between atoms: C_8  and  N_9
REMARK    3  A    between atoms: N_10  and  C_11
REMARK    4  A    between atoms: C_14  and  N_15
REMARK    5  A    between atoms: C_22  and  O_23
REMARK    6  A    between atoms: N_24  and  C_25
REMARK                            x       y       z     vdW  Elec       q    Type
REMARK                         _______ _______ _______ _____ _____    ______ ____
ROOT
ATOM      1  C   UNL     1       0.451   9.719  20.192  0.00  0.00    +0.000 A 
ATOM      2  C   UNL     1       1.282   9.167  19.194  0.00  0.00    +0.000 A 
ATOM      3  C   UNL     1       1.990   7.966  19.366  0.00  0.00    +0.000 A 
ATOM      4  C   UNL     1       1.860   7.279  20.578  0.00  0.00    +0.000 A 
ATOM      5  C   UNL     1       1.030   7.768  21.582  0.00  0.00    +0.000 A 
ATOM      6  C   UNL     1       0.343   8.962  21.379  0.00  0.00    +0.000 A 
ENDROOT
BRANCH   1  11
ATOM      7  O   UNL     1      -1.342  13.748  18.471  0.00  0.00    +0.000 OA
ATOM      8  C   UNL     1      -0.940  12.679  18.866  0.00  0.00    +0.000 C 
ATOM      9  C   UNL     1      -1.578  11.301  19.228  0.00  0.00    +0.000 C 
ATOM     10 CL   UNL     1      -1.958  10.292  17.782  0.00  0.00    +0.000 Cl
ATOM     11  C   UNL     1      -0.264  11.125  20.056  0.00  0.00    +0.000 C 
ATOM     12  N   UNL     1       0.299  12.194  19.189  0.00  0.00    +0.000 N 
BRANCH  12  13
ATOM     13  C   UNL     1       1.501  12.888  19.389  0.00  0.00    +0.000 A 
ATOM     14  C   UNL     1       1.892  13.322  20.662  0.00  0.00    +0.000 A 
ATOM     15  C   UNL     1       3.097  14.009  20.843  0.00  0.00    +0.000 A 
ATOM     16  C   UNL     1       3.894  14.299  19.746  0.00  0.00    +0.000 A 
ATOM     17  F   UNL     1       5.043  14.964  19.918  0.00  0.00    +0.000 F 
ATOM     18  C   UNL     1       3.511  13.912  18.470  0.00  0.00    +0.000 A 
ATOM     19  C   UNL     1       2.321  13.200  18.294  0.00  0.00    +0.000 A 
ENDBRANCH  12  13
ENDBRANCH   1  11
BRANCH   3  20
ATOM     20  N   UNL     1       2.876   7.566  18.348  0.00  0.00    +0.000 NA
ATOM     21  N   UNL     1       3.007   6.325  18.282  0.00  0.00    +0.000 NA
BRANCH  21  22
ATOM     22  C   UNL     1       3.935   5.950  17.290  0.00  0.00    +0.000 A 
ATOM     23  C   UNL     1       4.193   4.587  17.097  0.00  0.00    +0.000 A 
ATOM     24  C   UNL     1       5.096   4.151  16.121  0.00  0.00    +0.000 A 
ATOM     25  C   UNL     1       5.748   5.097  15.317  0.00  0.00    +0.000 A 
ATOM     26  C   UNL     1       5.499   6.462  15.483  0.00  0.00    +0.000 A 
ATOM     27  C   UNL     1       4.593   6.879  16.463  0.00  0.00    +0.000 A 
BRANCH  25  28
ATOM     28  N   UNL     1       6.701   4.647  14.291  0.00  0.00    +0.000 N 
ATOM     29  O   UNL     1       7.740   5.301  14.142  0.00  0.00    +0.000 OA
ATOM     30  O   UNL     1       6.404   3.636  13.636  0.00  0.00    +0.000 OA
ENDBRANCH  25  28
ENDBRANCH  21  22
ENDBRANCH   3  20
BRANCH   6  31
ATOM     31  O   UNL     1      -0.457   9.455  22.376  0.00  0.00    +0.000 OA
ATOM     32  H   UNL     1      -0.592  10.408  22.238  0.00  0.00    +0.000 HD
ENDBRANCH   6  31
TORSDOF 6
ENDMDL
MODEL 4
REMARK VINA RESULT:      -7.6      3.731      4.995
REMARK  Name = 
REMARK  6 active torsions:
REMARK  status: ('A' for Active; 'I' for Inactive)
REMARK    1  A    between atoms: C_5  and  C_6
REMARK    2  A    between atoms: C_8  and  N_9
REMARK    3  A    between atoms: N_10  and  C_11
REMARK    4  A    between atoms: C_14  and  N_15
REMARK    5  A    between atoms: C_22  and  O_23
REMARK    6  A    between atoms: N_24  and  C_25
REMARK                            x       y       z     vdW  Elec       q    Type
REMARK                         _______ _______ _______ _____ _____    ______ ____
ROOT
ATOM      1  C   UNL     1      -0.191  12.276  19.477  0.00  0.00    +0.000 A 
ATOM      2  C   UNL     1       0.798  11.268  19.483  0.00  0.00    +0.000 A 
ATOM      3  C   UNL     1       0.635  10.034  18.834  0.00  0.00    +0.000 A 
ATOM      4  C   UNL     1      -0.557   9.792  18.141  0.00  0.00    +0.000 A 
ATOM      5  C   UNL     1      -1.549  10.766  18.082  0.00  0.00    +0.000 A 
ATOM      6  C   UNL     1      -1.356  11.979  18.738  0.00  0.00    +0.000 A 
ENDROOT
BRANCH   1  11
ATOM      7  O   UNL     1       0.789  15.479  22.823  0.00  0.00    +0.000 OA
ATOM      8  C   UNL     1       0.620  14.653  21.957  0.00  0.00    +0.000 C 
ATOM      9  C   UNL     1       1.319  14.269  20.616  0.00  0.00    +0.000 C 
ATOM     10 CL   UNL     1       2.814  13.287  20.851  0.00  0.00    +0.000 Cl
ATOM     11  C   UNL     1      -0.068  13.626  20.296  0.00  0.00    +0.000 C 
ATOM     12  N   UNL     1      -0.303  13.660  21.764  0.00  0.00    +0.000 N 
BRANCH  12  13
ATOM     13  C   UNL     1      -1.520  13.436  22.423  0.00  0.00    +0.000 A 
ATOM     14  C   UNL     1      -2.481  14.448  22.548  0.00  0.00    +0.000 A 
ATOM     15  C   UNL     1      -3.691  14.206  23.205  0.00  0.00    +0.000 A 
ATOM     16  C   UNL     1      -3.928  12.963  23.773  0.00  0.00    +0.000 A 
ATOM     17  F   UNL     1      -5.083  12.734  24.410  0.00  0.00    +0.000 F 
ATOM     18  C   UNL     1      -2.978  11.956  23.694  0.00  0.00    +0.000 A 
ATOM     19  C   UNL     1      -1.780  12.190  23.012  0.00  0.00    +0.000 A 
ENDBRANCH  12  13
ENDBRANCH   1  11
BRANCH   3  20
ATOM     20  N   UNL     1       1.638   9.060  18.999  0.00  0.00    +0.000 NA
ATOM     21  N   UNL     1       1.883   8.437  17.943  0.00  0.00    +0.000 NA
BRANCH  21  22
ATOM     22  C   UNL     1       2.854   7.434  18.143  0.00  0.00    +0.000 A 
ATOM     23  C   UNL     1       2.714   6.578  19.242  0.00  0.00    +0.000 A 
ATOM     24  C   UNL     1       3.638   5.556  19.486  0.00  0.00    +0.000 A 
ATOM     25  C   UNL     1       4.720   5.384  18.611  0.00  0.00    +0.000 A 
ATOM     26  C   UNL     1       4.875   6.220  17.501  0.00  0.00    +0.000 A 
ATOM     27  C   UNL     1       3.942   7.234  17.272  0.00  0.00    +0.000 A 
BRANCH  25  28
ATOM     28  N   UNL     1       5.698   4.315  18.864  0.00  0.00    +0.000 N 
ATOM     29  O   UNL     1       6.842   4.461  18.416  0.00  0.00    +0.000 OA
ATOM     30  O   UNL     1       5.316   3.329  19.513  0.00  0.00    +0.000 OA
ENDBRANCH  25  28
ENDBRANCH  21  22
ENDBRANCH   3  20
BRANCH   6  31
ATOM     31  O   UNL     1      -2.343  12.929  18.698  0.00  0.00    +0.000 OA
ATOM     32  H   UNL     1      -2.950  12.791  19.445  0.00  0.00    +0.000 HD
ENDBRANCH   6  31
TORSDOF 6
ENDMDL
MODEL 5
REMARK VINA RESULT:      -7.6      3.753      4.972
REMARK  Name = 
REMARK  6 active torsions:
REMARK  status: ('A' for Active; 'I' for Inactive)
REMARK    1  A    between atoms: C_5  and  C_6
REMARK    2  A    between atoms: C_8  and  N_9
REMARK    3  A    between atoms: N_10  and  C_11
REMARK    4  A    between atoms: C_14  and  N_15
REMARK    5  A    between atoms: C_22  and  O_23
REMARK    6  A    between atoms: N_24  and  C_25
REMARK                            x       y       z     vdW  Elec       q    Type
REMARK                         _______ _______ _______ _____ _____    ______ ____
ROOT
ATOM      1  C   UNL     1      -0.196  12.326  19.610  0.00  0.00    +0.000 A 
ATOM      2  C   UNL     1       0.783  11.309  19.596  0.00  0.00    +0.000 A 
ATOM      3  C   UNL     1       0.604  10.084  18.933  0.00  0.00    +0.000 A 
ATOM      4  C   UNL     1      -0.595   9.862  18.248  0.00  0.00    +0.000 A 
ATOM      5  C   UNL     1      -1.579  10.845  18.208  0.00  0.00    +0.000 A 
ATOM      6  C   UNL     1      -1.370  12.048  18.878  0.00  0.00    +0.000 A 
ENDROOT
BRANCH   1  11
ATOM      7  O   UNL     1       0.939  15.503  22.932  0.00  0.00    +0.000 OA
ATOM      8  C   UNL     1       0.729  14.686  22.066  0.00  0.00    +0.000 C 
ATOM      9  C   UNL     1       1.331  14.352  20.665  0.00  0.00    +0.000 C 
ATOM     10 CL   UNL     1       2.874  13.421  20.759  0.00  0.00    +0.000 Cl
ATOM     11  C   UNL     1      -0.055  13.664  20.444  0.00  0.00    +0.000 C 
ATOM     12  N   UNL     1      -0.171  13.664  21.927  0.00  0.00    +0.000 N 
BRANCH  12  13
ATOM     13  C   UNL     1      -1.322  13.384  22.677  0.00  0.00    +0.000 A 
ATOM     14  C   UNL     1      -1.741  12.069  22.912  0.00  0.00    +0.000 A 
ATOM     15  C   UNL     1      -2.889  11.809  23.666  0.00  0.00    +0.000 A 
ATOM     16  C   UNL     1      -3.644  12.865  24.154  0.00  0.00    +0.000 A 
ATOM     17  F   UNL     1      -4.749  12.617  24.869  0.00  0.00    +0.000 F 
ATOM     18  C   UNL     1      -3.270  14.177  23.904  0.00  0.00    +0.000 A 
ATOM     19  C   UNL     1      -2.106  14.435  23.175  0.00  0.00    +0.000 A 
ENDBRANCH  12  13
ENDBRANCH   1  11
BRANCH   3  20
ATOM     20  N   UNL     1       1.600   9.099  19.078  0.00  0.00    +0.000 NA
ATOM     21  N   UNL     1       1.835   8.492  18.012  0.00  0.00    +0.000 NA
BRANCH  21  22
ATOM     22  C   UNL     1       2.798   7.478  18.191  0.00  0.00    +0.000 A 
ATOM     23  C   UNL     1       2.584   6.522  19.192  0.00  0.00    +0.000 A 
ATOM     24  C   UNL     1       3.498   5.485  19.411  0.00  0.00    +0.000 A 
ATOM     25  C   UNL     1       4.645   5.398  18.609  0.00  0.00    +0.000 A 
ATOM     26  C   UNL     1       4.875   6.335  17.596  0.00  0.00    +0.000 A 
ATOM     27  C   UNL     1       3.951   7.363  17.391  0.00  0.00    +0.000 A 
BRANCH  25  28
ATOM     28  N   UNL     1       5.612   4.314  18.835  0.00  0.00    +0.000 N 
ATOM     29  O   UNL     1       5.242   3.343  19.506  0.00  0.00    +0.000 OA
ATOM     30  O   UNL     1       6.742   4.439  18.340  0.00  0.00    +0.000 OA
ENDBRANCH  25  28
ENDBRANCH  21  22
ENDBRANCH   3  20
BRANCH   6  31
ATOM     31  O   UNL     1      -2.348  13.007  18.857  0.00  0.00    +0.000 OA
ATOM     32  H   UNL     1      -2.499  13.290  17.938  0.00  0.00    +0.000 HD
ENDBRANCH   6  31
TORSDOF 6
ENDMDL
MODEL 6
REMARK VINA RESULT:      -7.6      0.351      1.275
REMARK  Name = 
REMARK  6 active torsions:
REMARK  status: ('A' for Active; 'I' for Inactive)
REMARK    1  A    between atoms: C_5  and  C_6
REMARK    2  A    between atoms: C_8  and  N_9
REMARK    3  A    between atoms: N_10  and  C_11
REMARK    4  A    between atoms: C_14  and  N_15
REMARK    5  A    between atoms: C_22  and  O_23
REMARK    6  A    between atoms: N_24  and  C_25
REMARK                            x       y       z     vdW  Elec       q    Type
REMARK                         _______ _______ _______ _____ _____    ______ ____
ROOT
ATOM      1  C   UNL     1       0.405   9.995  20.336  0.00  0.00    +0.000 A 
ATOM      2  C   UNL     1       1.219   9.401  19.347  0.00  0.00    +0.000 A 
ATOM      3  C   UNL     1       1.860   8.164  19.526  0.00  0.00    +0.000 A 
ATOM      4  C   UNL     1       1.679   7.484  20.736  0.00  0.00    +0.000 A 
ATOM      5  C   UNL     1       0.863   8.015  21.730  0.00  0.00    +0.000 A 
ATOM      6  C   UNL     1       0.243   9.245  21.520  0.00  0.00    +0.000 A 
ENDROOT
BRANCH   1  11
ATOM      7  O   UNL     1      -1.205  14.089  18.588  0.00  0.00    +0.000 OA
ATOM      8  C   UNL     1      -0.853  13.006  18.991  0.00  0.00    +0.000 C 
ATOM      9  C   UNL     1      -1.557  11.674  19.398  0.00  0.00    +0.000 C 
ATOM     10 CL   UNL     1      -2.035  10.663  17.981  0.00  0.00    +0.000 Cl
ATOM     11  C   UNL     1      -0.233  11.437  20.192  0.00  0.00    +0.000 C 
ATOM     12  N   UNL     1       0.365  12.457  19.290  0.00  0.00    +0.000 N 
BRANCH  12  13
ATOM     13  C   UNL     1       1.610  13.085  19.443  0.00  0.00    +0.000 A 
ATOM     14  C   UNL     1       2.441  13.338  18.345  0.00  0.00    +0.000 A 
ATOM     15  C   UNL     1       3.677  13.969  18.516  0.00  0.00    +0.000 A 
ATOM     16  C   UNL     1       4.103  14.313  19.791  0.00  0.00    +0.000 A 
ATOM     17  F   UNL     1       5.290  14.909  19.956  0.00  0.00    +0.000 F 
ATOM     18  C   UNL     1       3.313  14.039  20.898  0.00  0.00    +0.000 A 
ATOM     19  C   UNL     1       2.065  13.434  20.723  0.00  0.00    +0.000 A 
ENDBRANCH  12  13
ENDBRANCH   1  11
BRANCH   3  20
ATOM     20  N   UNL     1       2.737   7.719  18.519  0.00  0.00    +0.000 NA
ATOM     21  N   UNL     1       2.930   6.485  18.558  0.00  0.00    +0.000 NA
BRANCH  21  22
ATOM     22  C   UNL     1       3.848   6.068  17.573  0.00  0.00    +0.000 A 
ATOM     23  C   UNL     1       3.974   4.698  17.314  0.00  0.00    +0.000 A 
ATOM     24  C   UNL     1       4.860   4.223  16.341  0.00  0.00    +0.000 A 
ATOM     25  C   UNL     1       5.630   5.138  15.607  0.00  0.00    +0.000 A 
ATOM     26  C   UNL     1       5.514   6.511  15.841  0.00  0.00    +0.000 A 
ATOM     27  C   UNL     1       4.623   6.967  16.816  0.00  0.00    +0.000 A 
BRANCH  25  28
ATOM     28  N   UNL     1       6.567   4.646  14.585  0.00  0.00    +0.000 N 
ATOM     29  O   UNL     1       6.269   3.608  13.981  0.00  0.00    +0.000 OA
ATOM     30  O   UNL     1       7.601   5.302  14.391  0.00  0.00    +0.000 OA
ENDBRANCH  25  28
ENDBRANCH  21  22
ENDBRANCH   3  20
BRANCH   6  31
ATOM     31  O   UNL     1      -0.543   9.778  22.507  0.00  0.00    +0.000 OA
ATOM     32  H   UNL     1      -1.479   9.635  22.284  0.00  0.00    +0.000 HD
ENDBRANCH   6  31
TORSDOF 6
ENDMDL
MODEL 7
REMARK VINA RESULT:      -7.5      6.368      8.095
REMARK  Name = 
REMARK  6 active torsions:
REMARK  status: ('A' for Active; 'I' for Inactive)
REMARK    1  A    between atoms: C_5  and  C_6
REMARK    2  A    between atoms: C_8  and  N_9
REMARK    3  A    between atoms: N_10  and  C_11
REMARK    4  A    between atoms: C_14  and  N_15
REMARK    5  A    between atoms: C_22  and  O_23
REMARK    6  A    between atoms: N_24  and  C_25
REMARK                            x       y       z     vdW  Elec       q    Type
REMARK                         _______ _______ _______ _____ _____    ______ ____
ROOT
ATOM      1  C   UNL     1      -4.743  13.022  22.677  0.00  0.00    +0.000 A 
ATOM      2  C   UNL     1      -4.604  12.655  21.321  0.00  0.00    +0.000 A 
ATOM      3  C   UNL     1      -5.689  12.261  20.521  0.00  0.00    +0.000 A 
ATOM      4  C   UNL     1      -6.968  12.240  21.088  0.00  0.00    +0.000 A 
ATOM      5  C   UNL     1      -7.161  12.622  22.412  0.00  0.00    +0.000 A 
ATOM      6  C   UNL     1      -6.062  13.006  23.178  0.00  0.00    +0.000 A 
ENDROOT
BRANCH   1  11
ATOM      7  O   UNL     1      -0.691  14.757  24.404  0.00  0.00    +0.000 OA
ATOM      8  C   UNL     1      -1.755  14.391  23.961  0.00  0.00    +0.000 C 
ATOM      9  C   UNL     1      -3.248  14.814  24.127  0.00  0.00    +0.000 C 
ATOM     10 CL   UNL     1      -3.683  16.275  23.163  0.00  0.00    +0.000 Cl
ATOM     11  C   UNL     1      -3.518  13.360  23.621  0.00  0.00    +0.000 C 
ATOM     12  N   UNL     1      -2.128  13.400  23.093  0.00  0.00    +0.000 N 
BRANCH  12  13
ATOM     13  C   UNL     1      -1.384  12.314  22.610  0.00  0.00    +0.000 A 
ATOM     14  C   UNL     1      -1.358  11.087  23.285  0.00  0.00    +0.000 A 
ATOM     15  C   UNL     1      -0.614  10.013  22.787  0.00  0.00    +0.000 A 
ATOM     16  C   UNL     1       0.139  10.176  21.633  0.00  0.00    +0.000 A 
ATOM     17  F   UNL     1       0.859   9.151  21.160  0.00  0.00    +0.000 F 
ATOM     18  C   UNL     1       0.159  11.393  20.967  0.00  0.00    +0.000 A 
ATOM     19  C   UNL     1      -0.609  12.456  21.450  0.00  0.00    +0.000 A 
ENDBRANCH  12  13
ENDBRANCH   1  11
BRANCH   3  20
ATOM     20  N   UNL     1      -5.421  11.808  19.215  0.00  0.00    +0.000 NA
ATOM     21  N   UNL     1      -4.243  11.415  19.074  0.00  0.00    +0.000 NA
BRANCH  21  22
ATOM     22  C   UNL     1      -3.982  11.013  17.748  0.00  0.00    +0.000 A 
ATOM     23  C   UNL     1      -4.697  11.626  16.711  0.00  0.00    +0.000 A 
ATOM     24  C   UNL     1      -4.475  11.277  15.374  0.00  0.00    +0.000 A 
ATOM     25  C   UNL     1      -3.515  10.302  15.067  0.00  0.00    +0.000 A 
ATOM     26  C   UNL     1      -2.782   9.684  16.085  0.00  0.00    +0.000 A 
ATOM     27  C   UNL     1      -3.016  10.045  17.414  0.00  0.00    +0.000 A 
BRANCH  25  28
ATOM     28  N   UNL     1      -3.280   9.928  13.665  0.00  0.00    +0.000 N 
ATOM     29  O   UNL     1      -2.124   9.638  13.331  0.00  0.00    +0.000 OA
ATOM     30  O   UNL     1      -4.256   9.926  12.900  0.00  0.00    +0.000 OA
ENDBRANCH  25  28
ENDBRANCH  21  22
ENDBRANCH   3  20
BRANCH   6  31
ATOM     31  O   UNL     1      -6.249  13.361  24.488  0.00  0.00    +0.000 OA
ATOM     32  H   UNL     1      -5.390  13.594  24.882  0.00  0.00    +0.000 HD
ENDBRANCH   6  31
TORSDOF 6
ENDMDL
MODEL 8
REMARK VINA RESULT:      -7.5      1.125      1.239
REMARK  Name = 
REMARK  6 active torsions:
REMARK  status: ('A' for Active; 'I' for Inactive)
REMARK    1  A    between atoms: C_5  and  C_6
REMARK    2  A    between atoms: C_8  and  N_9
REMARK    3  A    between atoms: N_10  and  C_11
REMARK    4  A    between atoms: C_14  and  N_15
REMARK    5  A    between atoms: C_22  and  O_23
REMARK    6  A    between atoms: N_24  and  C_25
REMARK                            x       y       z     vdW  Elec       q    Type
REMARK                         _______ _______ _______ _____ _____    ______ ____
ROOT
ATOM      1  C   UNL     1       0.089  11.127  21.023  0.00  0.00    +0.000 A 
ATOM      2  C   UNL     1       0.754  10.330  20.066  0.00  0.00    +0.000 A 
ATOM      3  C   UNL     1       1.158   9.009  20.319  0.00  0.00    +0.000 A 
ATOM      4  C   UNL     1       0.883   8.452  21.573  0.00  0.00    +0.000 A 
ATOM      5  C   UNL     1       0.204   9.188  22.540  0.00  0.00    +0.000 A 
ATOM      6  C   UNL     1      -0.181  10.496  22.256  0.00  0.00    +0.000 A 
ENDROOT
BRANCH   1  11
ATOM      7  O   UNL     1      -0.761  15.336  19.028  0.00  0.00    +0.000 OA
ATOM      8  C   UNL     1      -0.610  14.232  19.498  0.00  0.00    +0.000 C 
ATOM      9  C   UNL     1      -1.542  13.081  19.988  0.00  0.00    +0.000 C 
ATOM     10 CL   UNL     1      -2.219  12.092  18.639  0.00  0.00    +0.000 Cl
ATOM     11  C   UNL     1      -0.273  12.651  20.792  0.00  0.00    +0.000 C 
ATOM     12  N   UNL     1       0.490  13.486  19.826  0.00  0.00    +0.000 N 
BRANCH  12  13
ATOM     13  C   UNL     1       1.831  13.879  19.937  0.00  0.00    +0.000 A 
ATOM     14  C   UNL     1       2.410  14.166  21.180  0.00  0.00    +0.000 A 
ATOM     15  C   UNL     1       3.750  14.553  21.272  0.00  0.00    +0.000 A 
ATOM     16  C   UNL     1       4.506  14.694  20.116  0.00  0.00    +0.000 A 
ATOM     17  F   UNL     1       5.786  15.073  20.203  0.00  0.00    +0.000 F 
ATOM     18  C   UNL     1       3.945  14.451  18.871  0.00  0.00    +0.000 A 
ATOM     19  C   UNL     1       2.613  14.036  18.783  0.00  0.00    +0.000 A 
ENDBRANCH  12  13
ENDBRANCH   1  11
BRANCH   3  20
ATOM     20  N   UNL     1       1.912   8.345  19.333  0.00  0.00    +0.000 NA
ATOM     21  N   UNL     1       2.271   7.202  19.688  0.00  0.00    +0.000 NA
BRANCH  21  22
ATOM     22  C   UNL     1       3.065   6.575  18.707  0.00  0.00    +0.000 A 
ATOM     23  C   UNL     1       3.716   7.378  17.761  0.00  0.00    +0.000 A 
ATOM     24  C   UNL     1       4.527   6.816  16.769  0.00  0.00    +0.000 A 
ATOM     25  C   UNL     1       4.697   5.424  16.726  0.00  0.00    +0.000 A 
ATOM     26  C   UNL     1       4.066   4.604  17.666  0.00  0.00    +0.000 A 
ATOM     27  C   UNL     1       3.261   5.182  18.651  0.00  0.00    +0.000 A 
BRANCH  25  28
ATOM     28  N   UNL     1       5.545   4.826  15.684  0.00  0.00    +0.000 N 
ATOM     29  O   UNL     1       5.732   3.604  15.724  0.00  0.00    +0.000 OA
ATOM     30  O   UNL     1       6.023   5.586  14.827  0.00  0.00    +0.000 OA
ENDBRANCH  25  28
ENDBRANCH  21  22
ENDBRANCH   3  20
BRANCH   6  31
ATOM     31  O   UNL     1      -0.830  11.228  23.216  0.00  0.00    +0.000 OA
ATOM     32  H   UNL     1      -0.798  12.170  22.976  0.00  0.00    +0.000 HD
ENDBRANCH   6  31
TORSDOF 6
ENDMDL
MODEL 9
REMARK VINA RESULT:      -7.4      1.549      1.943
REMARK  Name = 
REMARK  6 active torsions:
REMARK  status: ('A' for Active; 'I' for Inactive)
REMARK    1  A    between atoms: C_5  and  C_6
REMARK    2  A    between atoms: C_8  and  N_9
REMARK    3  A    between atoms: N_10  and  C_11
REMARK    4  A    between atoms: C_14  and  N_15
REMARK    5  A    between atoms: C_22  and  O_23
REMARK    6  A    between atoms: N_24  and  C_25
REMARK                            x       y       z     vdW  Elec       q    Type
REMARK                         _______ _______ _______ _____ _____    ______ ____
ROOT
ATOM      1  C   UNL     1      -0.166  11.363  21.420  0.00  0.00    +0.000 A 
ATOM      2  C   UNL     1       0.533  10.602  20.458  0.00  0.00    +0.000 A 
ATOM      3  C   UNL     1       0.869   9.252  20.649  0.00  0.00    +0.000 A 
ATOM      4  C   UNL     1       0.487   8.628  21.842  0.00  0.00    +0.000 A 
ATOM      5  C   UNL     1      -0.229   9.328  22.808  0.00  0.00    +0.000 A 
ATOM      6  C   UNL     1      -0.545  10.666  22.587  0.00  0.00    +0.000 A 
ENDROOT
BRANCH   1  11
ATOM      7  O   UNL     1      -1.221  15.629  19.659  0.00  0.00    +0.000 OA
ATOM      8  C   UNL     1      -1.029  14.517  20.091  0.00  0.00    +0.000 C 
ATOM      9  C   UNL     1      -1.865  13.450  20.864  0.00  0.00    +0.000 C 
ATOM     10 CL   UNL     1      -2.990  12.523  19.800  0.00  0.00    +0.000 Cl
ATOM     11  C   UNL     1      -0.454  12.913  21.268  0.00  0.00    +0.000 C 
ATOM     12  N   UNL     1       0.054  13.679  20.099  0.00  0.00    +0.000 N 
BRANCH  12  13
ATOM     13  C   UNL     1       1.395  13.956  19.798  0.00  0.00    +0.000 A 
ATOM     14  C   UNL     1       1.938  13.666  18.540  0.00  0.00    +0.000 A 
ATOM     15  C   UNL     1       3.277  13.953  18.256  0.00  0.00    +0.000 A 
ATOM     16  C   UNL     1       4.087  14.495  19.243  0.00  0.00    +0.000 A 
ATOM     17  F   UNL     1       5.371  14.762  18.975  0.00  0.00    +0.000 F 
ATOM     18  C   UNL     1       3.583  14.758  20.508  0.00  0.00    +0.000 A 
ATOM     19  C   UNL     1       2.237  14.497  20.781  0.00  0.00    +0.000 A 
ENDBRANCH  12  13
ENDBRANCH   1  11
BRANCH   3  20
ATOM     20  N   UNL     1       1.664   8.622  19.674  0.00  0.00    +0.000 NA
ATOM     21  N   UNL     1       1.951   7.443  19.973  0.00  0.00    +0.000 NA
BRANCH  21  22
ATOM     22  C   UNL     1       2.788   6.848  19.007  0.00  0.00    +0.000 A 
ATOM     23  C   UNL     1       3.191   7.616  17.908  0.00  0.00    +0.000 A 
ATOM     24  C   UNL     1       4.030   7.085  16.922  0.00  0.00    +0.000 A 
ATOM     25  C   UNL     1       4.481   5.762  17.042  0.00  0.00    +0.000 A 
ATOM     26  C   UNL     1       4.101   4.980  18.136  0.00  0.00    +0.000 A 
ATOM     27  C   UNL     1       3.263   5.526  19.111  0.00  0.00    +0.000 A 
BRANCH  25  28
ATOM     28  N   UNL     1       5.360   5.196  16.007  0.00  0.00    +0.000 N 
ATOM     29  O   UNL     1       5.535   3.972  16.006  0.00  0.00    +0.000 OA
ATOM     30  O   UNL     1       5.874   5.983  15.198  0.00  0.00    +0.000 OA
ENDBRANCH  25  28
ENDBRANCH  21  22
ENDBRANCH   3  20
BRANCH   6  31
ATOM     31  O   UNL     1      -1.231  11.362  23.548  0.00  0.00    +0.000 OA
ATOM     32  H   UNL     1      -1.535  12.207  23.176  0.00  0.00    +0.000 HD
ENDBRANCH   6  31
TORSDOF 6
ENDMDL
