MODEL 1
REMARK VINA RESULT:      -7.9      0.000      0.000
REMARK  Name = 
REMARK  9 active torsions:
REMARK  status: ('A' for Active; 'I' for Inactive)
REMARK    1  A    between atoms: C_1  and  N_2
REMARK    2  A    between atoms: C_3  and  C_5
REMARK    3  A    between atoms: C_7  and  C_8
REMARK    4  A    between atoms: N_10  and  C_11
REMARK    5  A    between atoms: C_11  and  C_12
REMARK    6  A    between atoms: C_12  and  C_13
REMARK    7  A    between atoms: C_13  and  C_14
REMARK    8  A    between atoms: N_21  and  C_22
REMARK    9  A    between atoms: C_22  and  C_23
REMARK                            x       y       z     vdW  Elec       q    Type
REMARK                         _______ _______ _______ _____ _____    ______ ____
ROOT
ATOM      1  C   UNL     1       2.379   4.953  19.214  0.00  0.00    +0.000 A 
ATOM      2  C   UNL     1       1.805   6.156  19.066  0.00  0.00    +0.000 A 
ATOM      3  C   UNL     1       2.472   7.238  18.388  0.00  0.00    +0.000 A 
ATOM      4  C   UNL     1       3.615   6.980  17.726  0.00  0.00    +0.000 A 
ATOM      5  N   UNL     1       4.244   5.731  17.813  0.00  0.00    +0.000 N 
ATOM      6  C   UNL     1       3.744   4.720  18.647  0.00  0.00    +0.000 A 
ATOM      7  O   UNL     1       4.358   3.687  18.910  0.00  0.00    +0.000 OA
ENDROOT
BRANCH   1  10
ATOM      8  C   UNL     1       1.450   2.537  21.953  0.00  0.00    +0.000 C 
ATOM      9  N   UNL     1       2.116   3.509  21.131  0.00  0.00    +0.000 N 
ATOM     10  C   UNL     1       1.571   3.935  19.949  0.00  0.00    +0.000 C 
ATOM     11  O   UNL     1       0.487   3.543  19.531  0.00  0.00    +0.000 OA
ATOM     12  H   UNL     1       3.062   3.804  21.367  0.00  0.00    +0.000 HD
ENDBRANCH   1  10
BRANCH   3  13
ATOM     13  C   UNL     1       1.905   8.630  18.360  0.00  0.00    +0.000 C 
ATOM     14  O   UNL     1       2.051   9.360  17.382  0.00  0.00    +0.000 OA
ATOM     15  N   UNL     1       1.252   9.018  19.508  0.00  0.00    +0.000 N 
ATOM     16  H   UNL     1       1.148   8.384  20.288  0.00  0.00    +0.000 HD
BRANCH  15  17
ATOM     17  C   UNL     1       0.547  10.278  19.619  0.00  0.00    +0.000 C 
BRANCH  17  18
ATOM     18  C   UNL     1      -0.944  10.132  19.305  0.00  0.00    +0.000 C 
BRANCH  18  19
ATOM     19  C   UNL     1      -1.266  10.248  17.807  0.00  0.00    +0.000 C 
BRANCH  19  20
ATOM     20  C   UNL     1      -2.662   9.688  17.436  0.00  0.00    +0.000 C 
ATOM     21  C   UNL     1      -2.908   9.530  15.925  0.00  0.00    +0.000 C 
ATOM     22  C   UNL     1      -3.227  10.849  15.219  0.00  0.00    +0.000 C 
ATOM     23  C   UNL     1      -4.248  11.695  15.976  0.00  0.00    +0.000 C 
ATOM     24  N   UNL     1      -3.891  11.852  17.386  0.00  0.00    +0.000 NA
ATOM     25  C   UNL     1      -3.786  10.548  18.043  0.00  0.00    +0.000 C 
ATOM     26  H   UNL     1      -4.615  12.401  17.851  0.00  0.00    +0.000 HD
ENDBRANCH  19  20
ENDBRANCH  18  19
ENDBRANCH  17  18
ENDBRANCH  15  17
ENDBRANCH   3  13
BRANCH   5  27
ATOM     27  C   UNL     1       5.485   5.485  17.062  0.00  0.00    +0.000 C 
BRANCH  27  28
ATOM     28  C   UNL     1       6.644   6.320  17.570  0.00  0.00    +0.000 A 
ATOM     29  C   UNL     1       7.446   5.862  18.627  0.00  0.00    +0.000 A 
ATOM     30  C   UNL     1       8.419   6.690  19.195  0.00  0.00    +0.000 A 
ATOM     31  C   UNL     1       8.622   7.974  18.697  0.00  0.00    +0.000 A 
ATOM     32  C   UNL     1       7.884   8.417  17.601  0.00  0.00    +0.000 A 
ATOM     33  C   UNL     1       6.902   7.595  17.038  0.00  0.00    +0.000 A 
ENDBRANCH  27  28
ENDBRANCH   5  27
TORSDOF 8
ENDMDL
MODEL 2
REMARK VINA RESULT:      -7.8      3.578      8.539
REMARK  Name = 
REMARK  9 active torsions:
REMARK  status: ('A' for Active; 'I' for Inactive)
REMARK    1  A    between atoms: C_1  and  N_2
REMARK    2  A    between atoms: C_3  and  C_5
REMARK    3  A    between atoms: C_7  and  C_8
REMARK    4  A    between atoms: N_10  and  C_11
REMARK    5  A    between atoms: C_11  and  C_12
REMARK    6  A    between atoms: C_12  and  C_13
REMARK    7  A    between atoms: C_13  and  C_14
REMARK    8  A    between atoms: N_21  and  C_22
REMARK    9  A    between atoms: C_22  and  C_23
REMARK                            x       y       z     vdW  Elec       q    Type
REMARK                         _______ _______ _______ _____ _____    ______ ____
ROOT
ATOM      1  C   UNL     1       4.258   4.776  18.316  0.00  0.00    +0.000 A 
ATOM      2  C   UNL     1       5.454   5.344  18.112  0.00  0.00    +0.000 A 
ATOM      3  C   UNL     1       5.582   6.685  17.601  0.00  0.00    +0.000 A 
ATOM      4  C   UNL     1       4.478   7.449  17.506  0.00  0.00    +0.000 A 
ATOM      5  N   UNL     1       3.202   6.922  17.742  0.00  0.00    +0.000 N 
ATOM      6  C   UNL     1       3.016   5.559  18.021  0.00  0.00    +0.000 A 
ATOM      7  O   UNL     1       1.916   5.011  18.042  0.00  0.00    +0.000 OA
ENDROOT
BRANCH   1  10
ATOM      8  C   UNL     1       3.460   1.098  18.504  0.00  0.00    +0.000 C 
ATOM      9  N   UNL     1       3.527   2.483  18.129  0.00  0.00    +0.000 N 
ATOM     10  C   UNL     1       4.283   3.377  18.837  0.00  0.00    +0.000 C 
ATOM     11  O   UNL     1       4.962   3.060  19.809  0.00  0.00    +0.000 OA
ATOM     12  H   UNL     1       2.915   2.835  17.394  0.00  0.00    +0.000 HD
ENDBRANCH   1  10
BRANCH   3  13
ATOM     13  C   UNL     1       6.914   7.268  17.219  0.00  0.00    +0.000 C 
ATOM     14  O   UNL     1       7.629   6.731  16.376  0.00  0.00    +0.000 OA
ATOM     15  N   UNL     1       7.270   8.410  17.901  0.00  0.00    +0.000 N 
ATOM     16  H   UNL     1       6.649   8.823  18.583  0.00  0.00    +0.000 HD
BRANCH  15  17
ATOM     17  C   UNL     1       8.461   9.170  17.587  0.00  0.00    +0.000 C 
BRANCH  17  18
ATOM     18  C   UNL     1       8.883  10.081  18.743  0.00  0.00    +0.000 C 
BRANCH  18  19
ATOM     19  C   UNL     1       9.178  11.525  18.305  0.00  0.00    +0.000 C 
BRANCH  19  20
ATOM     20  C   UNL     1      10.625  11.725  17.792  0.00  0.00    +0.000 C 
ATOM     21  C   UNL     1      11.721  11.350  18.804  0.00  0.00    +0.000 C 
ATOM     22  C   UNL     1      11.938  12.408  19.887  0.00  0.00    +0.000 C 
ATOM     23  C   UNL     1      12.005  13.826  19.326  0.00  0.00    +0.000 C 
ATOM     24  N   UNL     1      10.882  14.116  18.434  0.00  0.00    +0.000 NA
ATOM     25  C   UNL     1      10.851  13.173  17.316  0.00  0.00    +0.000 C 
ATOM     26  H   UNL     1      10.988  15.063  18.067  0.00  0.00    +0.000 HD
ENDBRANCH  19  20
ENDBRANCH  18  19
ENDBRANCH  17  18
ENDBRANCH  15  17
ENDBRANCH   3  13
BRANCH   5  27
ATOM     27  C   UNL     1       2.022   7.795  17.642  0.00  0.00    +0.000 C 
BRANCH  27  28
ATOM     28  C   UNL     1       1.701   8.488  18.952  0.00  0.00    +0.000 A 
ATOM     29  C   UNL     1       1.813   7.801  20.171  0.00  0.00    +0.000 A 
ATOM     30  C   UNL     1       1.378   8.387  21.363  0.00  0.00    +0.000 A 
ATOM     31  C   UNL     1       0.851   9.675  21.357  0.00  0.00    +0.000 A 
ATOM     32  C   UNL     1       0.799  10.397  20.166  0.00  0.00    +0.000 A 
ATOM     33  C   UNL     1       1.223   9.809  18.970  0.00  0.00    +0.000 A 
ENDBRANCH  27  28
ENDBRANCH   5  27
TORSDOF 8
ENDMDL
MODEL 3
REMARK VINA RESULT:      -7.8      4.868      9.126
REMARK  Name = 
REMARK  9 active torsions:
REMARK  status: ('A' for Active; 'I' for Inactive)
REMARK    1  A    between atoms: C_1  and  N_2
REMARK    2  A    between atoms: C_3  and  C_5
REMARK    3  A    between atoms: C_7  and  C_8
REMARK    4  A    between atoms: N_10  and  C_11
REMARK    5  A    between atoms: C_11  and  C_12
REMARK    6  A    between atoms: C_12  and  C_13
REMARK    7  A    between atoms: C_13  and  C_14
REMARK    8  A    between atoms: N_21  and  C_22
REMARK    9  A    between atoms: C_22  and  C_23
REMARK                            x       y       z     vdW  Elec       q    Type
REMARK                         _______ _______ _______ _____ _____    ______ ____
ROOT
ATOM      1  C   UNL     1       6.475   4.694  15.470  0.00  0.00    +0.000 A 
ATOM      2  C   UNL     1       7.271   5.442  16.248  0.00  0.00    +0.000 A 
ATOM      3  C   UNL     1       7.007   5.625  17.652  0.00  0.00    +0.000 A 
ATOM      4  C   UNL     1       6.050   4.878  18.233  0.00  0.00    +0.000 A 
ATOM      5  N   UNL     1       5.210   4.050  17.478  0.00  0.00    +0.000 N 
ATOM      6  C   UNL     1       5.286   4.017  16.078  0.00  0.00    +0.000 A 
ATOM      7  O   UNL     1       4.453   3.465  15.362  0.00  0.00    +0.000 OA
ENDROOT
BRANCH   1  10
ATOM      8  C   UNL     1       6.568   3.370  11.943  0.00  0.00    +0.000 C 
ATOM      9  N   UNL     1       6.292   3.577  13.338  0.00  0.00    +0.000 N 
ATOM     10  C   UNL     1       6.868   4.607  14.033  0.00  0.00    +0.000 C 
ATOM     11  O   UNL     1       7.627   5.422  13.517  0.00  0.00    +0.000 OA
ATOM     12  H   UNL     1       5.751   2.884  13.852  0.00  0.00    +0.000 HD
ENDBRANCH   1  10
BRANCH   3  13
ATOM     13  C   UNL     1       7.800   6.588  18.492  0.00  0.00    +0.000 C 
ATOM     14  O   UNL     1       8.207   6.277  19.609  0.00  0.00    +0.000 OA
ATOM     15  N   UNL     1       7.997   7.829  17.930  0.00  0.00    +0.000 N 
ATOM     16  H   UNL     1       7.650   8.042  17.005  0.00  0.00    +0.000 HD
BRANCH  15  17
ATOM     17  C   UNL     1       8.829   8.842  18.542  0.00  0.00    +0.000 C 
BRANCH  17  18
ATOM     18  C   UNL     1       8.319  10.257  18.254  0.00  0.00    +0.000 C 
BRANCH  18  19
ATOM     19  C   UNL     1       9.004  11.338  19.106  0.00  0.00    +0.000 C 
BRANCH  19  20
ATOM     20  C   UNL     1       9.847  12.333  18.269  0.00  0.00    +0.000 C 
ATOM     21  C   UNL     1      11.197  11.777  17.785  0.00  0.00    +0.000 C 
ATOM     22  C   UNL     1      12.271  11.751  18.873  0.00  0.00    +0.000 C 
ATOM     23  C   UNL     1      12.332  13.048  19.677  0.00  0.00    +0.000 C 
ATOM     24  N   UNL     1      11.013  13.457  20.159  0.00  0.00    +0.000 NA
ATOM     25  C   UNL     1      10.088  13.644  19.041  0.00  0.00    +0.000 C 
ATOM     26  H   UNL     1      11.105  14.338  20.665  0.00  0.00    +0.000 HD
ENDBRANCH  19  20
ENDBRANCH  18  19
ENDBRANCH  17  18
ENDBRANCH  15  17
ENDBRANCH   3  13
BRANCH   5  27
ATOM     27  C   UNL     1       4.186   3.239  18.155  0.00  0.00    +0.000 C 
BRANCH  27  28
ATOM     28  C   UNL     1       3.241   4.080  18.992  0.00  0.00    +0.000 A 
ATOM     29  C   UNL     1       2.941   5.401  18.623  0.00  0.00    +0.000 A 
ATOM     30  C   UNL     1       2.191   6.225  19.467  0.00  0.00    +0.000 A 
ATOM     31  C   UNL     1       1.709   5.733  20.677  0.00  0.00    +0.000 A 
ATOM     32  C   UNL     1       1.938   4.403  21.024  0.00  0.00    +0.000 A 
ATOM     33  C   UNL     1       2.697   3.579  20.187  0.00  0.00    +0.000 A 
ENDBRANCH  27  28
ENDBRANCH   5  27
TORSDOF 8
ENDMDL
MODEL 4
REMARK VINA RESULT:      -7.7      4.586      9.023
REMARK  Name = 
REMARK  9 active torsions:
REMARK  status: ('A' for Active; 'I' for Inactive)
REMARK    1  A    between atoms: C_1  and  N_2
REMARK    2  A    between atoms: C_3  and  C_5
REMARK    3  A    between atoms: C_7  and  C_8
REMARK    4  A    between atoms: N_10  and  C_11
REMARK    5  A    between atoms: C_11  and  C_12
REMARK    6  A    between atoms: C_12  and  C_13
REMARK    7  A    between atoms: C_13  and  C_14
REMARK    8  A    between atoms: N_21  and  C_22
REMARK    9  A    between atoms: C_22  and  C_23
REMARK                            x       y       z     vdW  Elec       q    Type
REMARK                         _______ _______ _______ _____ _____    ______ ____
ROOT
ATOM      1  C   UNL     1       6.427   4.853  15.520  0.00  0.00    +0.000 A 
ATOM      2  C   UNL     1       7.290   5.505  16.312  0.00  0.00    +0.000 A 
ATOM      3  C   UNL     1       7.000   5.768  17.698  0.00  0.00    +0.000 A 
ATOM      4  C   UNL     1       5.924   5.182  18.257  0.00  0.00    +0.000 A 
ATOM      5  N   UNL     1       5.005   4.458  17.488  0.00  0.00    +0.000 N 
ATOM      6  C   UNL     1       5.131   4.370  16.093  0.00  0.00    +0.000 A 
ATOM      7  O   UNL     1       4.256   3.919  15.357  0.00  0.00    +0.000 OA
ENDROOT
BRANCH   1  10
ATOM      8  C   UNL     1       6.661   3.253  12.116  0.00  0.00    +0.000 C 
ATOM      9  N   UNL     1       6.342   3.561  13.483  0.00  0.00    +0.000 N 
ATOM     10  C   UNL     1       6.859   4.666  14.104  0.00  0.00    +0.000 C 
ATOM     11  O   UNL     1       7.598   5.468  13.540  0.00  0.00    +0.000 OA
ATOM     12  H   UNL     1       5.816   2.890  14.040  0.00  0.00    +0.000 HD
ENDBRANCH   1  10
BRANCH   3  13
ATOM     13  C   UNL     1       7.888   6.635  18.547  0.00  0.00    +0.000 C 
ATOM     14  O   UNL     1       8.410   6.206  19.573  0.00  0.00    +0.000 OA
ATOM     15  N   UNL     1       8.035   7.930  18.104  0.00  0.00    +0.000 N 
ATOM     16  H   UNL     1       7.593   8.242  17.250  0.00  0.00    +0.000 HD
BRANCH  15  17
ATOM     17  C   UNL     1       8.939   8.873  18.729  0.00  0.00    +0.000 C 
BRANCH  17  18
ATOM     18  C   UNL     1       8.623  10.319  18.336  0.00  0.00    +0.000 C 
BRANCH  18  19
ATOM     19  C   UNL     1       9.868  11.130  17.941  0.00  0.00    +0.000 C 
BRANCH  19  20
ATOM     20  C   UNL     1      10.815  11.417  19.132  0.00  0.00    +0.000 C 
ATOM     21  C   UNL     1      10.100  11.699  20.465  0.00  0.00    +0.000 C 
ATOM     22  C   UNL     1       9.521  13.111  20.559  0.00  0.00    +0.000 C 
ATOM     23  C   UNL     1      10.498  14.185  20.086  0.00  0.00    +0.000 C 
ATOM     24  N   UNL     1      11.069  13.867  18.777  0.00  0.00    +0.000 NA
ATOM     25  C   UNL     1      11.770  12.583  18.815  0.00  0.00    +0.000 C 
ATOM     26  H   UNL     1      11.732  14.599  18.519  0.00  0.00    +0.000 HD
ENDBRANCH  19  20
ENDBRANCH  18  19
ENDBRANCH  17  18
ENDBRANCH  15  17
ENDBRANCH   3  13
BRANCH   5  27
ATOM     27  C   UNL     1       3.851   3.821  18.139  0.00  0.00    +0.000 C 
BRANCH  27  28
ATOM     28  C   UNL     1       2.997   4.814  18.905  0.00  0.00    +0.000 A 
ATOM     29  C   UNL     1       2.948   6.162  18.519  0.00  0.00    +0.000 A 
ATOM     30  C   UNL     1       2.283   7.106  19.307  0.00  0.00    +0.000 A 
ATOM     31  C   UNL     1       1.638   6.712  20.476  0.00  0.00    +0.000 A 
ATOM     32  C   UNL     1       1.618   5.366  20.835  0.00  0.00    +0.000 A 
ATOM     33  C   UNL     1       2.291   4.420  20.055  0.00  0.00    +0.000 A 
ENDBRANCH  27  28
ENDBRANCH   5  27
TORSDOF 8
ENDMDL
MODEL 5
REMARK VINA RESULT:      -7.7      3.191      8.638
REMARK  Name = 
REMARK  9 active torsions:
REMARK  status: ('A' for Active; 'I' for Inactive)
REMARK    1  A    between atoms: C_1  and  N_2
REMARK    2  A    between atoms: C_3  and  C_5
REMARK    3  A    between atoms: C_7  and  C_8
REMARK    4  A    between atoms: N_10  and  C_11
REMARK    5  A    between atoms: C_11  and  C_12
REMARK    6  A    between atoms: C_12  and  C_13
REMARK    7  A    between atoms: C_13  and  C_14
REMARK    8  A    between atoms: N_21  and  C_22
REMARK    9  A    between atoms: C_22  and  C_23
REMARK                            x       y       z     vdW  Elec       q    Type
REMARK                         _______ _______ _______ _____ _____    ______ ____
ROOT
ATOM      1  C   UNL     1      -1.154  10.823  18.078  0.00  0.00    +0.000 A 
ATOM      2  C   UNL     1      -0.327   9.772  17.992  0.00  0.00    +0.000 A 
ATOM      3  C   UNL     1       1.046   9.847  18.422  0.00  0.00    +0.000 A 
ATOM      4  C   UNL     1       1.453  10.938  19.097  0.00  0.00    +0.000 A 
ATOM      5  N   UNL     1       0.622  12.054  19.252  0.00  0.00    +0.000 N 
ATOM      6  C   UNL     1      -0.644  12.109  18.651  0.00  0.00    +0.000 A 
ATOM      7  O   UNL     1      -1.326  13.130  18.589  0.00  0.00    +0.000 OA
ENDROOT
BRANCH   1  10
ATOM      8  C   UNL     1      -4.426  11.587  16.371  0.00  0.00    +0.000 C 
ATOM      9  N   UNL     1      -3.097  11.658  16.914  0.00  0.00    +0.000 N 
ATOM     10  C   UNL     1      -2.544  10.599  17.582  0.00  0.00    +0.000 C 
ATOM     11  O   UNL     1      -3.123   9.529  17.740  0.00  0.00    +0.000 OA
ATOM     12  H   UNL     1      -2.597  12.545  16.906  0.00  0.00    +0.000 HD
ENDBRANCH   1  10
BRANCH   3  13
ATOM     13  C   UNL     1       2.018   8.726  18.180  0.00  0.00    +0.000 C 
ATOM     14  O   UNL     1       2.664   8.653  17.137  0.00  0.00    +0.000 OA
ATOM     15  N   UNL     1       2.098   7.794  19.190  0.00  0.00    +0.000 N 
ATOM     16  H   UNL     1       1.554   7.895  20.036  0.00  0.00    +0.000 HD
BRANCH  15  17
ATOM     17  C   UNL     1       3.059   6.712  19.182  0.00  0.00    +0.000 C 
BRANCH  17  18
ATOM     18  C   UNL     1       2.584   5.527  18.336  0.00  0.00    +0.000 C 
BRANCH  18  19
ATOM     19  C   UNL     1       3.702   4.888  17.497  0.00  0.00    +0.000 C 
BRANCH  19  20
ATOM     20  C   UNL     1       4.919   5.824  17.286  0.00  0.00    +0.000 C 
ATOM     21  C   UNL     1       5.147   6.256  15.827  0.00  0.00    +0.000 C 
ATOM     22  C   UNL     1       5.803   5.176  14.966  0.00  0.00    +0.000 C 
ATOM     23  C   UNL     1       6.989   4.507  15.658  0.00  0.00    +0.000 C 
ATOM     24  N   UNL     1       6.655   4.062  17.010  0.00  0.00    +0.000 NA
ATOM     25  C   UNL     1       6.211   5.189  17.832  0.00  0.00    +0.000 C 
ATOM     26  H   UNL     1       7.485   3.647  17.436  0.00  0.00    +0.000 HD
ENDBRANCH  19  20
ENDBRANCH  18  19
ENDBRANCH  17  18
ENDBRANCH  15  17
ENDBRANCH   3  13
BRANCH   5  27
ATOM     27  C   UNL     1       1.101  13.220  20.010  0.00  0.00    +0.000 C 
BRANCH  27  28
ATOM     28  C   UNL     1       1.745  14.266  19.119  0.00  0.00    +0.000 A 
ATOM     29  C   UNL     1       2.913  13.970  18.399  0.00  0.00    +0.000 A 
ATOM     30  C   UNL     1       3.590  14.972  17.696  0.00  0.00    +0.000 A 
ATOM     31  C   UNL     1       3.096  16.273  17.683  0.00  0.00    +0.000 A 
ATOM     32  C   UNL     1       1.900  16.566  18.334  0.00  0.00    +0.000 A 
ATOM     33  C   UNL     1       1.226  15.570  19.047  0.00  0.00    +0.000 A 
ENDBRANCH  27  28
ENDBRANCH   5  27
TORSDOF 8
ENDMDL
MODEL 6
REMARK VINA RESULT:      -7.7      2.957      9.208
REMARK  Name = 
REMARK  9 active torsions:
REMARK  status: ('A' for Active; 'I' for Inactive)
REMARK    1  A    between atoms: C_1  and  N_2
REMARK    2  A    between atoms: C_3  and  C_5
REMARK    3  A    between atoms: C_7  and  C_8
REMARK    4  A    between atoms: N_10  and  C_11
REMARK    5  A    between atoms: C_11  and  C_12
REMARK    6  A    between atoms: C_12  and  C_13
REMARK    7  A    between atoms: C_13  and  C_14
REMARK    8  A    between atoms: N_21  and  C_22
REMARK    9  A    between atoms: C_22  and  C_23
REMARK                            x       y       z     vdW  Elec       q    Type
REMARK                         _______ _______ _______ _____ _____    ______ ____
ROOT
ATOM      1  C   UNL     1      -1.200  11.076  18.153  0.00  0.00    +0.000 A 
ATOM      2  C   UNL     1      -0.406  10.009  17.986  0.00  0.00    +0.000 A 
ATOM      3  C   UNL     1       0.832   9.862  18.707  0.00  0.00    +0.000 A 
ATOM      4  C   UNL     1       1.104  10.721  19.707  0.00  0.00    +0.000 A 
ATOM      5  N   UNL     1       0.293  11.835  19.954  0.00  0.00    +0.000 N 
ATOM      6  C   UNL     1      -0.799  12.140  19.127  0.00  0.00    +0.000 A 
ATOM      7  O   UNL     1      -1.418  13.201  19.179  0.00  0.00    +0.000 OA
ENDROOT
BRANCH   1  10
ATOM      8  C   UNL     1      -3.372  10.747  15.092  0.00  0.00    +0.000 C 
ATOM      9  N   UNL     1      -2.266  10.779  16.008  0.00  0.00    +0.000 N 
ATOM     10  C   UNL     1      -2.443  11.096  17.328  0.00  0.00    +0.000 C 
ATOM     11  O   UNL     1      -3.541  11.347  17.815  0.00  0.00    +0.000 OA
ATOM     12  H   UNL     1      -1.316  10.677  15.653  0.00  0.00    +0.000 HD
ENDBRANCH   1  10
BRANCH   3  13
ATOM     13  C   UNL     1       1.802   8.753  18.407  0.00  0.00    +0.000 C 
ATOM     14  O   UNL     1       2.420   8.712  17.346  0.00  0.00    +0.000 OA
ATOM     15  N   UNL     1       1.911   7.791  19.387  0.00  0.00    +0.000 N 
ATOM     16  H   UNL     1       1.389   7.865  20.250  0.00  0.00    +0.000 HD
BRANCH  15  17
ATOM     17  C   UNL     1       2.875   6.713  19.322  0.00  0.00    +0.000 C 
BRANCH  17  18
ATOM     18  C   UNL     1       2.385   5.556  18.447  0.00  0.00    +0.000 C 
BRANCH  18  19
ATOM     19  C   UNL     1       3.481   4.966  17.546  0.00  0.00    +0.000 C 
BRANCH  19  20
ATOM     20  C   UNL     1       4.759   5.839  17.485  0.00  0.00    +0.000 C 
ATOM     21  C   UNL     1       5.077   6.413  16.093  0.00  0.00    +0.000 C 
ATOM     22  C   UNL     1       5.704   5.393  15.142  0.00  0.00    +0.000 C 
ATOM     23  C   UNL     1       6.817   4.578  15.797  0.00  0.00    +0.000 C 
ATOM     24  N   UNL     1       6.398   4.010  17.078  0.00  0.00    +0.000 NA
ATOM     25  C   UNL     1       5.986   5.066  18.004  0.00  0.00    +0.000 C 
ATOM     26  H   UNL     1       7.182   3.498  17.486  0.00  0.00    +0.000 HD
ENDBRANCH  19  20
ENDBRANCH  18  19
ENDBRANCH  17  18
ENDBRANCH  15  17
ENDBRANCH   3  13
BRANCH   5  27
ATOM     27  C   UNL     1       0.617  12.742  21.066  0.00  0.00    +0.000 C 
BRANCH  27  28
ATOM     28  C   UNL     1      -0.498  12.825  22.091  0.00  0.00    +0.000 A 
ATOM     29  C   UNL     1      -1.190  11.670  22.489  0.00  0.00    +0.000 A 
ATOM     30  C   UNL     1      -2.313  11.762  23.318  0.00  0.00    +0.000 A 
ATOM     31  C   UNL     1      -2.742  13.003  23.779  0.00  0.00    +0.000 A 
ATOM     32  C   UNL     1      -2.023  14.150  23.451  0.00  0.00    +0.000 A 
ATOM     33  C   UNL     1      -0.906  14.064  22.613  0.00  0.00    +0.000 A 
ENDBRANCH  27  28
ENDBRANCH   5  27
TORSDOF 8
ENDMDL
MODEL 7
REMARK VINA RESULT:      -7.5      3.537      9.687
REMARK  Name = 
REMARK  9 active torsions:
REMARK  status: ('A' for Active; 'I' for Inactive)
REMARK    1  A    between atoms: C_1  and  N_2
REMARK    2  A    between atoms: C_3  and  C_5
REMARK    3  A    between atoms: C_7  and  C_8
REMARK    4  A    between atoms: N_10  and  C_11
REMARK    5  A    between atoms: C_11  and  C_12
REMARK    6  A    between atoms: C_12  and  C_13
REMARK    7  A    between atoms: C_13  and  C_14
REMARK    8  A    between atoms: N_21  and  C_22
REMARK    9  A    between atoms: C_22  and  C_23
REMARK                            x       y       z     vdW  Elec       q    Type
REMARK                         _______ _______ _______ _____ _____    ______ ____
ROOT
ATOM      1  C   UNL     1      -1.393  11.160  19.096  0.00  0.00    +0.000 A 
ATOM      2  C   UNL     1      -0.712  10.035  19.353  0.00  0.00    +0.000 A 
ATOM      3  C   UNL     1       0.246   9.955  20.427  0.00  0.00    +0.000 A 
ATOM      4  C   UNL     1       0.319  10.971  21.306  0.00  0.00    +0.000 A 
ATOM      5  N   UNL     1      -0.397  12.159  21.111  0.00  0.00    +0.000 N 
ATOM      6  C   UNL     1      -1.167  12.365  19.956  0.00  0.00    +0.000 A 
ATOM      7  O   UNL     1      -1.651  13.451  19.644  0.00  0.00    +0.000 OA
ENDROOT
BRANCH   1  10
ATOM      8  C   UNL     1      -4.608  11.612  17.183  0.00  0.00    +0.000 C 
ATOM      9  N   UNL     1      -3.590  11.598  18.196  0.00  0.00    +0.000 N 
ATOM     10  C   UNL     1      -2.341  11.096  17.945  0.00  0.00    +0.000 C 
ATOM     11  O   UNL     1      -2.004  10.654  16.852  0.00  0.00    +0.000 OA
ATOM     12  H   UNL     1      -3.828  11.858  19.152  0.00  0.00    +0.000 HD
ENDBRANCH   1  10
BRANCH   3  13
ATOM     13  C   UNL     1       1.128   8.752  20.619  0.00  0.00    +0.000 C 
ATOM     14  O   UNL     1       1.264   8.228  21.722  0.00  0.00    +0.000 OA
ATOM     15  N   UNL     1       1.780   8.319  19.487  0.00  0.00    +0.000 N 
ATOM     16  H   UNL     1       1.636   8.775  18.596  0.00  0.00    +0.000 HD
BRANCH  15  17
ATOM     17  C   UNL     1       2.580   7.113  19.457  0.00  0.00    +0.000 C 
BRANCH  17  18
ATOM     18  C   UNL     1       2.551   6.438  18.083  0.00  0.00    +0.000 C 
BRANCH  18  19
ATOM     19  C   UNL     1       2.007   5.000  18.121  0.00  0.00    +0.000 C 
BRANCH  19  20
ATOM     20  C   UNL     1       2.963   3.967  17.475  0.00  0.00    +0.000 C 
ATOM     21  C   UNL     1       2.483   2.508  17.564  0.00  0.00    +0.000 C 
ATOM     22  C   UNL     1       2.699   1.877  18.941  0.00  0.00    +0.000 C 
ATOM     23  C   UNL     1       4.088   2.159  19.509  0.00  0.00    +0.000 C 
ATOM     24  N   UNL     1       4.426   3.581  19.452  0.00  0.00    +0.000 NA
ATOM     25  C   UNL     1       4.379   4.069  18.073  0.00  0.00    +0.000 C 
ATOM     26  H   UNL     1       5.370   3.712  19.818  0.00  0.00    +0.000 HD
ENDBRANCH  19  20
ENDBRANCH  18  19
ENDBRANCH  17  18
ENDBRANCH  15  17
ENDBRANCH   3  13
BRANCH   5  27
ATOM     27  C   UNL     1      -0.301  13.240  22.104  0.00  0.00    +0.000 C 
BRANCH  27  28
ATOM     28  C   UNL     1      -1.490  13.271  23.044  0.00  0.00    +0.000 A 
ATOM     29  C   UNL     1      -2.379  12.186  23.109  0.00  0.00    +0.000 A 
ATOM     30  C   UNL     1      -3.554  12.270  23.862  0.00  0.00    +0.000 A 
ATOM     31  C   UNL     1      -3.842  13.427  24.580  0.00  0.00    +0.000 A 
ATOM     32  C   UNL     1      -2.935  14.485  24.584  0.00  0.00    +0.000 A 
ATOM     33  C   UNL     1      -1.764  14.408  23.823  0.00  0.00    +0.000 A 
ENDBRANCH  27  28
ENDBRANCH   5  27
TORSDOF 8
ENDMDL
MODEL 8
REMARK VINA RESULT:      -7.5      3.320      9.241
REMARK  Name = 
REMARK  9 active torsions:
REMARK  status: ('A' for Active; 'I' for Inactive)
REMARK    1  A    between atoms: C_1  and  N_2
REMARK    2  A    between atoms: C_3  and  C_5
REMARK    3  A    between atoms: C_7  and  C_8
REMARK    4  A    between atoms: N_10  and  C_11
REMARK    5  A    between atoms: C_11  and  C_12
REMARK    6  A    between atoms: C_12  and  C_13
REMARK    7  A    between atoms: C_13  and  C_14
REMARK    8  A    between atoms: N_21  and  C_22
REMARK    9  A    between atoms: C_22  and  C_23
REMARK                            x       y       z     vdW  Elec       q    Type
REMARK                         _______ _______ _______ _____ _____    ______ ____
ROOT
ATOM      1  C   UNL     1      -1.175  11.185  18.296  0.00  0.00    +0.000 A 
ATOM      2  C   UNL     1      -0.412  10.088  18.196  0.00  0.00    +0.000 A 
ATOM      3  C   UNL     1       0.767   9.905  19.005  0.00  0.00    +0.000 A 
ATOM      4  C   UNL     1       1.000  10.766  20.013  0.00  0.00    +0.000 A 
ATOM      5  N   UNL     1       0.215  11.912  20.191  0.00  0.00    +0.000 N 
ATOM      6  C   UNL     1      -0.804  12.246  19.286  0.00  0.00    +0.000 A 
ATOM      7  O   UNL     1      -1.385  13.329  19.284  0.00  0.00    +0.000 OA
ENDROOT
BRANCH   1  10
ATOM      8  C   UNL     1      -3.191  10.703  15.150  0.00  0.00    +0.000 C 
ATOM      9  N   UNL     1      -2.145  10.728  16.134  0.00  0.00    +0.000 N 
ATOM     10  C   UNL     1      -2.356  11.240  17.386  0.00  0.00    +0.000 C 
ATOM     11  O   UNL     1      -3.439  11.683  17.755  0.00  0.00    +0.000 OA
ATOM     12  H   UNL     1      -1.197  10.467  15.867  0.00  0.00    +0.000 HD
ENDBRANCH   1  10
BRANCH   3  13
ATOM     13  C   UNL     1       1.713   8.757  18.785  0.00  0.00    +0.000 C 
ATOM     14  O   UNL     1       2.427   8.699  17.787  0.00  0.00    +0.000 OA
ATOM     15  N   UNL     1       1.687   7.784  19.759  0.00  0.00    +0.000 N 
ATOM     16  H   UNL     1       1.089   7.874  20.569  0.00  0.00    +0.000 HD
BRANCH  15  17
ATOM     17  C   UNL     1       2.606   6.666  19.772  0.00  0.00    +0.000 C 
BRANCH  17  18
ATOM     18  C   UNL     1       2.046   5.471  20.549  0.00  0.00    +0.000 C 
BRANCH  18  19
ATOM     19  C   UNL     1       1.239   4.499  19.673  0.00  0.00    +0.000 C 
BRANCH  19  20
ATOM     20  C   UNL     1       1.461   3.012  20.046  0.00  0.00    +0.000 C 
ATOM     21  C   UNL     1       2.889   2.674  20.508  0.00  0.00    +0.000 C 
ATOM     22  C   UNL     1       3.890   2.556  19.358  0.00  0.00    +0.000 C 
ATOM     23  C   UNL     1       3.355   1.733  18.189  0.00  0.00    +0.000 C 
ATOM     24  N   UNL     1       2.025   2.176  17.770  0.00  0.00    +0.000 NA
ATOM     25  C   UNL     1       1.075   2.083  18.880  0.00  0.00    +0.000 C 
ATOM     26  H   UNL     1       1.703   1.580  17.007  0.00  0.00    +0.000 HD
ENDBRANCH  19  20
ENDBRANCH  18  19
ENDBRANCH  17  18
ENDBRANCH  15  17
ENDBRANCH   3  13
BRANCH   5  27
ATOM     27  C   UNL     1       0.495  12.820  21.314  0.00  0.00    +0.000 C 
BRANCH  27  28
ATOM     28  C   UNL     1      -0.660  12.901  22.295  0.00  0.00    +0.000 A 
ATOM     29  C   UNL     1      -1.436  11.767  22.580  0.00  0.00    +0.000 A 
ATOM     30  C   UNL     1      -2.588  11.870  23.366  0.00  0.00    +0.000 A 
ATOM     31  C   UNL     1      -2.964  13.101  23.898  0.00  0.00    +0.000 A 
ATOM     32  C   UNL     1      -2.164  14.221  23.682  0.00  0.00    +0.000 A 
ATOM     33  C   UNL     1      -1.017  14.124  22.887  0.00  0.00    +0.000 A 
ENDBRANCH  27  28
ENDBRANCH   5  27
TORSDOF 8
ENDMDL
MODEL 9
REMARK VINA RESULT:      -7.4      4.422      8.701
REMARK  Name = 
REMARK  9 active torsions:
REMARK  status: ('A' for Active; 'I' for Inactive)
REMARK    1  A    between atoms: C_1  and  N_2
REMARK    2  A    between atoms: C_3  and  C_5
REMARK    3  A    between atoms: C_7  and  C_8
REMARK    4  A    between atoms: N_10  and  C_11
REMARK    5  A    between atoms: C_11  and  C_12
REMARK    6  A    between atoms: C_12  and  C_13
REMARK    7  A    between atoms: C_13  and  C_14
REMARK    8  A    between atoms: N_21  and  C_22
REMARK    9  A    between atoms: C_22  and  C_23
REMARK                            x       y       z     vdW  Elec       q    Type
REMARK                         _______ _______ _______ _____ _____    ______ ____
ROOT
ATOM      1  C   UNL     1       6.496   5.072  15.440  0.00  0.00    +0.000 A 
ATOM      2  C   UNL     1       7.357   5.713  16.242  0.00  0.00    +0.000 A 
ATOM      3  C   UNL     1       7.012   6.074  17.594  0.00  0.00    +0.000 A 
ATOM      4  C   UNL     1       5.872   5.592  18.121  0.00  0.00    +0.000 A 
ATOM      5  N   UNL     1       4.949   4.884  17.342  0.00  0.00    +0.000 N 
ATOM      6  C   UNL     1       5.142   4.706  15.964  0.00  0.00    +0.000 A 
ATOM      7  O   UNL     1       4.279   4.270  15.204  0.00  0.00    +0.000 OA
ENDROOT
BRANCH   1  10
ATOM      8  C   UNL     1       6.717   3.340  12.100  0.00  0.00    +0.000 C 
ATOM      9  N   UNL     1       6.357   3.738  13.433  0.00  0.00    +0.000 N 
ATOM     10  C   UNL     1       6.990   4.775  14.063  0.00  0.00    +0.000 C 
ATOM     11  O   UNL     1       7.876   5.439  13.535  0.00  0.00    +0.000 OA
ATOM     12  H   UNL     1       5.699   3.171  13.966  0.00  0.00    +0.000 HD
ENDBRANCH   1  10
BRANCH   3  13
ATOM     13  C   UNL     1       7.909   6.932  18.443  0.00  0.00    +0.000 C 
ATOM     14  O   UNL     1       8.491   6.474  19.424  0.00  0.00    +0.000 OA
ATOM     15  N   UNL     1       7.996   8.250  18.055  0.00  0.00    +0.000 N 
ATOM     16  H   UNL     1       7.506   8.585  17.237  0.00  0.00    +0.000 HD
BRANCH  15  17
ATOM     17  C   UNL     1       8.896   9.193  18.683  0.00  0.00    +0.000 C 
BRANCH  17  18
ATOM     18  C   UNL     1       8.723  10.610  18.129  0.00  0.00    +0.000 C 
BRANCH  18  19
ATOM     19  C   UNL     1      10.056  11.321  17.845  0.00  0.00    +0.000 C 
BRANCH  19  20
ATOM     20  C   UNL     1      10.384  12.438  18.867  0.00  0.00    +0.000 C 
ATOM     21  C   UNL     1       9.161  13.005  19.610  0.00  0.00    +0.000 C 
ATOM     22  C   UNL     1       8.340  13.985  18.772  0.00  0.00    +0.000 C 
ATOM     23  C   UNL     1       9.206  15.005  18.036  0.00  0.00    +0.000 C 
ATOM     24  N   UNL     1      10.296  14.367  17.298  0.00  0.00    +0.000 NA
ATOM     25  C   UNL     1      11.151  13.595  18.200  0.00  0.00    +0.000 C 
ATOM     26  H   UNL     1      10.858  15.091  16.847  0.00  0.00    +0.000 HD
ENDBRANCH  19  20
ENDBRANCH  18  19
ENDBRANCH  17  18
ENDBRANCH  15  17
ENDBRANCH   3  13
BRANCH   5  27
ATOM     27  C   UNL     1       3.721   4.361  17.961  0.00  0.00    +0.000 C 
BRANCH  27  28
ATOM     28  C   UNL     1       3.047   5.378  18.862  0.00  0.00    +0.000 A 
ATOM     29  C   UNL     1       2.512   4.993  20.101  0.00  0.00    +0.000 A 
ATOM     30  C   UNL     1       1.762   5.892  20.865  0.00  0.00    +0.000 A 
ATOM     31  C   UNL     1       1.560   7.194  20.414  0.00  0.00    +0.000 A 
ATOM     32  C   UNL     1       2.146   7.612  19.221  0.00  0.00    +0.000 A 
ATOM     33  C   UNL     1       2.887   6.712  18.449  0.00  0.00    +0.000 A 
ENDBRANCH  27  28
ENDBRANCH   5  27
TORSDOF 8
ENDMDL
