MODEL 1
REMARK VINA RESULT:      -6.9      0.000      0.000
REMARK  Name = 
REMARK  9 active torsions:
REMARK  status: ('A' for Active; 'I' for Inactive)
REMARK    1  A    between atoms: O_1  and  C_2
REMARK    2  A    between atoms: C_2  and  C_3
REMARK    3  A    between atoms: C_3  and  C_4
REMARK    4  A    between atoms: C_4  and  C_5
REMARK    5  A    between atoms: C_5  and  C_6
REMARK    6  A    between atoms: C_6  and  C_7
REMARK    7  A    between atoms: C_7  and  O_8
REMARK    8  A    between atoms: C_7  and  C_9
REMARK    9  A    between atoms: C_12  and  C_13
REMARK                            x       y       z     vdW  Elec       q    Type
REMARK                         _______ _______ _______ _____ _____    ______ ____
ROOT
ATOM      1  C   UNL     1       3.613   5.297  18.118  0.00  0.00    +0.000 A 
ATOM      2  C   UNL     1       2.968   5.031  19.329  0.00  0.00    +0.000 A 
ATOM      3  C   UNL     1       2.258   6.037  20.002  0.00  0.00    +0.000 A 
ATOM      4  C   UNL     1       2.197   7.358  19.515  0.00  0.00    +0.000 A 
ATOM      5  C   UNL     1       2.922   7.624  18.345  0.00  0.00    +0.000 A 
ATOM      6  C   UNL     1       3.598   6.615  17.649  0.00  0.00    +0.000 A 
ENDROOT
BRANCH   4   7
ATOM      7  C   UNL     1       1.434   8.417  20.234  0.00  0.00    +0.000 A 
ATOM      8  C   UNL     1       1.363   8.367  21.646  0.00  0.00    +0.000 A 
ATOM      9  C   UNL     1       0.664   9.323  22.391  0.00  0.00    +0.000 A 
ATOM     10  C   UNL     1       0.040  10.379  21.743  0.00  0.00    +0.000 A 
ATOM     11 CL   UNL     1      -0.804  11.566  22.655  0.00  0.00    +0.000 Cl
ATOM     12  C   UNL     1       0.086  10.472  20.359  0.00  0.00    +0.000 A 
ATOM     13  C   UNL     1       0.754   9.491  19.609  0.00  0.00    +0.000 A 
ATOM     14 CL   UNL     1       0.611   9.665  17.887  0.00  0.00    +0.000 Cl
ENDBRANCH   4   7
BRANCH   1  15
ATOM     15  C   UNL     1       4.315   4.176  17.373  0.00  0.00    +0.000 C 
BRANCH  15  16
ATOM     16  O   UNL     1       5.116   3.434  18.288  0.00  0.00    +0.000 OA
ATOM     17  H   UNL     1       5.556   4.071  18.874  0.00  0.00    +0.000 HD
ENDBRANCH  15  16
BRANCH  15  18
ATOM     18  C   UNL     1       5.202   4.678  16.227  0.00  0.00    +0.000 C 
BRANCH  18  19
ATOM     19  C   UNL     1       6.685   4.751  16.594  0.00  0.00    +0.000 C 
BRANCH  19  20
ATOM     20  C   UNL     1       7.138   6.212  16.600  0.00  0.00    +0.000 C 
BRANCH  20  21
ATOM     21  C   UNL     1       7.445   6.701  18.008  0.00  0.00    +0.000 C 
BRANCH  21  22
ATOM     22  C   UNL     1       7.801   5.544  18.926  0.00  0.00    +0.000 C 
BRANCH  22  23
ATOM     23  O   UNL     1       6.747   5.367  19.862  0.00  0.00    +0.000 OA
ATOM     24  H   UNL     1       6.353   6.241  20.017  0.00  0.00    +0.000 HD
ENDBRANCH  22  23
ENDBRANCH  21  22
ENDBRANCH  20  21
ENDBRANCH  19  20
ENDBRANCH  18  19
ENDBRANCH  15  18
ENDBRANCH   1  15
TORSDOF 9
ENDMDL
MODEL 2
REMARK VINA RESULT:      -6.6      4.288      8.150
REMARK  Name = 
REMARK  9 active torsions:
REMARK  status: ('A' for Active; 'I' for Inactive)
REMARK    1  A    between atoms: O_1  and  C_2
REMARK    2  A    between atoms: C_2  and  C_3
REMARK    3  A    between atoms: C_3  and  C_4
REMARK    4  A    between atoms: C_4  and  C_5
REMARK    5  A    between atoms: C_5  and  C_6
REMARK    6  A    between atoms: C_6  and  C_7
REMARK    7  A    between atoms: C_7  and  O_8
REMARK    8  A    between atoms: C_7  and  C_9
REMARK    9  A    between atoms: C_12  and  C_13
REMARK                            x       y       z     vdW  Elec       q    Type
REMARK                         _______ _______ _______ _____ _____    ______ ____
ROOT
ATOM      1  C   UNL     1       1.035   9.598  19.743  0.00  0.00    +0.000 A 
ATOM      2  C   UNL     1       1.485   9.781  18.433  0.00  0.00    +0.000 A 
ATOM      3  C   UNL     1       2.233   8.786  17.784  0.00  0.00    +0.000 A 
ATOM      4  C   UNL     1       2.596   7.588  18.429  0.00  0.00    +0.000 A 
ATOM      5  C   UNL     1       2.208   7.462  19.771  0.00  0.00    +0.000 A 
ATOM      6  C   UNL     1       1.428   8.432  20.409  0.00  0.00    +0.000 A 
ENDROOT
BRANCH   4   7
ATOM      7  C   UNL     1       3.383   6.535  17.728  0.00  0.00    +0.000 A 
ATOM      8  C   UNL     1       4.536   6.915  17.003  0.00  0.00    +0.000 A 
ATOM      9  C   UNL     1       5.326   5.986  16.317  0.00  0.00    +0.000 A 
ATOM     10  C   UNL     1       5.000   4.638  16.363  0.00  0.00    +0.000 A 
ATOM     11 CL   UNL     1       5.976   3.490  15.538  0.00  0.00    +0.000 Cl
ATOM     12  C   UNL     1       3.879   4.217  17.066  0.00  0.00    +0.000 A 
ATOM     13  C   UNL     1       3.065   5.154  17.722  0.00  0.00    +0.000 A 
ATOM     14 CL   UNL     1       1.628   4.497  18.442  0.00  0.00    +0.000 Cl
ENDBRANCH   4   7
BRANCH   1  15
ATOM     15  C   UNL     1       0.170  10.658  20.400  0.00  0.00    +0.000 C 
BRANCH  15  16
ATOM     16  O   UNL     1      -0.831  10.024  21.191  0.00  0.00    +0.000 OA
ATOM     17  H   UNL     1      -0.517   9.126  21.393  0.00  0.00    +0.000 HD
ENDBRANCH  15  16
BRANCH  15  18
ATOM     18  C   UNL     1      -0.509  11.592  19.391  0.00  0.00    +0.000 C 
BRANCH  18  19
ATOM     19  C   UNL     1      -1.922  11.148  19.008  0.00  0.00    +0.000 C 
BRANCH  19  20
ATOM     20  C   UNL     1      -2.129  11.344  17.505  0.00  0.00    +0.000 C 
BRANCH  20  21
ATOM     21  C   UNL     1      -2.137  10.017  16.760  0.00  0.00    +0.000 C 
BRANCH  21  22
ATOM     22  C   UNL     1      -2.890  10.130  15.444  0.00  0.00    +0.000 C 
BRANCH  22  23
ATOM     23  O   UNL     1      -3.243  11.491  15.240  0.00  0.00    +0.000 OA
ATOM     24  H   UNL     1      -2.919  11.989  16.009  0.00  0.00    +0.000 HD
ENDBRANCH  22  23
ENDBRANCH  21  22
ENDBRANCH  20  21
ENDBRANCH  19  20
ENDBRANCH  18  19
ENDBRANCH  15  18
ENDBRANCH   1  15
TORSDOF 9
ENDMDL
MODEL 3
REMARK VINA RESULT:      -6.6      3.245      4.554
REMARK  Name = 
REMARK  9 active torsions:
REMARK  status: ('A' for Active; 'I' for Inactive)
REMARK    1  A    between atoms: O_1  and  C_2
REMARK    2  A    between atoms: C_2  and  C_3
REMARK    3  A    between atoms: C_3  and  C_4
REMARK    4  A    between atoms: C_4  and  C_5
REMARK    5  A    between atoms: C_5  and  C_6
REMARK    6  A    between atoms: C_6  and  C_7
REMARK    7  A    between atoms: C_7  and  O_8
REMARK    8  A    between atoms: C_7  and  C_9
REMARK    9  A    between atoms: C_12  and  C_13
REMARK                            x       y       z     vdW  Elec       q    Type
REMARK                         _______ _______ _______ _____ _____    ______ ____
ROOT
ATOM      1  C   UNL     1       5.113   4.881  16.308  0.00  0.00    +0.000 A 
ATOM      2  C   UNL     1       5.346   6.248  16.483  0.00  0.00    +0.000 A 
ATOM      3  C   UNL     1       4.504   7.022  17.297  0.00  0.00    +0.000 A 
ATOM      4  C   UNL     1       3.376   6.473  17.937  0.00  0.00    +0.000 A 
ATOM      5  C   UNL     1       3.111   5.120  17.679  0.00  0.00    +0.000 A 
ATOM      6  C   UNL     1       3.969   4.335  16.901  0.00  0.00    +0.000 A 
ENDROOT
BRANCH   4   7
ATOM      7  C   UNL     1       2.494   7.302  18.805  0.00  0.00    +0.000 A 
ATOM      8  C   UNL     1       2.091   8.579  18.347  0.00  0.00    +0.000 A 
ATOM      9  C   UNL     1       1.266   9.416  19.106  0.00  0.00    +0.000 A 
ATOM     10  C   UNL     1       0.793   8.986  20.337  0.00  0.00    +0.000 A 
ATOM     11 CL   UNL     1      -0.235  10.004  21.264  0.00  0.00    +0.000 Cl
ATOM     12  C   UNL     1       1.158   7.739  20.825  0.00  0.00    +0.000 A 
ATOM     13  C   UNL     1       2.017   6.915  20.082  0.00  0.00    +0.000 A 
ATOM     14 CL   UNL     1       2.494   5.448  20.880  0.00  0.00    +0.000 Cl
ENDBRANCH   4   7
BRANCH   1  15
ATOM     15  C   UNL     1       6.076   4.050  15.480  0.00  0.00    +0.000 C 
BRANCH  15  16
ATOM     16  O   UNL     1       7.365   4.655  15.510  0.00  0.00    +0.000 OA
ATOM     17  H   UNL     1       7.968   4.036  15.954  0.00  0.00    +0.000 HD
ENDBRANCH  15  16
BRANCH  15  18
ATOM     18  C   UNL     1       5.632   3.892  14.020  0.00  0.00    +0.000 C 
BRANCH  18  19
ATOM     19  C   UNL     1       6.790   3.958  13.023  0.00  0.00    +0.000 C 
BRANCH  19  20
ATOM     20  C   UNL     1       6.297   3.530  11.640  0.00  0.00    +0.000 C 
BRANCH  20  21
ATOM     21  C   UNL     1       5.636   2.160  11.676  0.00  0.00    +0.000 C 
BRANCH  21  22
ATOM     22  C   UNL     1       6.515   1.109  11.019  0.00  0.00    +0.000 C 
BRANCH  22  23
ATOM     23  O   UNL     1       6.150  -0.167  11.524  0.00  0.00    +0.000 OA
ATOM     24  H   UNL     1       5.933  -0.726  10.759  0.00  0.00    +0.000 HD
ENDBRANCH  22  23
ENDBRANCH  21  22
ENDBRANCH  20  21
ENDBRANCH  19  20
ENDBRANCH  18  19
ENDBRANCH  15  18
ENDBRANCH   1  15
TORSDOF 9
ENDMDL
MODEL 4
REMARK VINA RESULT:      -6.6      4.087      6.474
REMARK  Name = 
REMARK  9 active torsions:
REMARK  status: ('A' for Active; 'I' for Inactive)
REMARK    1  A    between atoms: O_1  and  C_2
REMARK    2  A    between atoms: C_2  and  C_3
REMARK    3  A    between atoms: C_3  and  C_4
REMARK    4  A    between atoms: C_4  and  C_5
REMARK    5  A    between atoms: C_5  and  C_6
REMARK    6  A    between atoms: C_6  and  C_7
REMARK    7  A    between atoms: C_7  and  O_8
REMARK    8  A    between atoms: C_7  and  C_9
REMARK    9  A    between atoms: C_12  and  C_13
REMARK                            x       y       z     vdW  Elec       q    Type
REMARK                         _______ _______ _______ _____ _____    ______ ____
ROOT
ATOM      1  C   UNL     1       6.704   4.435  14.761  0.00  0.00    +0.000 A 
ATOM      2  C   UNL     1       7.276   4.494  16.034  0.00  0.00    +0.000 A 
ATOM      3  C   UNL     1       6.487   4.344  17.185  0.00  0.00    +0.000 A 
ATOM      4  C   UNL     1       5.091   4.168  17.113  0.00  0.00    +0.000 A 
ATOM      5  C   UNL     1       4.526   4.199  15.830  0.00  0.00    +0.000 A 
ATOM      6  C   UNL     1       5.313   4.308  14.678  0.00  0.00    +0.000 A 
ENDROOT
BRANCH   4   7
ATOM      7  C   UNL     1       4.264   4.002  18.341  0.00  0.00    +0.000 A 
ATOM      8  C   UNL     1       4.233   2.738  18.976  0.00  0.00    +0.000 A 
ATOM      9  C   UNL     1       3.478   2.502  20.130  0.00  0.00    +0.000 A 
ATOM     10  C   UNL     1       2.753   3.538  20.702  0.00  0.00    +0.000 A 
ATOM     11 CL   UNL     1       1.839   3.258  22.130  0.00  0.00    +0.000 Cl
ATOM     12  C   UNL     1       2.756   4.796  20.116  0.00  0.00    +0.000 A 
ATOM     13  C   UNL     1       3.482   5.022  18.936  0.00  0.00    +0.000 A 
ATOM     14 CL   UNL     1       3.281   6.603  18.246  0.00  0.00    +0.000 Cl
ENDBRANCH   4   7
BRANCH   1  15
ATOM     15  C   UNL     1       7.587   4.531  13.530  0.00  0.00    +0.000 C 
BRANCH  15  16
ATOM     16  O   UNL     1       8.261   5.786  13.531  0.00  0.00    +0.000 OA
ATOM     17  H   UNL     1       8.144   6.180  12.651  0.00  0.00    +0.000 HD
ENDBRANCH  15  16
BRANCH  15  18
ATOM     18  C   UNL     1       6.808   4.383  12.217  0.00  0.00    +0.000 C 
BRANCH  18  19
ATOM     19  C   UNL     1       6.919   2.989  11.599  0.00  0.00    +0.000 C 
BRANCH  19  20
ATOM     20  C   UNL     1       5.531   2.350  11.527  0.00  0.00    +0.000 C 
BRANCH  20  21
ATOM     21  C   UNL     1       4.427   3.397  11.560  0.00  0.00    +0.000 C 
BRANCH  21  22
ATOM     22  C   UNL     1       3.364   3.107  10.514  0.00  0.00    +0.000 C 
BRANCH  22  23
ATOM     23  O   UNL     1       3.044   4.318   9.844  0.00  0.00    +0.000 OA
ATOM     24  H   UNL     1       2.906   4.994  10.527  0.00  0.00    +0.000 HD
ENDBRANCH  22  23
ENDBRANCH  21  22
ENDBRANCH  20  21
ENDBRANCH  19  20
ENDBRANCH  18  19
ENDBRANCH  15  18
ENDBRANCH   1  15
TORSDOF 9
ENDMDL
MODEL 5
REMARK VINA RESULT:      -6.4      3.718      7.591
REMARK  Name = 
REMARK  9 active torsions:
REMARK  status: ('A' for Active; 'I' for Inactive)
REMARK    1  A    between atoms: O_1  and  C_2
REMARK    2  A    between atoms: C_2  and  C_3
REMARK    3  A    between atoms: C_3  and  C_4
REMARK    4  A    between atoms: C_4  and  C_5
REMARK    5  A    between atoms: C_5  and  C_6
REMARK    6  A    between atoms: C_6  and  C_7
REMARK    7  A    between atoms: C_7  and  O_8
REMARK    8  A    between atoms: C_7  and  C_9
REMARK    9  A    between atoms: C_12  and  C_13
REMARK                            x       y       z     vdW  Elec       q    Type
REMARK                         _______ _______ _______ _____ _____    ______ ____
ROOT
ATOM      1  C   UNL     1       0.957   9.230  20.006  0.00  0.00    +0.000 A 
ATOM      2  C   UNL     1       1.482   8.093  20.625  0.00  0.00    +0.000 A 
ATOM      3  C   UNL     1       2.265   7.178  19.904  0.00  0.00    +0.000 A 
ATOM      4  C   UNL     1       2.522   7.340  18.528  0.00  0.00    +0.000 A 
ATOM      5  C   UNL     1       1.914   8.440  17.908  0.00  0.00    +0.000 A 
ATOM      6  C   UNL     1       1.167   9.377  18.630  0.00  0.00    +0.000 A 
ENDROOT
BRANCH   4   7
ATOM      7  C   UNL     1       3.361   6.367  17.774  0.00  0.00    +0.000 A 
ATOM      8  C   UNL     1       4.531   6.832  17.128  0.00  0.00    +0.000 A 
ATOM      9  C   UNL     1       5.368   5.981  16.398  0.00  0.00    +0.000 A 
ATOM     10  C   UNL     1       5.074   4.628  16.319  0.00  0.00    +0.000 A 
ATOM     11 CL   UNL     1       6.109   3.575  15.440  0.00  0.00    +0.000 Cl
ATOM     12  C   UNL     1       3.939   4.125  16.940  0.00  0.00    +0.000 A 
ATOM     13  C   UNL     1       3.078   4.985  17.639  0.00  0.00    +0.000 A 
ATOM     14 CL   UNL     1       1.632   4.238  18.245  0.00  0.00    +0.000 Cl
ENDBRANCH   4   7
BRANCH   1  15
ATOM     15  C   UNL     1       0.172  10.240  20.822  0.00  0.00    +0.000 C 
BRANCH  15  16
ATOM     16  O   UNL     1      -0.486   9.570  21.893  0.00  0.00    +0.000 OA
ATOM     17  H   UNL     1      -0.697  10.237  22.568  0.00  0.00    +0.000 HD
ENDBRANCH  15  16
BRANCH  15  18
ATOM     18  C   UNL     1      -0.871  11.003  19.994  0.00  0.00    +0.000 C 
BRANCH  18  19
ATOM     19  C   UNL     1      -0.642  12.515  19.975  0.00  0.00    +0.000 C 
BRANCH  19  20
ATOM     20  C   UNL     1      -0.167  12.942  18.586  0.00  0.00    +0.000 C 
BRANCH  20  21
ATOM     21  C   UNL     1       1.104  13.777  18.657  0.00  0.00    +0.000 C 
BRANCH  21  22
ATOM     22  C   UNL     1       2.342  12.897  18.619  0.00  0.00    +0.000 C 
BRANCH  22  23
ATOM     23  O   UNL     1       2.464  12.342  17.317  0.00  0.00    +0.000 OA
ATOM     24  H   UNL     1       2.359  13.072  16.684  0.00  0.00    +0.000 HD
ENDBRANCH  22  23
ENDBRANCH  21  22
ENDBRANCH  20  21
ENDBRANCH  19  20
ENDBRANCH  18  19
ENDBRANCH  15  18
ENDBRANCH   1  15
TORSDOF 9
ENDMDL
MODEL 6
REMARK VINA RESULT:      -6.4      1.106      1.586
REMARK  Name = 
REMARK  9 active torsions:
REMARK  status: ('A' for Active; 'I' for Inactive)
REMARK    1  A    between atoms: O_1  and  C_2
REMARK    2  A    between atoms: C_2  and  C_3
REMARK    3  A    between atoms: C_3  and  C_4
REMARK    4  A    between atoms: C_4  and  C_5
REMARK    5  A    between atoms: C_5  and  C_6
REMARK    6  A    between atoms: C_6  and  C_7
REMARK    7  A    between atoms: C_7  and  O_8
REMARK    8  A    between atoms: C_7  and  C_9
REMARK    9  A    between atoms: C_12  and  C_13
REMARK                            x       y       z     vdW  Elec       q    Type
REMARK                         _______ _______ _______ _____ _____    ______ ____
ROOT
ATOM      1  C   UNL     1       3.800   4.968  18.510  0.00  0.00    +0.000 A 
ATOM      2  C   UNL     1       3.505   6.096  17.740  0.00  0.00    +0.000 A 
ATOM      3  C   UNL     1       2.764   7.159  18.278  0.00  0.00    +0.000 A 
ATOM      4  C   UNL     1       2.255   7.124  19.590  0.00  0.00    +0.000 A 
ATOM      5  C   UNL     1       2.488   5.947  20.316  0.00  0.00    +0.000 A 
ATOM      6  C   UNL     1       3.260   4.900  19.799  0.00  0.00    +0.000 A 
ENDROOT
BRANCH   4   7
ATOM      7  C   UNL     1       1.476   8.262  20.154  0.00  0.00    +0.000 A 
ATOM      8  C   UNL     1       1.014   8.177  21.489  0.00  0.00    +0.000 A 
ATOM      9  C   UNL     1       0.275   9.203  22.088  0.00  0.00    +0.000 A 
ATOM     10  C   UNL     1       0.002  10.361  21.376  0.00  0.00    +0.000 A 
ATOM     11 CL   UNL     1      -0.890  11.632  22.113  0.00  0.00    +0.000 Cl
ATOM     12  C   UNL     1       0.438  10.491  20.064  0.00  0.00    +0.000 A 
ATOM     13  C   UNL     1       1.146   9.446  19.450  0.00  0.00    +0.000 A 
ATOM     14 CL   UNL     1       1.507   9.696  17.770  0.00  0.00    +0.000 Cl
ENDBRANCH   4   7
BRANCH   1  15
ATOM     15  C   UNL     1       4.662   3.861  17.930  0.00  0.00    +0.000 C 
BRANCH  15  16
ATOM     16  O   UNL     1       5.511   3.343  18.949  0.00  0.00    +0.000 OA
ATOM     17  H   UNL     1       6.315   3.890  18.964  0.00  0.00    +0.000 HD
ENDBRANCH  15  16
BRANCH  15  18
ATOM     18  C   UNL     1       5.523   4.324  16.749  0.00  0.00    +0.000 C 
BRANCH  18  19
ATOM     19  C   UNL     1       6.958   4.677  17.145  0.00  0.00    +0.000 C 
BRANCH  19  20
ATOM     20  C   UNL     1       7.231   6.145  16.818  0.00  0.00    +0.000 C 
BRANCH  20  21
ATOM     21  C   UNL     1       7.625   6.935  18.058  0.00  0.00    +0.000 C 
BRANCH  21  22
ATOM     22  C   UNL     1       7.873   8.397  17.722  0.00  0.00    +0.000 C 
BRANCH  22  23
ATOM     23  O   UNL     1       8.738   8.947  18.705  0.00  0.00    +0.000 OA
ATOM     24  H   UNL     1       9.594   9.106  18.275  0.00  0.00    +0.000 HD
ENDBRANCH  22  23
ENDBRANCH  21  22
ENDBRANCH  20  21
ENDBRANCH  19  20
ENDBRANCH  18  19
ENDBRANCH  15  18
ENDBRANCH   1  15
TORSDOF 9
ENDMDL
MODEL 7
REMARK VINA RESULT:      -6.4      2.141      3.656
REMARK  Name = 
REMARK  9 active torsions:
REMARK  status: ('A' for Active; 'I' for Inactive)
REMARK    1  A    between atoms: O_1  and  C_2
REMARK    2  A    between atoms: C_2  and  C_3
REMARK    3  A    between atoms: C_3  and  C_4
REMARK    4  A    between atoms: C_4  and  C_5
REMARK    5  A    between atoms: C_5  and  C_6
REMARK    6  A    between atoms: C_6  and  C_7
REMARK    7  A    between atoms: C_7  and  O_8
REMARK    8  A    between atoms: C_7  and  C_9
REMARK    9  A    between atoms: C_12  and  C_13
REMARK                            x       y       z     vdW  Elec       q    Type
REMARK                         _______ _______ _______ _____ _____    ______ ____
ROOT
ATOM      1  C   UNL     1       3.762   6.079  18.359  0.00  0.00    +0.000 A 
ATOM      2  C   UNL     1       3.055   6.053  19.564  0.00  0.00    +0.000 A 
ATOM      3  C   UNL     1       2.153   7.076  19.891  0.00  0.00    +0.000 A 
ATOM      4  C   UNL     1       1.948   8.186  19.048  0.00  0.00    +0.000 A 
ATOM      5  C   UNL     1       2.730   8.236  17.886  0.00  0.00    +0.000 A 
ATOM      6  C   UNL     1       3.602   7.199  17.536  0.00  0.00    +0.000 A 
ENDROOT
BRANCH   4   7
ATOM      7  C   UNL     1       0.981   9.263  19.401  0.00  0.00    +0.000 A 
ATOM      8  C   UNL     1       0.319   9.954  18.358  0.00  0.00    +0.000 A 
ATOM      9  C   UNL     1      -0.599  10.979  18.608  0.00  0.00    +0.000 A 
ATOM     10  C   UNL     1      -0.907  11.323  19.916  0.00  0.00    +0.000 A 
ATOM     11 CL   UNL     1      -2.049  12.568  20.230  0.00  0.00    +0.000 Cl
ATOM     12  C   UNL     1      -0.286  10.670  20.973  0.00  0.00    +0.000 A 
ATOM     13  C   UNL     1       0.665   9.669  20.721  0.00  0.00    +0.000 A 
ATOM     14 CL   UNL     1       1.455   9.040  22.133  0.00  0.00    +0.000 Cl
ENDBRANCH   4   7
BRANCH   1  15
ATOM     15  C   UNL     1       4.681   4.927  17.996  0.00  0.00    +0.000 C 
BRANCH  15  16
ATOM     16  O   UNL     1       5.117   5.080  16.649  0.00  0.00    +0.000 OA
ATOM     17  H   UNL     1       4.714   4.365  16.129  0.00  0.00    +0.000 HD
ENDBRANCH  15  16
BRANCH  15  18
ATOM     18  C   UNL     1       4.015   3.554  18.152  0.00  0.00    +0.000 C 
BRANCH  18  19
ATOM     19  C   UNL     1       2.743   3.397  17.318  0.00  0.00    +0.000 C 
BRANCH  19  20
ATOM     20  C   UNL     1       1.582   2.994  18.228  0.00  0.00    +0.000 C 
BRANCH  20  21
ATOM     21  C   UNL     1       2.070   2.290  19.486  0.00  0.00    +0.000 C 
BRANCH  21  22
ATOM     22  C   UNL     1       1.338   2.796  20.718  0.00  0.00    +0.000 C 
BRANCH  22  23
ATOM     23  O   UNL     1       0.445   3.827  20.323  0.00  0.00    +0.000 OA
ATOM     24  H   UNL     1      -0.137   3.455  19.641  0.00  0.00    +0.000 HD
ENDBRANCH  22  23
ENDBRANCH  21  22
ENDBRANCH  20  21
ENDBRANCH  19  20
ENDBRANCH  18  19
ENDBRANCH  15  18
ENDBRANCH   1  15
TORSDOF 9
ENDMDL
MODEL 8
REMARK VINA RESULT:      -6.4      2.546      3.922
REMARK  Name = 
REMARK  9 active torsions:
REMARK  status: ('A' for Active; 'I' for Inactive)
REMARK    1  A    between atoms: O_1  and  C_2
REMARK    2  A    between atoms: C_2  and  C_3
REMARK    3  A    between atoms: C_3  and  C_4
REMARK    4  A    between atoms: C_4  and  C_5
REMARK    5  A    between atoms: C_5  and  C_6
REMARK    6  A    between atoms: C_6  and  C_7
REMARK    7  A    between atoms: C_7  and  O_8
REMARK    8  A    between atoms: C_7  and  C_9
REMARK    9  A    between atoms: C_12  and  C_13
REMARK                            x       y       z     vdW  Elec       q    Type
REMARK                         _______ _______ _______ _____ _____    ______ ____
ROOT
ATOM      1  C   UNL     1       2.580   7.040  18.611  0.00  0.00    +0.000 A 
ATOM      2  C   UNL     1       2.096   7.256  19.903  0.00  0.00    +0.000 A 
ATOM      3  C   UNL     1       1.393   8.429  20.221  0.00  0.00    +0.000 A 
ATOM      4  C   UNL     1       1.179   9.449  19.274  0.00  0.00    +0.000 A 
ATOM      5  C   UNL     1       1.748   9.251  18.008  0.00  0.00    +0.000 A 
ATOM      6  C   UNL     1       2.414   8.067  17.674  0.00  0.00    +0.000 A 
ENDROOT
BRANCH   4   7
ATOM      7  C   UNL     1       0.425  10.686  19.620  0.00  0.00    +0.000 A 
ATOM      8  C   UNL     1       0.859  11.465  20.718  0.00  0.00    +0.000 A 
ATOM      9  C   UNL     1       0.202  12.638  21.107  0.00  0.00    +0.000 A 
ATOM     10  C   UNL     1      -0.895  13.083  20.384  0.00  0.00    +0.000 A 
ATOM     11 CL   UNL     1      -1.695  14.533  20.846  0.00  0.00    +0.000 Cl
ATOM     12  C   UNL     1      -1.355  12.354  19.296  0.00  0.00    +0.000 A 
ATOM     13  C   UNL     1      -0.720  11.157  18.931  0.00  0.00    +0.000 A 
ATOM     14 CL   UNL     1      -1.488  10.287  17.639  0.00  0.00    +0.000 Cl
ENDBRANCH   4   7
BRANCH   1  15
ATOM     15  C   UNL     1       3.277   5.735  18.273  0.00  0.00    +0.000 C 
BRANCH  15  16
ATOM     16  O   UNL     1       4.267   5.974  17.278  0.00  0.00    +0.000 OA
ATOM     17  H   UNL     1       4.526   6.909  17.343  0.00  0.00    +0.000 HD
ENDBRANCH  15  16
BRANCH  15  18
ATOM     18  C   UNL     1       2.314   4.652  17.769  0.00  0.00    +0.000 C 
BRANCH  18  19
ATOM     19  C   UNL     1       2.560   3.280  18.400  0.00  0.00    +0.000 C 
BRANCH  19  20
ATOM     20  C   UNL     1       1.286   2.807  19.103  0.00  0.00    +0.000 C 
BRANCH  20  21
ATOM     21  C   UNL     1       0.920   3.709  20.272  0.00  0.00    +0.000 C 
BRANCH  21  22
ATOM     22  C   UNL     1       1.949   3.609  21.386  0.00  0.00    +0.000 C 
BRANCH  22  23
ATOM     23  O   UNL     1       1.642   2.477  22.188  0.00  0.00    +0.000 OA
ATOM     24  H   UNL     1       2.215   2.517  22.971  0.00  0.00    +0.000 HD
ENDBRANCH  22  23
ENDBRANCH  21  22
ENDBRANCH  20  21
ENDBRANCH  19  20
ENDBRANCH  18  19
ENDBRANCH  15  18
ENDBRANCH   1  15
TORSDOF 9
ENDMDL
MODEL 9
REMARK VINA RESULT:      -6.4      2.059      3.190
REMARK  Name = 
REMARK  9 active torsions:
REMARK  status: ('A' for Active; 'I' for Inactive)
REMARK    1  A    between atoms: O_1  and  C_2
REMARK    2  A    between atoms: C_2  and  C_3
REMARK    3  A    between atoms: C_3  and  C_4
REMARK    4  A    between atoms: C_4  and  C_5
REMARK    5  A    between atoms: C_5  and  C_6
REMARK    6  A    between atoms: C_6  and  C_7
REMARK    7  A    between atoms: C_7  and  O_8
REMARK    8  A    between atoms: C_7  and  C_9
REMARK    9  A    between atoms: C_12  and  C_13
REMARK                            x       y       z     vdW  Elec       q    Type
REMARK                         _______ _______ _______ _____ _____    ______ ____
ROOT
ATOM      1  C   UNL     1       4.259   5.599  18.435  0.00  0.00    +0.000 A 
ATOM      2  C   UNL     1       4.119   6.662  17.538  0.00  0.00    +0.000 A 
ATOM      3  C   UNL     1       3.184   7.682  17.773  0.00  0.00    +0.000 A 
ATOM      4  C   UNL     1       2.325   7.663  18.888  0.00  0.00    +0.000 A 
ATOM      5  C   UNL     1       2.422   6.544  19.729  0.00  0.00    +0.000 A 
ATOM      6  C   UNL     1       3.380   5.545  19.522  0.00  0.00    +0.000 A 
ENDROOT
BRANCH   4   7
ATOM      7  C   UNL     1       1.341   8.755  19.132  0.00  0.00    +0.000 A 
ATOM      8  C   UNL     1       0.779   9.426  18.021  0.00  0.00    +0.000 A 
ATOM      9  C   UNL     1      -0.149  10.463  18.168  0.00  0.00    +0.000 A 
ATOM     10  C   UNL     1      -0.566  10.839  19.436  0.00  0.00    +0.000 A 
ATOM     11 CL   UNL     1      -1.719  12.100  19.622  0.00  0.00    +0.000 Cl
ATOM     12  C   UNL     1      -0.045  10.205  20.556  0.00  0.00    +0.000 A 
ATOM     13  C   UNL     1       0.915   9.192  20.410  0.00  0.00    +0.000 A 
ATOM     14 CL   UNL     1       1.574   8.589  21.899  0.00  0.00    +0.000 Cl
ENDBRANCH   4   7
BRANCH   1  15
ATOM     15  C   UNL     1       5.324   4.545  18.197  0.00  0.00    +0.000 C 
BRANCH  15  16
ATOM     16  O   UNL     1       5.376   3.667  19.318  0.00  0.00    +0.000 OA
ATOM     17  H   UNL     1       5.598   2.781  18.985  0.00  0.00    +0.000 HD
ENDBRANCH  15  16
BRANCH  15  18
ATOM     18  C   UNL     1       6.719   5.139  17.963  0.00  0.00    +0.000 C 
BRANCH  18  19
ATOM     19  C   UNL     1       7.447   4.526  16.766  0.00  0.00    +0.000 C 
BRANCH  19  20
ATOM     20  C   UNL     1       6.836   5.059  15.469  0.00  0.00    +0.000 C 
BRANCH  20  21
ATOM     21  C   UNL     1       6.117   3.965  14.693  0.00  0.00    +0.000 C 
BRANCH  21  22
ATOM     22  C   UNL     1       6.464   4.021  13.215  0.00  0.00    +0.000 C 
BRANCH  22  23
ATOM     23  O   UNL     1       6.289   2.726  12.658  0.00  0.00    +0.000 OA
ATOM     24  H   UNL     1       6.939   2.143  13.083  0.00  0.00    +0.000 HD
ENDBRANCH  22  23
ENDBRANCH  21  22
ENDBRANCH  20  21
ENDBRANCH  19  20
ENDBRANCH  18  19
ENDBRANCH  15  18
ENDBRANCH   1  15
TORSDOF 9
ENDMDL
