MODEL 1
REMARK VINA RESULT:      -6.9      0.000      0.000
REMARK  Name = 
REMARK  6 active torsions:
REMARK  status: ('A' for Active; 'I' for Inactive)
REMARK    1  A    between atoms: C_1  and  S_2
REMARK    2  A    between atoms: S_2  and  C_3
REMARK    3  A    between atoms: N_15  and  C_16
REMARK    4  A    between atoms: C_16  and  C_17
REMARK    5  A    between atoms: C_17  and  C_18
REMARK    6  A    between atoms: C_17  and  C_19
REMARK                            x       y       z     vdW  Elec       q    Type
REMARK                         _______ _______ _______ _____ _____    ______ ____
ROOT
ATOM      1  C   UNL     1       7.272   6.227  17.569  0.00  0.00    +0.000 A 
ATOM      2  N   UNL     1       7.559   6.142  16.247  0.00  0.00    +0.000 NA
ATOM      3  C   UNL     1       6.895   5.291  15.470  0.00  0.00    +0.000 A 
ATOM      4  C   UNL     1       7.285   5.204  14.143  0.00  0.00    +0.000 A 
ATOM      5  C   UNL     1       6.667   4.342  13.241  0.00  0.00    +0.000 A 
ATOM      6  C   UNL     1       5.615   3.536  13.664  0.00  0.00    +0.000 A 
ATOM      7  C   UNL     1       5.197   3.585  14.998  0.00  0.00    +0.000 A 
ATOM      8  C   UNL     1       5.833   4.452  15.911  0.00  0.00    +0.000 A 
ATOM      9  C   UNL     1       5.531   4.554  17.307  0.00  0.00    +0.000 A 
ATOM     10  C   UNL     1       6.263   5.421  18.127  0.00  0.00    +0.000 A 
ATOM     11  N   UNL     1       5.868   5.309  19.442  0.00  0.00    +0.000 NA
ATOM     12  C   UNL     1       4.925   4.396  19.442  0.00  0.00    +0.000 A 
ATOM     13  N   UNL     1       4.643   3.944  18.178  0.00  0.00    +0.000 N 
ENDROOT
BRANCH   1  15
ATOM     14  C   UNL     1       7.956   8.871  17.756  0.00  0.00    +0.000 C 
ATOM     15  S   UNL     1       8.207   7.303  18.617  0.00  0.00    +0.000 S 
ENDBRANCH   1  15
BRANCH  13  16
ATOM     16  C   UNL     1       3.540   3.042  17.876  0.00  0.00    +0.000 C 
BRANCH  16  17
ATOM     17  C   UNL     1       2.170   3.415  18.485  0.00  0.00    +0.000 C 
ATOM     18  C   UNL     1       1.406   4.446  17.647  0.00  0.00    +0.000 C 
ATOM     19  C   UNL     1       1.280   2.173  18.641  0.00  0.00    +0.000 C 
ENDBRANCH  16  17
ENDBRANCH  13  16
TORSDOF 3
ENDMDL
MODEL 2
REMARK VINA RESULT:      -6.9      1.313      4.630
REMARK  Name = 
REMARK  6 active torsions:
REMARK  status: ('A' for Active; 'I' for Inactive)
REMARK    1  A    between atoms: C_1  and  S_2
REMARK    2  A    between atoms: S_2  and  C_3
REMARK    3  A    between atoms: N_15  and  C_16
REMARK    4  A    between atoms: C_16  and  C_17
REMARK    5  A    between atoms: C_17  and  C_18
REMARK    6  A    between atoms: C_17  and  C_19
REMARK                            x       y       z     vdW  Elec       q    Type
REMARK                         _______ _______ _______ _____ _____    ______ ____
ROOT
ATOM      1  C   UNL     1       6.661   5.727  17.989  0.00  0.00    +0.000 A 
ATOM      2  N   UNL     1       5.628   5.448  18.822  0.00  0.00    +0.000 NA
ATOM      3  C   UNL     1       4.577   4.763  18.379  0.00  0.00    +0.000 A 
ATOM      4  C   UNL     1       3.525   4.573  19.262  0.00  0.00    +0.000 A 
ATOM      5  C   UNL     1       2.372   3.879  18.904  0.00  0.00    +0.000 A 
ATOM      6  C   UNL     1       2.253   3.345  17.625  0.00  0.00    +0.000 A 
ATOM      7  C   UNL     1       3.288   3.523  16.701  0.00  0.00    +0.000 A 
ATOM      8  C   UNL     1       4.450   4.236  17.063  0.00  0.00    +0.000 A 
ATOM      9  C   UNL     1       5.549   4.528  16.194  0.00  0.00    +0.000 A 
ATOM     10  C   UNL     1       6.633   5.286  16.653  0.00  0.00    +0.000 A 
ATOM     11  N   UNL     1       7.538   5.518  15.642  0.00  0.00    +0.000 NA
ATOM     12  C   UNL     1       7.032   4.930  14.584  0.00  0.00    +0.000 A 
ATOM     13  N   UNL     1       5.862   4.273  14.868  0.00  0.00    +0.000 N 
ENDROOT
BRANCH   1  15
ATOM     14  C   UNL     1       7.695   8.241  17.668  0.00  0.00    +0.000 C 
ATOM     15  S   UNL     1       8.024   6.703  18.556  0.00  0.00    +0.000 S 
ENDBRANCH   1  15
BRANCH  13  16
ATOM     16  C   UNL     1       5.171   3.417  13.914  0.00  0.00    +0.000 C 
BRANCH  16  17
ATOM     17  C   UNL     1       5.522   3.634  12.425  0.00  0.00    +0.000 C 
ATOM     18  C   UNL     1       6.632   2.699  11.932  0.00  0.00    +0.000 C 
ATOM     19  C   UNL     1       4.290   3.426  11.533  0.00  0.00    +0.000 C 
ENDBRANCH  16  17
ENDBRANCH  13  16
TORSDOF 3
ENDMDL
MODEL 3
REMARK VINA RESULT:      -6.9      0.789      1.098
REMARK  Name = 
REMARK  6 active torsions:
REMARK  status: ('A' for Active; 'I' for Inactive)
REMARK    1  A    between atoms: C_1  and  S_2
REMARK    2  A    between atoms: S_2  and  C_3
REMARK    3  A    between atoms: N_15  and  C_16
REMARK    4  A    between atoms: C_16  and  C_17
REMARK    5  A    between atoms: C_17  and  C_18
REMARK    6  A    between atoms: C_17  and  C_19
REMARK                            x       y       z     vdW  Elec       q    Type
REMARK                         _______ _______ _______ _____ _____    ______ ____
ROOT
ATOM      1  C   UNL     1       7.007   6.035  17.377  0.00  0.00    +0.000 A 
ATOM      2  N   UNL     1       7.473   5.851  16.117  0.00  0.00    +0.000 NA
ATOM      3  C   UNL     1       6.776   5.127  15.244  0.00  0.00    +0.000 A 
ATOM      4  C   UNL     1       7.343   4.920  13.996  0.00  0.00    +0.000 A 
ATOM      5  C   UNL     1       6.708   4.173  13.007  0.00  0.00    +0.000 A 
ATOM      6  C   UNL     1       5.460   3.611  13.258  0.00  0.00    +0.000 A 
ATOM      7  C   UNL     1       4.858   3.788  14.508  0.00  0.00    +0.000 A 
ATOM      8  C   UNL     1       5.509   4.537  15.510  0.00  0.00    +0.000 A 
ATOM      9  C   UNL     1       5.021   4.743  16.840  0.00  0.00    +0.000 A 
ATOM     10  C   UNL     1       5.779   5.469  17.767  0.00  0.00    +0.000 A 
ATOM     11  N   UNL     1       5.169   5.483  19.002  0.00  0.00    +0.000 NA
ATOM     12  C   UNL     1       4.071   4.781  18.852  0.00  0.00    +0.000 A 
ATOM     13  N   UNL     1       3.902   4.356  17.559  0.00  0.00    +0.000 N 
ENDROOT
BRANCH   1  15
ATOM     14  C   UNL     1       7.965   8.565  17.790  0.00  0.00    +0.000 C 
ATOM     15  S   UNL     1       7.968   6.932  18.560  0.00  0.00    +0.000 S 
ENDBRANCH   1  15
BRANCH  13  16
ATOM     16  C   UNL     1       2.697   3.687  17.086  0.00  0.00    +0.000 C 
BRANCH  16  17
ATOM     17  C   UNL     1       2.414   2.291  17.682  0.00  0.00    +0.000 C 
ATOM     18  C   UNL     1       3.671   1.615  18.241  0.00  0.00    +0.000 C 
ATOM     19  C   UNL     1       1.375   2.373  18.809  0.00  0.00    +0.000 C 
ENDBRANCH  16  17
ENDBRANCH  13  16
TORSDOF 3
ENDMDL
MODEL 4
REMARK VINA RESULT:      -6.7      3.060      3.872
REMARK  Name = 
REMARK  6 active torsions:
REMARK  status: ('A' for Active; 'I' for Inactive)
REMARK    1  A    between atoms: C_1  and  S_2
REMARK    2  A    between atoms: S_2  and  C_3
REMARK    3  A    between atoms: N_15  and  C_16
REMARK    4  A    between atoms: C_16  and  C_17
REMARK    5  A    between atoms: C_17  and  C_18
REMARK    6  A    between atoms: C_17  and  C_19
REMARK                            x       y       z     vdW  Elec       q    Type
REMARK                         _______ _______ _______ _____ _____    ______ ____
ROOT
ATOM      1  C   UNL     1       2.467   7.499  18.867  0.00  0.00    +0.000 A 
ATOM      2  N   UNL     1       3.277   7.608  17.786  0.00  0.00    +0.000 NA
ATOM      3  C   UNL     1       4.044   6.584  17.418  0.00  0.00    +0.000 A 
ATOM      4  C   UNL     1       4.901   6.785  16.347  0.00  0.00    +0.000 A 
ATOM      5  C   UNL     1       5.754   5.788  15.881  0.00  0.00    +0.000 A 
ATOM      6  C   UNL     1       5.759   4.539  16.493  0.00  0.00    +0.000 A 
ATOM      7  C   UNL     1       4.917   4.298  17.584  0.00  0.00    +0.000 A 
ATOM      8  C   UNL     1       4.061   5.314  18.059  0.00  0.00    +0.000 A 
ATOM      9  C   UNL     1       3.197   5.206  19.195  0.00  0.00    +0.000 A 
ATOM     10  C   UNL     1       2.424   6.300  19.602  0.00  0.00    +0.000 A 
ATOM     11  N   UNL     1       1.727   6.012  20.755  0.00  0.00    +0.000 NA
ATOM     12  C   UNL     1       2.061   4.780  21.060  0.00  0.00    +0.000 A 
ATOM     13  N   UNL     1       2.901   4.226  20.128  0.00  0.00    +0.000 N 
ENDROOT
BRANCH   1  15
ATOM     14  C   UNL     1       1.435   9.827  17.863  0.00  0.00    +0.000 C 
ATOM     15  S   UNL     1       1.504   8.884  19.402  0.00  0.00    +0.000 S 
ENDBRANCH   1  15
BRANCH  13  16
ATOM     16  C   UNL     1       3.304   2.826  20.144  0.00  0.00    +0.000 C 
BRANCH  16  17
ATOM     17  C   UNL     1       2.526   1.882  19.201  0.00  0.00    +0.000 C 
ATOM     18  C   UNL     1       1.214   2.492  18.696  0.00  0.00    +0.000 C 
ATOM     19  C   UNL     1       3.376   1.499  17.981  0.00  0.00    +0.000 C 
ENDBRANCH  16  17
ENDBRANCH  13  16
TORSDOF 3
ENDMDL
MODEL 5
REMARK VINA RESULT:      -6.7      3.230      6.008
REMARK  Name = 
REMARK  6 active torsions:
REMARK  status: ('A' for Active; 'I' for Inactive)
REMARK    1  A    between atoms: C_1  and  S_2
REMARK    2  A    between atoms: S_2  and  C_3
REMARK    3  A    between atoms: N_15  and  C_16
REMARK    4  A    between atoms: C_16  and  C_17
REMARK    5  A    between atoms: C_17  and  C_18
REMARK    6  A    between atoms: C_17  and  C_19
REMARK                            x       y       z     vdW  Elec       q    Type
REMARK                         _______ _______ _______ _____ _____    ______ ____
ROOT
ATOM      1  C   UNL     1       2.127   7.153  19.813  0.00  0.00    +0.000 A 
ATOM      2  N   UNL     1       1.819   6.169  20.693  0.00  0.00    +0.000 NA
ATOM      3  C   UNL     1       2.301   4.940  20.520  0.00  0.00    +0.000 A 
ATOM      4  C   UNL     1       1.891   3.965  21.415  0.00  0.00    +0.000 A 
ATOM      5  C   UNL     1       2.325   2.645  21.326  0.00  0.00    +0.000 A 
ATOM      6  C   UNL     1       3.203   2.272  20.313  0.00  0.00    +0.000 A 
ATOM      7  C   UNL     1       3.633   3.223  19.382  0.00  0.00    +0.000 A 
ATOM      8  C   UNL     1       3.184   4.557  19.471  0.00  0.00    +0.000 A 
ATOM      9  C   UNL     1       3.509   5.605  18.551  0.00  0.00    +0.000 A 
ATOM     10  C   UNL     1       2.966   6.885  18.715  0.00  0.00    +0.000 A 
ATOM     11  N   UNL     1       3.341   7.717  17.685  0.00  0.00    +0.000 NA
ATOM     12  C   UNL     1       4.089   6.978  16.899  0.00  0.00    +0.000 A 
ATOM     13  N   UNL     1       4.269   5.714  17.398  0.00  0.00    +0.000 N 
ENDROOT
BRANCH   1  15
ATOM     14  C   UNL     1       1.184   8.795  21.790  0.00  0.00    +0.000 C 
ATOM     15  S   UNL     1       1.426   8.766  20.000  0.00  0.00    +0.000 S 
ENDBRANCH   1  15
BRANCH  13  16
ATOM     16  C   UNL     1       5.175   4.739  16.804  0.00  0.00    +0.000 C 
BRANCH  16  17
ATOM     17  C   UNL     1       6.630   5.208  16.583  0.00  0.00    +0.000 C 
ATOM     18  C   UNL     1       7.604   4.638  17.619  0.00  0.00    +0.000 C 
ATOM     19  C   UNL     1       7.130   4.812  15.186  0.00  0.00    +0.000 C 
ENDBRANCH  16  17
ENDBRANCH  13  16
TORSDOF 3
ENDMDL
MODEL 6
REMARK VINA RESULT:      -6.7      2.954      5.288
REMARK  Name = 
REMARK  6 active torsions:
REMARK  status: ('A' for Active; 'I' for Inactive)
REMARK    1  A    between atoms: C_1  and  S_2
REMARK    2  A    between atoms: S_2  and  C_3
REMARK    3  A    between atoms: N_15  and  C_16
REMARK    4  A    between atoms: C_16  and  C_17
REMARK    5  A    between atoms: C_17  and  C_18
REMARK    6  A    between atoms: C_17  and  C_19
REMARK                            x       y       z     vdW  Elec       q    Type
REMARK                         _______ _______ _______ _____ _____    ______ ____
ROOT
ATOM      1  C   UNL     1       5.669   4.691  18.271  0.00  0.00    +0.000 A 
ATOM      2  N   UNL     1       5.192   3.705  19.069  0.00  0.00    +0.000 NA
ATOM      3  C   UNL     1       3.970   3.795  19.588  0.00  0.00    +0.000 A 
ATOM      4  C   UNL     1       3.571   2.786  20.451  0.00  0.00    +0.000 A 
ATOM      5  C   UNL     1       2.319   2.782  21.059  0.00  0.00    +0.000 A 
ATOM      6  C   UNL     1       1.420   3.812  20.802  0.00  0.00    +0.000 A 
ATOM      7  C   UNL     1       1.788   4.855  19.945  0.00  0.00    +0.000 A 
ATOM      8  C   UNL     1       3.061   4.861  19.339  0.00  0.00    +0.000 A 
ATOM      9  C   UNL     1       3.570   5.894  18.489  0.00  0.00    +0.000 A 
ATOM     10  C   UNL     1       4.872   5.814  17.979  0.00  0.00    +0.000 A 
ATOM     11  N   UNL     1       5.190   6.941  17.254  0.00  0.00    +0.000 NA
ATOM     12  C   UNL     1       4.123   7.703  17.316  0.00  0.00    +0.000 A 
ATOM     13  N   UNL     1       3.098   7.102  18.001  0.00  0.00    +0.000 N 
ENDROOT
BRANCH   1  15
ATOM     14  C   UNL     1       6.972   4.345  15.889  0.00  0.00    +0.000 C 
ATOM     15  S   UNL     1       7.320   4.609  17.641  0.00  0.00    +0.000 S 
ENDBRANCH   1  15
BRANCH  13  16
ATOM     16  C   UNL     1       1.756   7.662  18.090  0.00  0.00    +0.000 C 
BRANCH  16  17
ATOM     17  C   UNL     1       1.610   8.949  18.933  0.00  0.00    +0.000 C 
ATOM     18  C   UNL     1       0.529   9.893  18.397  0.00  0.00    +0.000 C 
ATOM     19  C   UNL     1       1.274   8.616  20.393  0.00  0.00    +0.000 C 
ENDBRANCH  16  17
ENDBRANCH  13  16
TORSDOF 3
ENDMDL
MODEL 7
REMARK VINA RESULT:      -6.7      3.200      5.589
REMARK  Name = 
REMARK  6 active torsions:
REMARK  status: ('A' for Active; 'I' for Inactive)
REMARK    1  A    between atoms: C_1  and  S_2
REMARK    2  A    between atoms: S_2  and  C_3
REMARK    3  A    between atoms: N_15  and  C_16
REMARK    4  A    between atoms: C_16  and  C_17
REMARK    5  A    between atoms: C_17  and  C_18
REMARK    6  A    between atoms: C_17  and  C_19
REMARK                            x       y       z     vdW  Elec       q    Type
REMARK                         _______ _______ _______ _____ _____    ______ ____
ROOT
ATOM      1  C   UNL     1       4.578   4.287  17.072  0.00  0.00    +0.000 A 
ATOM      2  N   UNL     1       4.010   3.284  17.785  0.00  0.00    +0.000 NA
ATOM      3  C   UNL     1       3.066   3.553  18.684  0.00  0.00    +0.000 A 
ATOM      4  C   UNL     1       2.576   2.492  19.428  0.00  0.00    +0.000 A 
ATOM      5  C   UNL     1       1.594   2.657  20.402  0.00  0.00    +0.000 A 
ATOM      6  C   UNL     1       1.069   3.922  20.647  0.00  0.00    +0.000 A 
ATOM      7  C   UNL     1       1.543   5.022  19.925  0.00  0.00    +0.000 A 
ATOM      8  C   UNL     1       2.545   4.852  18.947  0.00  0.00    +0.000 A 
ATOM      9  C   UNL     1       3.146   5.903  18.183  0.00  0.00    +0.000 A 
ATOM     10  C   UNL     1       4.168   5.618  17.270  0.00  0.00    +0.000 A 
ATOM     11  N   UNL     1       4.659   6.772  16.702  0.00  0.00    +0.000 NA
ATOM     12  C   UNL     1       3.971   7.746  17.249  0.00  0.00    +0.000 A 
ATOM     13  N   UNL     1       3.010   7.279  18.109  0.00  0.00    +0.000 N 
ENDROOT
BRANCH   1  15
ATOM     14  C   UNL     1       7.303   4.488  16.907  0.00  0.00    +0.000 C 
ATOM     15  S   UNL     1       5.886   3.939  15.932  0.00  0.00    +0.000 S 
ENDBRANCH   1  15
BRANCH  13  16
ATOM     16  C   UNL     1       2.010   8.134  18.735  0.00  0.00    +0.000 C 
BRANCH  16  17
ATOM     17  C   UNL     1       1.477   9.302  17.874  0.00  0.00    +0.000 C 
ATOM     18  C   UNL     1      -0.033   9.512  18.024  0.00  0.00    +0.000 C 
ATOM     19  C   UNL     1       2.182  10.618  18.234  0.00  0.00    +0.000 C 
ENDBRANCH  16  17
ENDBRANCH  13  16
TORSDOF 3
ENDMDL
MODEL 8
REMARK VINA RESULT:      -6.6      2.836      5.010
REMARK  Name = 
REMARK  6 active torsions:
REMARK  status: ('A' for Active; 'I' for Inactive)
REMARK    1  A    between atoms: C_1  and  S_2
REMARK    2  A    between atoms: S_2  and  C_3
REMARK    3  A    between atoms: N_15  and  C_16
REMARK    4  A    between atoms: C_16  and  C_17
REMARK    5  A    between atoms: C_17  and  C_18
REMARK    6  A    between atoms: C_17  and  C_19
REMARK                            x       y       z     vdW  Elec       q    Type
REMARK                         _______ _______ _______ _____ _____    ______ ____
ROOT
ATOM      1  C   UNL     1       4.994   4.368  16.883  0.00  0.00    +0.000 A 
ATOM      2  N   UNL     1       4.423   3.213  17.304  0.00  0.00    +0.000 NA
ATOM      3  C   UNL     1       3.286   3.240  17.994  0.00  0.00    +0.000 A 
ATOM      4  C   UNL     1       2.793   2.028  18.453  0.00  0.00    +0.000 A 
ATOM      5  C   UNL     1       1.616   1.938  19.192  0.00  0.00    +0.000 A 
ATOM      6  C   UNL     1       0.892   3.089  19.485  0.00  0.00    +0.000 A 
ATOM      7  C   UNL     1       1.361   4.333  19.049  0.00  0.00    +0.000 A 
ATOM      8  C   UNL     1       2.558   4.422  18.309  0.00  0.00    +0.000 A 
ATOM      9  C   UNL     1       3.165   5.636  17.855  0.00  0.00    +0.000 A 
ATOM     10  C   UNL     1       4.383   5.604  17.166  0.00  0.00    +0.000 A 
ATOM     11  N   UNL     1       4.829   6.877  16.890  0.00  0.00    +0.000 NA
ATOM     12  C   UNL     1       3.921   7.678  17.397  0.00  0.00    +0.000 A 
ATOM     13  N   UNL     1       2.870   6.987  17.943  0.00  0.00    +0.000 N 
ENDROOT
BRANCH   1  15
ATOM     14  C   UNL     1       7.670   4.562  17.428  0.00  0.00    +0.000 C 
ATOM     15  S   UNL     1       6.545   4.338  16.032  0.00  0.00    +0.000 S 
ENDBRANCH   1  15
BRANCH  13  16
ATOM     16  C   UNL     1       1.660   7.629  18.438  0.00  0.00    +0.000 C 
BRANCH  16  17
ATOM     17  C   UNL     1       1.795   8.404  19.768  0.00  0.00    +0.000 C 
ATOM     18  C   UNL     1       0.903   9.648  19.826  0.00  0.00    +0.000 C 
ATOM     19  C   UNL     1       1.447   7.509  20.965  0.00  0.00    +0.000 C 
ENDBRANCH  16  17
ENDBRANCH  13  16
TORSDOF 3
ENDMDL
MODEL 9
REMARK VINA RESULT:      -6.6      3.384      5.636
REMARK  Name = 
REMARK  6 active torsions:
REMARK  status: ('A' for Active; 'I' for Inactive)
REMARK    1  A    between atoms: C_1  and  S_2
REMARK    2  A    between atoms: S_2  and  C_3
REMARK    3  A    between atoms: N_15  and  C_16
REMARK    4  A    between atoms: C_16  and  C_17
REMARK    5  A    between atoms: C_17  and  C_18
REMARK    6  A    between atoms: C_17  and  C_19
REMARK                            x       y       z     vdW  Elec       q    Type
REMARK                         _______ _______ _______ _____ _____    ______ ____
ROOT
ATOM      1  C   UNL     1       4.655   4.473  17.479  0.00  0.00    +0.000 A 
ATOM      2  N   UNL     1       4.417   3.426  18.306  0.00  0.00    +0.000 NA
ATOM      3  C   UNL     1       3.617   3.573  19.359  0.00  0.00    +0.000 A 
ATOM      4  C   UNL     1       3.471   2.483  20.203  0.00  0.00    +0.000 A 
ATOM      5  C   UNL     1       2.666   2.525  21.338  0.00  0.00    +0.000 A 
ATOM      6  C   UNL     1       1.971   3.689  21.651  0.00  0.00    +0.000 A 
ATOM      7  C   UNL     1       2.098   4.815  20.831  0.00  0.00    +0.000 A 
ATOM      8  C   UNL     1       2.923   4.771  19.687  0.00  0.00    +0.000 A 
ATOM      9  C   UNL     1       3.174   5.869  18.804  0.00  0.00    +0.000 A 
ATOM     10  C   UNL     1       4.050   5.720  17.722  0.00  0.00    +0.000 A 
ATOM     11  N   UNL     1       4.212   6.910  17.049  0.00  0.00    +0.000 NA
ATOM     12  C   UNL     1       3.466   7.776  17.695  0.00  0.00    +0.000 A 
ATOM     13  N   UNL     1       2.776   7.194  18.727  0.00  0.00    +0.000 N 
ENDROOT
BRANCH   1  15
ATOM     14  C   UNL     1       7.344   4.580  16.979  0.00  0.00    +0.000 C 
ATOM     15  S   UNL     1       5.779   4.300  16.123  0.00  0.00    +0.000 S 
ENDBRANCH   1  15
BRANCH  13  16
ATOM     16  C   UNL     1       1.765   7.892  19.510  0.00  0.00    +0.000 C 
BRANCH  16  17
ATOM     17  C   UNL     1       1.459   9.345  19.087  0.00  0.00    +0.000 C 
ATOM     18  C   UNL     1       0.481   9.431  17.910  0.00  0.00    +0.000 C 
ATOM     19  C   UNL     1       0.872  10.148  20.256  0.00  0.00    +0.000 C 
ENDBRANCH  16  17
ENDBRANCH  13  16
TORSDOF 3
ENDMDL
