MODEL 1
REMARK VINA RESULT:      -7.8      0.000      0.000
REMARK  Name = 
REMARK  9 active torsions:
REMARK  status: ('A' for Active; 'I' for Inactive)
REMARK    1  A    between atoms: C_1  and  C_2
REMARK    2  A    between atoms: C_3  and  C_4
REMARK    3  A    between atoms: C_5  and  C_6
REMARK    4  A    between atoms: C_6  and  C_8
REMARK    5  A    between atoms: C_9  and  C_10
REMARK    6  A    between atoms: C_14  and  C_15
REMARK    7  A    between atoms: C_18  and  C_19
REMARK    8  A    between atoms: C_18  and  C_20
REMARK    9  A    between atoms: C_23  and  O_24
REMARK                            x       y       z     vdW  Elec       q    Type
REMARK                         _______ _______ _______ _____ _____    ______ ____
ROOT
ATOM      1  C   UNL     1       5.031   6.035  17.552  0.00  0.00    +0.000 C 
ATOM      2  C   UNL     1       6.104   6.725  17.985  0.00  0.00    +0.000 C 
ENDROOT
BRANCH   1   5
ATOM      3  C   UNL     1       2.673   7.878  18.630  0.00  0.00    +0.000 C 
ATOM      4  C   UNL     1       2.868   6.376  18.818  0.00  0.00    +0.000 C 
ATOM      5  C   UNL     1       3.864   5.576  18.350  0.00  0.00    +0.000 C 
ATOM      6  C   UNL     1       3.832   4.035  18.598  0.00  0.00    +0.000 C 
ATOM      7  C   UNL     1       5.052   3.663  19.478  0.00  0.00    +0.000 C 
ATOM      8  C   UNL     1       3.878   3.267  17.247  0.00  0.00    +0.000 C 
ATOM      9  C   UNL     1       2.586   3.446  19.331  0.00  0.00    +0.000 C 
ATOM     10  C   UNL     1       1.524   4.374  19.869  0.00  0.00    +0.000 C 
ATOM     11  C   UNL     1       1.696   5.856  19.621  0.00  0.00    +0.000 C 
BRANCH  11  12
ATOM     12  O   UNL     1       1.730   6.496  20.901  0.00  0.00    +0.000 OA
ATOM     13  H   UNL     1       1.285   5.894  21.522  0.00  0.00    +0.000 HD
ENDBRANCH  11  12
ENDBRANCH   1   5
BRANCH   2  14
ATOM     14  C   UNL     1       7.250   7.146  17.101  0.00  0.00    +0.000 C 
ATOM     15  O   UNL     1       7.679   6.509  16.167  0.00  0.00    +0.000 OA
BRANCH  14  16
ATOM     16  C   UNL     1       7.783   8.490  17.511  0.00  0.00    +0.000 C 
ATOM     17  C   UNL     1       8.586   8.644  18.573  0.00  0.00    +0.000 C 
BRANCH  17  18
ATOM     18  C   UNL     1       9.128   9.953  18.975  0.00  0.00    +0.000 A 
ATOM     19  C   UNL     1       9.127  10.395  20.305  0.00  0.00    +0.000 A 
ATOM     20  C   UNL     1       9.690  11.630  20.649  0.00  0.00    +0.000 A 
ATOM     21  C   UNL     1      10.261  12.430  19.661  0.00  0.00    +0.000 A 
ATOM     22  C   UNL     1      10.267  12.000  18.331  0.00  0.00    +0.000 A 
ATOM     23  C   UNL     1       9.709  10.764  17.992  0.00  0.00    +0.000 A 
BRANCH  22  24
ATOM     24  C   UNL     1      10.847  12.828  17.313  0.00  0.00    +0.000 C 
ATOM     25  N   UNL     1      11.319  13.499  16.494  0.00  0.00    +0.000 NA
ENDBRANCH  22  24
ENDBRANCH  17  18
ENDBRANCH  14  16
ENDBRANCH   2  14
TORSDOF 6
ENDMDL
MODEL 2
REMARK VINA RESULT:      -7.8      5.541      7.743
REMARK  Name = 
REMARK  9 active torsions:
REMARK  status: ('A' for Active; 'I' for Inactive)
REMARK    1  A    between atoms: C_1  and  C_2
REMARK    2  A    between atoms: C_3  and  C_4
REMARK    3  A    between atoms: C_5  and  C_6
REMARK    4  A    between atoms: C_6  and  C_8
REMARK    5  A    between atoms: C_9  and  C_10
REMARK    6  A    between atoms: C_14  and  C_15
REMARK    7  A    between atoms: C_18  and  C_19
REMARK    8  A    between atoms: C_18  and  C_20
REMARK    9  A    between atoms: C_23  and  O_24
REMARK                            x       y       z     vdW  Elec       q    Type
REMARK                         _______ _______ _______ _____ _____    ______ ____
ROOT
ATOM      1  C   UNL     1       4.376   4.153  17.400  0.00  0.00    +0.000 C 
ATOM      2  C   UNL     1       5.551   4.810  17.388  0.00  0.00    +0.000 C 
ENDROOT
BRANCH   1   5
ATOM      3  C   UNL     1       2.760   6.741  18.300  0.00  0.00    +0.000 C 
ATOM      4  C   UNL     1       2.645   5.316  18.832  0.00  0.00    +0.000 C 
ATOM      5  C   UNL     1       3.320   4.199  18.445  0.00  0.00    +0.000 C 
ATOM      6  C   UNL     1       2.991   2.810  19.077  0.00  0.00    +0.000 C 
ATOM      7  C   UNL     1       4.247   2.319  19.840  0.00  0.00    +0.000 C 
ATOM      8  C   UNL     1       2.590   1.793  17.972  0.00  0.00    +0.000 C 
ATOM      9  C   UNL     1       1.818   2.741  20.104  0.00  0.00    +0.000 C 
ATOM     10  C   UNL     1       1.123   4.010  20.535  0.00  0.00    +0.000 C 
ATOM     11  C   UNL     1       1.572   5.307  19.899  0.00  0.00    +0.000 C 
BRANCH  11  12
ATOM     12  O   UNL     1       2.007   6.167  20.957  0.00  0.00    +0.000 OA
ATOM     13  H   UNL     1       1.460   6.970  20.900  0.00  0.00    +0.000 HD
ENDBRANCH  11  12
ENDBRANCH   1   5
BRANCH   2  14
ATOM     14  C   UNL     1       6.570   4.699  16.282  0.00  0.00    +0.000 C 
ATOM     15  O   UNL     1       7.699   5.129  16.330  0.00  0.00    +0.000 OA
BRANCH  14  16
ATOM     16  C   UNL     1       6.010   3.951  15.105  0.00  0.00    +0.000 C 
ATOM     17  C   UNL     1       6.371   4.231  13.845  0.00  0.00    +0.000 C 
BRANCH  17  18
ATOM     18  C   UNL     1       5.842   3.494  12.686  0.00  0.00    +0.000 A 
ATOM     19  C   UNL     1       6.299   2.218  12.328  0.00  0.00    +0.000 A 
ATOM     20  C   UNL     1       5.738   1.534  11.242  0.00  0.00    +0.000 A 
ATOM     21  C   UNL     1       4.712   2.125  10.508  0.00  0.00    +0.000 A 
ATOM     22  C   UNL     1       4.248   3.398  10.854  0.00  0.00    +0.000 A 
ATOM     23  C   UNL     1       4.806   4.074  11.943  0.00  0.00    +0.000 A 
BRANCH  22  24
ATOM     24  C   UNL     1       3.198   4.009  10.091  0.00  0.00    +0.000 C 
ATOM     25  N   UNL     1       2.346   4.499   9.476  0.00  0.00    +0.000 NA
ENDBRANCH  22  24
ENDBRANCH  17  18
ENDBRANCH  14  16
ENDBRANCH   2  14
TORSDOF 6
ENDMDL
MODEL 3
REMARK VINA RESULT:      -7.7      5.194      7.100
REMARK  Name = 
REMARK  9 active torsions:
REMARK  status: ('A' for Active; 'I' for Inactive)
REMARK    1  A    between atoms: C_1  and  C_2
REMARK    2  A    between atoms: C_3  and  C_4
REMARK    3  A    between atoms: C_5  and  C_6
REMARK    4  A    between atoms: C_6  and  C_8
REMARK    5  A    between atoms: C_9  and  C_10
REMARK    6  A    between atoms: C_14  and  C_15
REMARK    7  A    between atoms: C_18  and  C_19
REMARK    8  A    between atoms: C_18  and  C_20
REMARK    9  A    between atoms: C_23  and  O_24
REMARK                            x       y       z     vdW  Elec       q    Type
REMARK                         _______ _______ _______ _____ _____    ______ ____
ROOT
ATOM      1  C   UNL     1       1.959   7.259  20.542  0.00  0.00    +0.000 C 
ATOM      2  C   UNL     1       1.647   6.024  20.103  0.00  0.00    +0.000 C 
ENDROOT
BRANCH   1   5
ATOM      3  C   UNL     1       2.148   8.614  17.670  0.00  0.00    +0.000 C 
ATOM      4  C   UNL     1       1.434   9.125  18.917  0.00  0.00    +0.000 C 
ATOM      5  C   UNL     1       1.334   8.548  20.146  0.00  0.00    +0.000 C 
ATOM      6  C   UNL     1       0.482   9.213  21.272  0.00  0.00    +0.000 C 
ATOM      7  C   UNL     1       1.435   9.603  22.430  0.00  0.00    +0.000 C 
ATOM      8  C   UNL     1      -0.614   8.231  21.775  0.00  0.00    +0.000 C 
ATOM      9  C   UNL     1      -0.304  10.513  20.915  0.00  0.00    +0.000 C 
ATOM     10  C   UNL     1      -0.133  11.141  19.552  0.00  0.00    +0.000 C 
ATOM     11  C   UNL     1       0.770  10.439  18.564  0.00  0.00    +0.000 C 
BRANCH  11  12
ATOM     12  O   UNL     1       1.803  11.362  18.205  0.00  0.00    +0.000 OA
ATOM     13  H   UNL     1       2.645  10.888  18.313  0.00  0.00    +0.000 HD
ENDBRANCH  11  12
ENDBRANCH   1   5
BRANCH   2  14
ATOM     14  C   UNL     1       2.342   4.766  20.559  0.00  0.00    +0.000 C 
ATOM     15  O   UNL     1       1.929   4.012  21.409  0.00  0.00    +0.000 OA
BRANCH  14  16
ATOM     16  C   UNL     1       3.616   4.545  19.794  0.00  0.00    +0.000 C 
ATOM     17  C   UNL     1       3.816   5.065  18.575  0.00  0.00    +0.000 C 
BRANCH  17  18
ATOM     18  C   UNL     1       5.067   4.868  17.823  0.00  0.00    +0.000 A 
ATOM     19  C   UNL     1       6.330   4.955  18.424  0.00  0.00    +0.000 A 
ATOM     20  C   UNL     1       7.494   4.718  17.681  0.00  0.00    +0.000 A 
ATOM     21  C   UNL     1       7.398   4.391  16.330  0.00  0.00    +0.000 A 
ATOM     22  C   UNL     1       6.143   4.302  15.720  0.00  0.00    +0.000 A 
ATOM     23  C   UNL     1       4.984   4.533  16.466  0.00  0.00    +0.000 A 
BRANCH  22  24
ATOM     24  C   UNL     1       6.046   3.975  14.326  0.00  0.00    +0.000 C 
ATOM     25  N   UNL     1       5.963   3.706  13.201  0.00  0.00    +0.000 NA
ENDBRANCH  22  24
ENDBRANCH  17  18
ENDBRANCH  14  16
ENDBRANCH   2  14
TORSDOF 6
ENDMDL
MODEL 4
REMARK VINA RESULT:      -7.6      5.523      7.477
REMARK  Name = 
REMARK  9 active torsions:
REMARK  status: ('A' for Active; 'I' for Inactive)
REMARK    1  A    between atoms: C_1  and  C_2
REMARK    2  A    between atoms: C_3  and  C_4
REMARK    3  A    between atoms: C_5  and  C_6
REMARK    4  A    between atoms: C_6  and  C_8
REMARK    5  A    between atoms: C_9  and  C_10
REMARK    6  A    between atoms: C_14  and  C_15
REMARK    7  A    between atoms: C_18  and  C_19
REMARK    8  A    between atoms: C_18  and  C_20
REMARK    9  A    between atoms: C_23  and  O_24
REMARK                            x       y       z     vdW  Elec       q    Type
REMARK                         _______ _______ _______ _____ _____    ______ ____
ROOT
ATOM      1  C   UNL     1       2.500   6.047  18.410  0.00  0.00    +0.000 C 
ATOM      2  C   UNL     1       2.590   7.293  18.915  0.00  0.00    +0.000 C 
ENDROOT
BRANCH   1   5
ATOM      3  C   UNL     1       0.771   4.289  20.421  0.00  0.00    +0.000 C 
ATOM      4  C   UNL     1       2.190   4.040  19.917  0.00  0.00    +0.000 C 
ATOM      5  C   UNL     1       2.934   4.776  19.047  0.00  0.00    +0.000 C 
ATOM      6  C   UNL     1       4.351   4.295  18.604  0.00  0.00    +0.000 C 
ATOM      7  C   UNL     1       5.388   5.332  19.102  0.00  0.00    +0.000 C 
ATOM      8  C   UNL     1       4.417   4.156  17.056  0.00  0.00    +0.000 C 
ATOM      9  C   UNL     1       4.845   2.914  19.133  0.00  0.00    +0.000 C 
ATOM     10  C   UNL     1       4.006   2.148  20.128  0.00  0.00    +0.000 C 
ATOM     11  C   UNL     1       2.677   2.746  20.532  0.00  0.00    +0.000 C 
BRANCH  11  12
ATOM     12  O   UNL     1       2.710   2.927  21.952  0.00  0.00    +0.000 OA
ATOM     13  H   UNL     1       2.598   3.880  22.110  0.00  0.00    +0.000 HD
ENDBRANCH  11  12
ENDBRANCH   1   5
BRANCH   2  14
ATOM     14  C   UNL     1       2.127   8.532  18.193  0.00  0.00    +0.000 C 
ATOM     15  O   UNL     1       2.410   8.821  17.053  0.00  0.00    +0.000 OA
BRANCH  14  16
ATOM     16  C   UNL     1       1.232   9.365  19.067  0.00  0.00    +0.000 C 
ATOM     17  C   UNL     1       0.955   9.025  20.333  0.00  0.00    +0.000 C 
BRANCH  17  18
ATOM     18  C   UNL     1       0.092   9.842  21.203  0.00  0.00    +0.000 A 
ATOM     19  C   UNL     1      -0.191   9.491  22.530  0.00  0.00    +0.000 A 
ATOM     20  C   UNL     1      -0.983  10.319  23.336  0.00  0.00    +0.000 A 
ATOM     21  C   UNL     1      -1.495  11.506  22.817  0.00  0.00    +0.000 A 
ATOM     22  C   UNL     1      -1.221  11.866  21.494  0.00  0.00    +0.000 A 
ATOM     23  C   UNL     1      -0.425  11.040  20.694  0.00  0.00    +0.000 A 
BRANCH  22  24
ATOM     24  C   UNL     1      -1.757  13.083  20.956  0.00  0.00    +0.000 C 
ATOM     25  N   UNL     1      -2.186  14.067  20.518  0.00  0.00    +0.000 NA
ENDBRANCH  22  24
ENDBRANCH  17  18
ENDBRANCH  14  16
ENDBRANCH   2  14
TORSDOF 6
ENDMDL
MODEL 5
REMARK VINA RESULT:      -7.4      5.078      6.568
REMARK  Name = 
REMARK  9 active torsions:
REMARK  status: ('A' for Active; 'I' for Inactive)
REMARK    1  A    between atoms: C_1  and  C_2
REMARK    2  A    between atoms: C_3  and  C_4
REMARK    3  A    between atoms: C_5  and  C_6
REMARK    4  A    between atoms: C_6  and  C_8
REMARK    5  A    between atoms: C_9  and  C_10
REMARK    6  A    between atoms: C_14  and  C_15
REMARK    7  A    between atoms: C_18  and  C_19
REMARK    8  A    between atoms: C_18  and  C_20
REMARK    9  A    between atoms: C_23  and  O_24
REMARK                            x       y       z     vdW  Elec       q    Type
REMARK                         _______ _______ _______ _____ _____    ______ ____
ROOT
ATOM      1  C   UNL     1       4.732   3.990  19.044  0.00  0.00    +0.000 C 
ATOM      2  C   UNL     1       5.166   5.216  18.694  0.00  0.00    +0.000 C 
ENDROOT
BRANCH   1   5
ATOM      3  C   UNL     1       2.740   5.056  21.283  0.00  0.00    +0.000 C 
ATOM      4  C   UNL     1       2.489   3.998  20.212  0.00  0.00    +0.000 C 
ATOM      5  C   UNL     1       3.329   3.545  19.241  0.00  0.00    +0.000 C 
ATOM      6  C   UNL     1       2.840   2.500  18.189  0.00  0.00    +0.000 C 
ATOM      7  C   UNL     1       3.670   1.205  18.375  0.00  0.00    +0.000 C 
ATOM      8  C   UNL     1       3.016   3.059  16.748  0.00  0.00    +0.000 C 
ATOM      9  C   UNL     1       1.345   2.058  18.248  0.00  0.00    +0.000 C 
ATOM     10  C   UNL     1       0.459   2.554  19.365  0.00  0.00    +0.000 C 
ATOM     11  C   UNL     1       1.063   3.515  20.364  0.00  0.00    +0.000 C 
BRANCH  11  12
ATOM     12  O   UNL     1       0.947   2.910  21.656  0.00  0.00    +0.000 OA
ATOM     13  H   UNL     1       0.318   3.454  22.159  0.00  0.00    +0.000 HD
ENDBRANCH  11  12
ENDBRANCH   1   5
BRANCH   2  14
ATOM     14  C   UNL     1       6.618   5.582  18.521  0.00  0.00    +0.000 C 
ATOM     15  O   UNL     1       7.351   5.957  19.406  0.00  0.00    +0.000 OA
BRANCH  14  16
ATOM     16  C   UNL     1       7.057   5.392  17.096  0.00  0.00    +0.000 C 
ATOM     17  C   UNL     1       6.201   5.038  16.127  0.00  0.00    +0.000 C 
BRANCH  17  18
ATOM     18  C   UNL     1       6.618   4.864  14.726  0.00  0.00    +0.000 A 
ATOM     19  C   UNL     1       7.638   5.627  14.141  0.00  0.00    +0.000 A 
ATOM     20  C   UNL     1       8.031   5.401  12.816  0.00  0.00    +0.000 A 
ATOM     21  C   UNL     1       7.406   4.406  12.068  0.00  0.00    +0.000 A 
ATOM     22  C   UNL     1       6.386   3.639  12.640  0.00  0.00    +0.000 A 
ATOM     23  C   UNL     1       6.000   3.864  13.965  0.00  0.00    +0.000 A 
BRANCH  22  24
ATOM     24  C   UNL     1       5.735   2.621  11.867  0.00  0.00    +0.000 C 
ATOM     25  N   UNL     1       5.215   1.797  11.239  0.00  0.00    +0.000 NA
ENDBRANCH  22  24
ENDBRANCH  17  18
ENDBRANCH  14  16
ENDBRANCH   2  14
TORSDOF 6
ENDMDL
MODEL 6
REMARK VINA RESULT:      -7.4      4.963      6.479
REMARK  Name = 
REMARK  9 active torsions:
REMARK  status: ('A' for Active; 'I' for Inactive)
REMARK    1  A    between atoms: C_1  and  C_2
REMARK    2  A    between atoms: C_3  and  C_4
REMARK    3  A    between atoms: C_5  and  C_6
REMARK    4  A    between atoms: C_6  and  C_8
REMARK    5  A    between atoms: C_9  and  C_10
REMARK    6  A    between atoms: C_14  and  C_15
REMARK    7  A    between atoms: C_18  and  C_19
REMARK    8  A    between atoms: C_18  and  C_20
REMARK    9  A    between atoms: C_23  and  O_24
REMARK                            x       y       z     vdW  Elec       q    Type
REMARK                         _______ _______ _______ _____ _____    ______ ____
ROOT
ATOM      1  C   UNL     1       5.122   4.077  18.865  0.00  0.00    +0.000 C 
ATOM      2  C   UNL     1       5.891   5.183  18.895  0.00  0.00    +0.000 C 
ENDROOT
BRANCH   1   5
ATOM      3  C   UNL     1       3.003   6.449  18.930  0.00  0.00    +0.000 C 
ATOM      4  C   UNL     1       2.797   4.980  19.288  0.00  0.00    +0.000 C 
ATOM      5  C   UNL     1       3.692   3.955  19.250  0.00  0.00    +0.000 C 
ATOM      6  C   UNL     1       3.248   2.498  19.590  0.00  0.00    +0.000 C 
ATOM      7  C   UNL     1       4.014   2.045  20.858  0.00  0.00    +0.000 C 
ATOM      8  C   UNL     1       3.554   1.546  18.398  0.00  0.00    +0.000 C 
ATOM      9  C   UNL     1       1.738   2.253  19.897  0.00  0.00    +0.000 C 
ATOM     10  C   UNL     1       0.788   3.424  19.968  0.00  0.00    +0.000 C 
ATOM     11  C   UNL     1       1.347   4.800  19.681  0.00  0.00    +0.000 C 
BRANCH  11  12
ATOM     12  O   UNL     1       1.111   5.602  20.843  0.00  0.00    +0.000 OA
ATOM     13  H   UNL     1       1.967   5.687  21.297  0.00  0.00    +0.000 HD
ENDBRANCH  11  12
ENDBRANCH   1   5
BRANCH   2  14
ATOM     14  C   UNL     1       7.342   5.214  18.488  0.00  0.00    +0.000 C 
ATOM     15  O   UNL     1       8.279   5.204  19.253  0.00  0.00    +0.000 OA
BRANCH  14  16
ATOM     16  C   UNL     1       7.484   5.229  16.993  0.00  0.00    +0.000 C 
ATOM     17  C   UNL     1       6.641   4.564  16.190  0.00  0.00    +0.000 C 
BRANCH  17  18
ATOM     18  C   UNL     1       6.762   4.585  14.722  0.00  0.00    +0.000 A 
ATOM     19  C   UNL     1       7.827   5.211  14.061  0.00  0.00    +0.000 A 
ATOM     20  C   UNL     1       7.925   5.171  12.664  0.00  0.00    +0.000 A 
ATOM     21  C   UNL     1       6.956   4.501  11.921  0.00  0.00    +0.000 A 
ATOM     22  C   UNL     1       5.887   3.875  12.570  0.00  0.00    +0.000 A 
ATOM     23  C   UNL     1       5.796   3.912  13.964  0.00  0.00    +0.000 A 
BRANCH  22  24
ATOM     24  C   UNL     1       4.883   3.194  11.803  0.00  0.00    +0.000 C 
ATOM     25  N   UNL     1       4.069   2.648  11.184  0.00  0.00    +0.000 NA
ENDBRANCH  22  24
ENDBRANCH  17  18
ENDBRANCH  14  16
ENDBRANCH   2  14
TORSDOF 6
ENDMDL
MODEL 7
REMARK VINA RESULT:      -7.4      5.355      9.041
REMARK  Name = 
REMARK  9 active torsions:
REMARK  status: ('A' for Active; 'I' for Inactive)
REMARK    1  A    between atoms: C_1  and  C_2
REMARK    2  A    between atoms: C_3  and  C_4
REMARK    3  A    between atoms: C_5  and  C_6
REMARK    4  A    between atoms: C_6  and  C_8
REMARK    5  A    between atoms: C_9  and  C_10
REMARK    6  A    between atoms: C_14  and  C_15
REMARK    7  A    between atoms: C_18  and  C_19
REMARK    8  A    between atoms: C_18  and  C_20
REMARK    9  A    between atoms: C_23  and  O_24
REMARK                            x       y       z     vdW  Elec       q    Type
REMARK                         _______ _______ _______ _____ _____    ______ ____
ROOT
ATOM      1  C   UNL     1       2.895   7.218  18.475  0.00  0.00    +0.000 C 
ATOM      2  C   UNL     1       1.991   8.002  17.856  0.00  0.00    +0.000 C 
ENDROOT
BRANCH   1   5
ATOM      3  C   UNL     1       5.585   7.060  16.784  0.00  0.00    +0.000 C 
ATOM      4  C   UNL     1       4.670   5.921  17.224  0.00  0.00    +0.000 C 
ATOM      5  C   UNL     1       3.525   5.976  17.960  0.00  0.00    +0.000 C 
ATOM      6  C   UNL     1       2.776   4.668  18.366  0.00  0.00    +0.000 C 
ATOM      7  C   UNL     1       1.381   4.684  17.692  0.00  0.00    +0.000 C 
ATOM      8  C   UNL     1       2.634   4.582  19.912  0.00  0.00    +0.000 C 
ATOM      9  C   UNL     1       3.424   3.307  17.964  0.00  0.00    +0.000 C 
ATOM     10  C   UNL     1       4.672   3.292  17.114  0.00  0.00    +0.000 C 
ATOM     11  C   UNL     1       5.274   4.625  16.729  0.00  0.00    +0.000 C 
BRANCH  11  12
ATOM     12  O   UNL     1       5.299   4.679  15.299  0.00  0.00    +0.000 OA
ATOM     13  H   UNL     1       4.384   4.541  15.002  0.00  0.00    +0.000 HD
ENDBRANCH  11  12
ENDBRANCH   1   5
BRANCH   2  14
ATOM     14  C   UNL     1       1.399   9.249  18.460  0.00  0.00    +0.000 C 
ATOM     15  O   UNL     1       1.899   9.896  19.351  0.00  0.00    +0.000 OA
BRANCH  14  16
ATOM     16  C   UNL     1       0.104   9.612  17.790  0.00  0.00    +0.000 C 
ATOM     17  C   UNL     1      -0.906  10.189  18.456  0.00  0.00    +0.000 C 
BRANCH  17  18
ATOM     18  C   UNL     1      -2.173  10.564  17.806  0.00  0.00    +0.000 A 
ATOM     19  C   UNL     1      -3.175  11.288  18.465  0.00  0.00    +0.000 A 
ATOM     20  C   UNL     1      -4.348  11.660  17.795  0.00  0.00    +0.000 A 
ATOM     21  C   UNL     1      -4.523  11.310  16.459  0.00  0.00    +0.000 A 
ATOM     22  C   UNL     1      -3.530  10.586  15.790  0.00  0.00    +0.000 A 
ATOM     23  C   UNL     1      -2.359  10.222  16.460  0.00  0.00    +0.000 A 
BRANCH  22  24
ATOM     24  C   UNL     1      -3.716  10.216  14.416  0.00  0.00    +0.000 C 
ATOM     25  N   UNL     1      -3.863   9.923  13.305  0.00  0.00    +0.000 NA
ENDBRANCH  22  24
ENDBRANCH  17  18
ENDBRANCH  14  16
ENDBRANCH   2  14
TORSDOF 6
ENDMDL
MODEL 8
REMARK VINA RESULT:      -7.4      1.153      1.209
REMARK  Name = 
REMARK  9 active torsions:
REMARK  status: ('A' for Active; 'I' for Inactive)
REMARK    1  A    between atoms: C_1  and  C_2
REMARK    2  A    between atoms: C_3  and  C_4
REMARK    3  A    between atoms: C_5  and  C_6
REMARK    4  A    between atoms: C_6  and  C_8
REMARK    5  A    between atoms: C_9  and  C_10
REMARK    6  A    between atoms: C_14  and  C_15
REMARK    7  A    between atoms: C_18  and  C_19
REMARK    8  A    between atoms: C_18  and  C_20
REMARK    9  A    between atoms: C_23  and  O_24
REMARK                            x       y       z     vdW  Elec       q    Type
REMARK                         _______ _______ _______ _____ _____    ______ ____
ROOT
ATOM      1  C   UNL     1       4.957   5.441  17.657  0.00  0.00    +0.000 C 
ATOM      2  C   UNL     1       5.927   6.255  18.117  0.00  0.00    +0.000 C 
ENDROOT
BRANCH   1   5
ATOM      3  C   UNL     1       2.588   7.347  18.593  0.00  0.00    +0.000 C 
ATOM      4  C   UNL     1       2.721   5.837  18.771  0.00  0.00    +0.000 C 
ATOM      5  C   UNL     1       3.723   5.010  18.362  0.00  0.00    +0.000 C 
ATOM      6  C   UNL     1       3.623   3.469  18.583  0.00  0.00    +0.000 C 
ATOM      7  C   UNL     1       4.764   3.045  19.541  0.00  0.00    +0.000 C 
ATOM      8  C   UNL     1       3.741   2.718  17.227  0.00  0.00    +0.000 C 
ATOM      9  C   UNL     1       2.310   2.911  19.216  0.00  0.00    +0.000 C 
ATOM     10  C   UNL     1       1.242   3.867  19.692  0.00  0.00    +0.000 C 
ATOM     11  C   UNL     1       1.479   5.345  19.481  0.00  0.00    +0.000 C 
BRANCH  11  12
ATOM     12  O   UNL     1       1.442   5.967  20.770  0.00  0.00    +0.000 OA
ATOM     13  H   UNL     1       0.524   6.256  20.909  0.00  0.00    +0.000 HD
ENDBRANCH  11  12
ENDBRANCH   1   5
BRANCH   2  14
ATOM     14  C   UNL     1       7.155   6.636  17.330  0.00  0.00    +0.000 C 
ATOM     15  O   UNL     1       7.491   6.137  16.281  0.00  0.00    +0.000 OA
BRANCH  14  16
ATOM     16  C   UNL     1       7.905   7.749  18.003  0.00  0.00    +0.000 C 
ATOM     17  C   UNL     1       7.838   9.017  17.574  0.00  0.00    +0.000 C 
BRANCH  17  18
ATOM     18  C   UNL     1       8.557  10.118  18.236  0.00  0.00    +0.000 A 
ATOM     19  C   UNL     1       9.557   9.900  19.194  0.00  0.00    +0.000 A 
ATOM     20  C   UNL     1      10.245  10.976  19.769  0.00  0.00    +0.000 A 
ATOM     21  C   UNL     1       9.936  12.279  19.386  0.00  0.00    +0.000 A 
ATOM     22  C   UNL     1       8.939  12.510  18.433  0.00  0.00    +0.000 A 
ATOM     23  C   UNL     1       8.259  11.433  17.857  0.00  0.00    +0.000 A 
BRANCH  22  24
ATOM     24  C   UNL     1       8.614  13.853  18.046  0.00  0.00    +0.000 C 
ATOM     25  N   UNL     1       8.350  14.936  17.729  0.00  0.00    +0.000 NA
ENDBRANCH  22  24
ENDBRANCH  17  18
ENDBRANCH  14  16
ENDBRANCH   2  14
TORSDOF 6
ENDMDL
MODEL 9
REMARK VINA RESULT:      -7.3      5.408      7.914
REMARK  Name = 
REMARK  9 active torsions:
REMARK  status: ('A' for Active; 'I' for Inactive)
REMARK    1  A    between atoms: C_1  and  C_2
REMARK    2  A    between atoms: C_3  and  C_4
REMARK    3  A    between atoms: C_5  and  C_6
REMARK    4  A    between atoms: C_6  and  C_8
REMARK    5  A    between atoms: C_9  and  C_10
REMARK    6  A    between atoms: C_14  and  C_15
REMARK    7  A    between atoms: C_18  and  C_19
REMARK    8  A    between atoms: C_18  and  C_20
REMARK    9  A    between atoms: C_23  and  O_24
REMARK                            x       y       z     vdW  Elec       q    Type
REMARK                         _______ _______ _______ _____ _____    ______ ____
ROOT
ATOM      1  C   UNL     1       2.578   6.703  19.097  0.00  0.00    +0.000 C 
ATOM      2  C   UNL     1       2.642   7.572  18.069  0.00  0.00    +0.000 C 
ENDROOT
BRANCH   1   5
ATOM      3  C   UNL     1       5.644   5.891  19.342  0.00  0.00    +0.000 C 
ATOM      4  C   UNL     1       4.424   4.980  19.238  0.00  0.00    +0.000 C 
ATOM      5  C   UNL     1       3.108   5.316  19.147  0.00  0.00    +0.000 C 
ATOM      6  C   UNL     1       2.004   4.213  19.126  0.00  0.00    +0.000 C 
ATOM      7  C   UNL     1       1.279   4.284  17.758  0.00  0.00    +0.000 C 
ATOM      8  C   UNL     1       0.997   4.432  20.290  0.00  0.00    +0.000 C 
ATOM      9  C   UNL     1       2.459   2.729  19.287  0.00  0.00    +0.000 C 
ATOM     10  C   UNL     1       3.931   2.398  19.344  0.00  0.00    +0.000 C 
ATOM     11  C   UNL     1       4.911   3.548  19.293  0.00  0.00    +0.000 C 
BRANCH  11  12
ATOM     12  O   UNL     1       5.754   3.334  18.155  0.00  0.00    +0.000 OA
ATOM     13  H   UNL     1       6.643   3.150  18.503  0.00  0.00    +0.000 HD
ENDBRANCH  11  12
ENDBRANCH   1   5
BRANCH   2  14
ATOM     14  C   UNL     1       2.069   8.966  18.105  0.00  0.00    +0.000 C 
ATOM     15  O   UNL     1       2.139   9.771  17.205  0.00  0.00    +0.000 OA
BRANCH  14  16
ATOM     16  C   UNL     1       1.364   9.227  19.406  0.00  0.00    +0.000 C 
ATOM     17  C   UNL     1       0.503  10.243  19.559  0.00  0.00    +0.000 C 
BRANCH  17  18
ATOM     18  C   UNL     1      -0.205  10.499  20.824  0.00  0.00    +0.000 A 
ATOM     19  C   UNL     1      -0.084   9.660  21.941  0.00  0.00    +0.000 A 
ATOM     20  C   UNL     1      -0.743   9.963  23.139  0.00  0.00    +0.000 A 
ATOM     21  C   UNL     1      -1.527  11.111  23.227  0.00  0.00    +0.000 A 
ATOM     22  C   UNL     1      -1.657  11.955  22.119  0.00  0.00    +0.000 A 
ATOM     23  C   UNL     1      -0.992  11.652  20.927  0.00  0.00    +0.000 A 
BRANCH  22  24
ATOM     24  C   UNL     1      -2.472  13.132  22.207  0.00  0.00    +0.000 C 
ATOM     25  N   UNL     1      -3.132  14.083  22.272  0.00  0.00    +0.000 NA
ENDBRANCH  22  24
ENDBRANCH  17  18
ENDBRANCH  14  16
ENDBRANCH   2  14
TORSDOF 6
ENDMDL
