MODEL 1
REMARK VINA RESULT:      -7.6      0.000      0.000
REMARK  Name = 
REMARK  4 active torsions:
REMARK  status: ('A' for Active; 'I' for Inactive)
REMARK    1  A    between atoms: C_1  and  C_2
REMARK    2  A    between atoms: C_4  and  N_5
REMARK    3  A    between atoms: C_6  and  C_8
REMARK    4  A    between atoms: C_12  and  C_13
REMARK                            x       y       z     vdW  Elec       q    Type
REMARK                         _______ _______ _______ _____ _____    ______ ____
ROOT
ATOM      1  C   UNL     1       1.912   2.002  22.153  0.00  0.00    +0.000 C 
ATOM      2  C   UNL     1       2.270   3.092  21.193  0.00  0.00    +0.000 A 
ATOM      3  C   UNL     1       3.112   2.920  20.084  0.00  0.00    +0.000 A 
ATOM      4  C   UNL     1       3.162   4.149  19.466  0.00  0.00    +0.000 A 
ATOM      5  N   UNL     1       2.372   5.016  20.231  0.00  0.00    +0.000 N 
ATOM      6  C   UNL     1       2.121   6.385  19.948  0.00  0.00    +0.000 A 
ATOM      7  N   UNL     1       2.574   6.908  18.824  0.00  0.00    +0.000 NA
ATOM      8  C   UNL     1       2.020   8.242  18.655  0.00  0.00    +0.000 A 
ATOM      9  C   UNL     1       2.259   9.176  17.767  0.00  0.00    +0.000 A 
ATOM     10  C   UNL     1       2.208  10.511  18.017  0.00  0.00    +0.000 A 
ATOM     11  C   UNL     1       1.322  11.379  18.676  0.00  0.00    +0.000 A 
ATOM     12  C   UNL     1       1.124  10.019  19.960  0.00  0.00    +0.000 A 
ATOM     13  C   UNL     1       1.533   8.609  19.905  0.00  0.00    +0.000 A 
ATOM     14  N   UNL     1       1.467   7.381  20.690  0.00  0.00    +0.000 N 
ATOM     15  N   UNL     1       1.831   4.369  21.310  0.00  0.00    +0.000 NA
ATOM     16  H   UNL     1       1.104   7.160  21.624  0.00  0.00    +0.000 HD
ENDROOT
BRANCH   4  17
ATOM     17  N   UNL     1       3.894   4.442  18.314  0.00  0.00    +0.000 N 
ATOM     18  C   UNL     1       5.333   4.348  18.294  0.00  0.00    +0.000 C 
ATOM     19  O   UNL     1       5.947   4.038  19.299  0.00  0.00    +0.000 OA
ATOM     20  H   UNL     1       3.375   4.653  17.461  0.00  0.00    +0.000 HD
BRANCH  18  21
ATOM     21  C   UNL     1       5.971   4.716  17.066  0.00  0.00    +0.000 A 
ATOM     22  S   UNL     1       5.595   3.904  15.631  0.00  0.00    +0.000 S 
ATOM     23  C   UNL     1       6.666   4.885  14.755  0.00  0.00    +0.000 A 
ATOM     24  C   UNL     1       7.298   5.831  15.526  0.00  0.00    +0.000 A 
ATOM     25  C   UNL     1       6.890   5.739  16.884  0.00  0.00    +0.000 A 
ATOM     26  C   UNL     1       7.377   6.624  17.975  0.00  0.00    +0.000 C 
ENDBRANCH  18  21
ENDBRANCH   4  17
TORSDOF 2
ENDMDL
MODEL 2
REMARK VINA RESULT:      -7.5      3.192      7.344
REMARK  Name = 
REMARK  4 active torsions:
REMARK  status: ('A' for Active; 'I' for Inactive)
REMARK    1  A    between atoms: C_1  and  C_2
REMARK    2  A    between atoms: C_4  and  N_5
REMARK    3  A    between atoms: C_6  and  C_8
REMARK    4  A    between atoms: C_12  and  C_13
REMARK                            x       y       z     vdW  Elec       q    Type
REMARK                         _______ _______ _______ _____ _____    ______ ____
ROOT
ATOM      1  C   UNL     1       8.476   8.615  18.419  0.00  0.00    +0.000 C 
ATOM      2  C   UNL     1       7.612   7.581  17.769  0.00  0.00    +0.000 A 
ATOM      3  C   UNL     1       6.435   7.069  18.335  0.00  0.00    +0.000 A 
ATOM      4  C   UNL     1       5.947   6.168  17.416  0.00  0.00    +0.000 A 
ATOM      5  N   UNL     1       6.851   6.153  16.348  0.00  0.00    +0.000 N 
ATOM      6  C   UNL     1       6.731   5.379  15.163  0.00  0.00    +0.000 A 
ATOM      7  N   UNL     1       5.639   4.665  14.963  0.00  0.00    +0.000 NA
ATOM      8  C   UNL     1       5.650   4.136  13.609  0.00  0.00    +0.000 A 
ATOM      9  C   UNL     1       4.849   3.297  12.998  0.00  0.00    +0.000 A 
ATOM     10  C   UNL     1       5.241   2.413  12.041  0.00  0.00    +0.000 A 
ATOM     11  C   UNL     1       6.047   2.465  10.893  0.00  0.00    +0.000 A 
ATOM     12  C   UNL     1       7.193   3.578  11.885  0.00  0.00    +0.000 A 
ATOM     13  C   UNL     1       6.962   4.260  13.166  0.00  0.00    +0.000 A 
ATOM     14  N   UNL     1       7.618   5.176  14.093  0.00  0.00    +0.000 N 
ATOM     15  N   UNL     1       7.892   7.014  16.570  0.00  0.00    +0.000 NA
ATOM     16  H   UNL     1       8.547   5.611  14.116  0.00  0.00    +0.000 HD
ENDROOT
BRANCH   4  17
ATOM     17  N   UNL     1       4.783   5.411  17.570  0.00  0.00    +0.000 N 
ATOM     18  C   UNL     1       4.662   4.423  18.613  0.00  0.00    +0.000 C 
ATOM     19  O   UNL     1       5.591   4.203  19.369  0.00  0.00    +0.000 OA
ATOM     20  H   UNL     1       3.990   5.632  16.968  0.00  0.00    +0.000 HD
BRANCH  18  21
ATOM     21  C   UNL     1       3.436   3.682  18.639  0.00  0.00    +0.000 A 
ATOM     22  S   UNL     1       3.341   2.160  17.909  0.00  0.00    +0.000 S 
ATOM     23  C   UNL     1       1.720   1.997  18.379  0.00  0.00    +0.000 A 
ATOM     24  C   UNL     1       1.246   3.071  19.094  0.00  0.00    +0.000 A 
ATOM     25  C   UNL     1       2.252   4.062  19.253  0.00  0.00    +0.000 A 
ATOM     26  C   UNL     1       2.069   5.342  19.987  0.00  0.00    +0.000 C 
ENDBRANCH  18  21
ENDBRANCH   4  17
TORSDOF 2
ENDMDL
MODEL 3
REMARK VINA RESULT:      -6.9      2.229      5.911
REMARK  Name = 
REMARK  4 active torsions:
REMARK  status: ('A' for Active; 'I' for Inactive)
REMARK    1  A    between atoms: C_1  and  C_2
REMARK    2  A    between atoms: C_4  and  N_5
REMARK    3  A    between atoms: C_6  and  C_8
REMARK    4  A    between atoms: C_12  and  C_13
REMARK                            x       y       z     vdW  Elec       q    Type
REMARK                         _______ _______ _______ _____ _____    ______ ____
ROOT
ATOM      1  C   UNL     1       1.451   2.285  22.081  0.00  0.00    +0.000 C 
ATOM      2  C   UNL     1       1.881   3.222  20.997  0.00  0.00    +0.000 A 
ATOM      3  C   UNL     1       1.398   4.531  20.850  0.00  0.00    +0.000 A 
ATOM      4  C   UNL     1       2.054   5.045  19.754  0.00  0.00    +0.000 A 
ATOM      5  N   UNL     1       2.886   4.028  19.272  0.00  0.00    +0.000 N 
ATOM      6  C   UNL     1       3.767   4.126  18.162  0.00  0.00    +0.000 A 
ATOM      7  N   UNL     1       3.919   5.289  17.556  0.00  0.00    +0.000 NA
ATOM      8  C   UNL     1       5.012   5.197  16.601  0.00  0.00    +0.000 A 
ATOM      9  C   UNL     1       5.456   6.044  15.705  0.00  0.00    +0.000 A 
ATOM     10  C   UNL     1       6.000   5.690  14.510  0.00  0.00    +0.000 A 
ATOM     11  C   UNL     1       6.945   4.748  14.074  0.00  0.00    +0.000 A 
ATOM     12  C   UNL     1       6.172   3.565  15.315  0.00  0.00    +0.000 A 
ATOM     13  C   UNL     1       5.234   3.837  16.413  0.00  0.00    +0.000 A 
ATOM     14  N   UNL     1       4.545   3.159  17.505  0.00  0.00    +0.000 N 
ATOM     15  N   UNL     1       2.770   2.893  20.029  0.00  0.00    +0.000 NA
ATOM     16  H   UNL     1       4.498   2.180  17.810  0.00  0.00    +0.000 HD
ENDROOT
BRANCH   4  17
ATOM     17  N   UNL     1       1.875   6.329  19.237  0.00  0.00    +0.000 N 
ATOM     18  C   UNL     1       1.776   7.480  20.101  0.00  0.00    +0.000 C 
ATOM     19  O   UNL     1       1.815   7.351  21.311  0.00  0.00    +0.000 OA
ATOM     20  H   UNL     1       1.893   6.440  18.223  0.00  0.00    +0.000 HD
BRANCH  18  21
ATOM     21  C   UNL     1       1.550   8.737  19.451  0.00  0.00    +0.000 A 
ATOM     22  S   UNL     1       2.257   9.061  17.950  0.00  0.00    +0.000 S 
ATOM     23  C   UNL     1       1.528  10.592  17.899  0.00  0.00    +0.000 A 
ATOM     24  C   UNL     1       0.743  10.862  18.994  0.00  0.00    +0.000 A 
ATOM     25  C   UNL     1       0.749   9.773  19.908  0.00  0.00    +0.000 A 
ATOM     26  C   UNL     1      -0.007   9.738  21.187  0.00  0.00    +0.000 C 
ENDBRANCH  18  21
ENDBRANCH   4  17
TORSDOF 2
ENDMDL
MODEL 4
REMARK VINA RESULT:      -6.9      3.614      7.466
REMARK  Name = 
REMARK  4 active torsions:
REMARK  status: ('A' for Active; 'I' for Inactive)
REMARK    1  A    between atoms: C_1  and  C_2
REMARK    2  A    between atoms: C_4  and  N_5
REMARK    3  A    between atoms: C_6  and  C_8
REMARK    4  A    between atoms: C_12  and  C_13
REMARK                            x       y       z     vdW  Elec       q    Type
REMARK                         _______ _______ _______ _____ _____    ______ ____
ROOT
ATOM      1  C   UNL     1       8.315   8.432  18.447  0.00  0.00    +0.000 C 
ATOM      2  C   UNL     1       7.550   7.336  17.774  0.00  0.00    +0.000 A 
ATOM      3  C   UNL     1       6.480   6.645  18.364  0.00  0.00    +0.000 A 
ATOM      4  C   UNL     1       6.055   5.745  17.414  0.00  0.00    +0.000 A 
ATOM      5  N   UNL     1       6.890   5.909  16.303  0.00  0.00    +0.000 N 
ATOM      6  C   UNL     1       6.798   5.198  15.077  0.00  0.00    +0.000 A 
ATOM      7  N   UNL     1       5.793   4.364  14.886  0.00  0.00    +0.000 NA
ATOM      8  C   UNL     1       5.790   3.921  13.501  0.00  0.00    +0.000 A 
ATOM      9  C   UNL     1       5.065   3.024  12.877  0.00  0.00    +0.000 A 
ATOM     10  C   UNL     1       5.507   2.256  11.845  0.00  0.00    +0.000 A 
ATOM     11  C   UNL     1       6.231   2.479  10.663  0.00  0.00    +0.000 A 
ATOM     12  C   UNL     1       7.287   3.669  11.667  0.00  0.00    +0.000 A 
ATOM     13  C   UNL     1       7.048   4.238  13.000  0.00  0.00    +0.000 A 
ATOM     14  N   UNL     1       7.638   5.174  13.952  0.00  0.00    +0.000 N 
ATOM     15  N   UNL     1       7.827   6.882  16.528  0.00  0.00    +0.000 NA
ATOM     16  H   UNL     1       8.506   5.722  13.957  0.00  0.00    +0.000 HD
ENDROOT
BRANCH   4  17
ATOM     17  N   UNL     1       5.006   4.838  17.576  0.00  0.00    +0.000 N 
ATOM     18  C   UNL     1       4.105   4.924  18.699  0.00  0.00    +0.000 C 
ATOM     19  O   UNL     1       4.260   5.777  19.554  0.00  0.00    +0.000 OA
ATOM     20  H   UNL     1       4.848   4.156  16.834  0.00  0.00    +0.000 HD
BRANCH  18  21
ATOM     21  C   UNL     1       3.096   3.910  18.776  0.00  0.00    +0.000 A 
ATOM     22  S   UNL     1       1.604   4.129  18.011  0.00  0.00    +0.000 S 
ATOM     23  C   UNL     1       1.075   2.604  18.530  0.00  0.00    +0.000 A 
ATOM     24  C   UNL     1       2.013   1.919  19.264  0.00  0.00    +0.000 A 
ATOM     25  C   UNL     1       3.204   2.680  19.408  0.00  0.00    +0.000 A 
ATOM     26  C   UNL     1       4.417   2.222  20.136  0.00  0.00    +0.000 C 
ENDBRANCH  18  21
ENDBRANCH   4  17
TORSDOF 2
ENDMDL
MODEL 5
REMARK VINA RESULT:      -6.9      2.181      5.053
REMARK  Name = 
REMARK  4 active torsions:
REMARK  status: ('A' for Active; 'I' for Inactive)
REMARK    1  A    between atoms: C_1  and  C_2
REMARK    2  A    between atoms: C_4  and  N_5
REMARK    3  A    between atoms: C_6  and  C_8
REMARK    4  A    between atoms: C_12  and  C_13
REMARK                            x       y       z     vdW  Elec       q    Type
REMARK                         _______ _______ _______ _____ _____    ______ ____
ROOT
ATOM      1  C   UNL     1       6.890   5.218  14.467  0.00  0.00    +0.000 C 
ATOM      2  C   UNL     1       5.930   5.416  15.597  0.00  0.00    +0.000 A 
ATOM      3  C   UNL     1       5.705   4.475  16.613  0.00  0.00    +0.000 A 
ATOM      4  C   UNL     1       4.775   5.051  17.449  0.00  0.00    +0.000 A 
ATOM      5  N   UNL     1       4.460   6.299  16.900  0.00  0.00    +0.000 N 
ATOM      6  C   UNL     1       3.557   7.249  17.447  0.00  0.00    +0.000 A 
ATOM      7  N   UNL     1       3.012   7.018  18.627  0.00  0.00    +0.000 NA
ATOM      8  C   UNL     1       2.301   8.207  19.071  0.00  0.00    +0.000 A 
ATOM      9  C   UNL     1       1.527   8.421  20.107  0.00  0.00    +0.000 A 
ATOM     10  C   UNL     1       0.465   9.270  20.116  0.00  0.00    +0.000 A 
ATOM     11  C   UNL     1       0.220  10.580  19.676  0.00  0.00    +0.000 A 
ATOM     12  C   UNL     1       1.259  10.147  18.169  0.00  0.00    +0.000 A 
ATOM     13  C   UNL     1       2.144   8.998  17.937  0.00  0.00    +0.000 A 
ATOM     14  N   UNL     1       3.061   8.460  16.938  0.00  0.00    +0.000 N 
ATOM     15  N   UNL     1       5.161   6.523  15.745  0.00  0.00    +0.000 NA
ATOM     16  H   UNL     1       3.336   8.763  15.997  0.00  0.00    +0.000 HD
ENDROOT
BRANCH   4  17
ATOM     17  N   UNL     1       4.250   4.459  18.600  0.00  0.00    +0.000 N 
ATOM     18  C   UNL     1       3.018   3.712  18.565  0.00  0.00    +0.000 C 
ATOM     19  O   UNL     1       2.387   3.606  17.529  0.00  0.00    +0.000 OA
ATOM     20  H   UNL     1       4.806   4.507  19.455  0.00  0.00    +0.000 HD
BRANCH  18  21
ATOM     21  C   UNL     1       2.562   3.191  19.819  0.00  0.00    +0.000 A 
ATOM     22  S   UNL     1       0.996   3.524  20.364  0.00  0.00    +0.000 S 
ATOM     23  C   UNL     1       1.249   2.601  21.764  0.00  0.00    +0.000 A 
ATOM     24  C   UNL     1       2.498   2.029  21.824  0.00  0.00    +0.000 A 
ATOM     25  C   UNL     1       3.271   2.369  20.682  0.00  0.00    +0.000 A 
ATOM     26  C   UNL     1       4.661   1.903  20.432  0.00  0.00    +0.000 C 
ENDBRANCH  18  21
ENDBRANCH   4  17
TORSDOF 2
ENDMDL
MODEL 6
REMARK VINA RESULT:      -6.9      6.452      9.250
REMARK  Name = 
REMARK  4 active torsions:
REMARK  status: ('A' for Active; 'I' for Inactive)
REMARK    1  A    between atoms: C_1  and  C_2
REMARK    2  A    between atoms: C_4  and  N_5
REMARK    3  A    between atoms: C_6  and  C_8
REMARK    4  A    between atoms: C_12  and  C_13
REMARK                            x       y       z     vdW  Elec       q    Type
REMARK                         _______ _______ _______ _____ _____    ______ ____
ROOT
ATOM      1  C   UNL     1      -3.166  10.096  13.930  0.00  0.00    +0.000 C 
ATOM      2  C   UNL     1      -3.137  10.356  15.403  0.00  0.00    +0.000 A 
ATOM      3  C   UNL     1      -2.247   9.737  16.294  0.00  0.00    +0.000 A 
ATOM      4  C   UNL     1      -2.541  10.263  17.532  0.00  0.00    +0.000 A 
ATOM      5  N   UNL     1      -3.603  11.156  17.347  0.00  0.00    +0.000 N 
ATOM      6  C   UNL     1      -4.216  11.944  18.356  0.00  0.00    +0.000 A 
ATOM      7  N   UNL     1      -3.714  11.939  19.577  0.00  0.00    +0.000 NA
ATOM      8  C   UNL     1      -4.366  12.967  20.372  0.00  0.00    +0.000 A 
ATOM      9  C   UNL     1      -4.284  13.264  21.646  0.00  0.00    +0.000 A 
ATOM     10  C   UNL     1      -5.308  13.756  22.393  0.00  0.00    +0.000 A 
ATOM     11  C   UNL     1      -6.279  14.757  22.233  0.00  0.00    +0.000 A 
ATOM     12  C   UNL     1      -6.406  14.192  20.444  0.00  0.00    +0.000 A 
ATOM     13  C   UNL     1      -5.519  13.310  19.673  0.00  0.00    +0.000 A 
ATOM     14  N   UNL     1      -5.354  12.767  18.329  0.00  0.00    +0.000 N 
ATOM     15  N   UNL     1      -3.985  11.205  16.033  0.00  0.00    +0.000 NA
ATOM     16  H   UNL     1      -5.907  12.838  17.467  0.00  0.00    +0.000 HD
ENDROOT
BRANCH   4  17
ATOM     17  N   UNL     1      -1.899   9.924  18.724  0.00  0.00    +0.000 N 
ATOM     18  C   UNL     1      -0.716  10.620  19.166  0.00  0.00    +0.000 C 
ATOM     19  O   UNL     1      -0.230  11.506  18.487  0.00  0.00    +0.000 OA
ATOM     20  H   UNL     1      -2.337   9.215  19.314  0.00  0.00    +0.000 HD
BRANCH  18  21
ATOM     21  C   UNL     1      -0.126  10.149  20.384  0.00  0.00    +0.000 A 
ATOM     22  S   UNL     1      -0.713  10.681  21.878  0.00  0.00    +0.000 S 
ATOM     23  C   UNL     1       0.412   9.716  22.702  0.00  0.00    +0.000 A 
ATOM     24  C   UNL     1       1.221   8.983  21.867  0.00  0.00    +0.000 A 
ATOM     25  C   UNL     1       0.906   9.231  20.504  0.00  0.00    +0.000 A 
ATOM     26  C   UNL     1       1.586   8.588  19.348  0.00  0.00    +0.000 C 
ENDBRANCH  18  21
ENDBRANCH   4  17
TORSDOF 2
ENDMDL
MODEL 7
REMARK VINA RESULT:      -6.8      2.553      5.743
REMARK  Name = 
REMARK  4 active torsions:
REMARK  status: ('A' for Active; 'I' for Inactive)
REMARK    1  A    between atoms: C_1  and  C_2
REMARK    2  A    between atoms: C_4  and  N_5
REMARK    3  A    between atoms: C_6  and  C_8
REMARK    4  A    between atoms: C_12  and  C_13
REMARK                            x       y       z     vdW  Elec       q    Type
REMARK                         _______ _______ _______ _____ _____    ______ ____
ROOT
ATOM      1  C   UNL     1       1.434   2.198  22.110  0.00  0.00    +0.000 C 
ATOM      2  C   UNL     1       1.850   3.140  21.024  0.00  0.00    +0.000 A 
ATOM      3  C   UNL     1       1.344   4.440  20.872  0.00  0.00    +0.000 A 
ATOM      4  C   UNL     1       1.995   4.962  19.778  0.00  0.00    +0.000 A 
ATOM      5  N   UNL     1       2.847   3.959  19.300  0.00  0.00    +0.000 N 
ATOM      6  C   UNL     1       3.729   4.071  18.193  0.00  0.00    +0.000 A 
ATOM      7  N   UNL     1       3.862   5.235  17.585  0.00  0.00    +0.000 NA
ATOM      8  C   UNL     1       4.959   5.160  16.634  0.00  0.00    +0.000 A 
ATOM      9  C   UNL     1       5.392   6.013  15.737  0.00  0.00    +0.000 A 
ATOM     10  C   UNL     1       5.946   5.666  14.545  0.00  0.00    +0.000 A 
ATOM     11  C   UNL     1       6.909   4.740  14.115  0.00  0.00    +0.000 A 
ATOM     12  C   UNL     1       6.154   3.546  15.356  0.00  0.00    +0.000 A 
ATOM     13  C   UNL     1       5.207   3.804  16.450  0.00  0.00    +0.000 A 
ATOM     14  N   UNL     1       4.527   3.116  17.542  0.00  0.00    +0.000 N 
ATOM     15  N   UNL     1       2.749   2.824  20.060  0.00  0.00    +0.000 NA
ATOM     16  H   UNL     1       4.496   2.137  17.849  0.00  0.00    +0.000 HD
ENDROOT
BRANCH   4  17
ATOM     17  N   UNL     1       1.794   6.242  19.257  0.00  0.00    +0.000 N 
ATOM     18  C   UNL     1       1.763   7.404  20.109  0.00  0.00    +0.000 C 
ATOM     19  O   UNL     1       1.882   7.290  21.316  0.00  0.00    +0.000 OA
ATOM     20  H   UNL     1       1.745   6.340  18.242  0.00  0.00    +0.000 HD
BRANCH  18  21
ATOM     21  C   UNL     1       1.507   8.655  19.460  0.00  0.00    +0.000 A 
ATOM     22  S   UNL     1       0.416   9.759  20.133  0.00  0.00    +0.000 S 
ATOM     23  C   UNL     1       0.700  10.859  18.874  0.00  0.00    +0.000 A 
ATOM     24  C   UNL     1       1.619  10.414  17.954  0.00  0.00    +0.000 A 
ATOM     25  C   UNL     1       2.099   9.121  18.296  0.00  0.00    +0.000 A 
ATOM     26  C   UNL     1       3.111   8.361  17.516  0.00  0.00    +0.000 C 
ENDBRANCH  18  21
ENDBRANCH   4  17
TORSDOF 2
ENDMDL
MODEL 8
REMARK VINA RESULT:      -6.8      6.783      9.586
REMARK  Name = 
REMARK  4 active torsions:
REMARK  status: ('A' for Active; 'I' for Inactive)
REMARK    1  A    between atoms: C_1  and  C_2
REMARK    2  A    between atoms: C_4  and  N_5
REMARK    3  A    between atoms: C_6  and  C_8
REMARK    4  A    between atoms: C_12  and  C_13
REMARK                            x       y       z     vdW  Elec       q    Type
REMARK                         _______ _______ _______ _____ _____    ______ ____
ROOT
ATOM      1  C   UNL     1      -3.098  10.119  13.974  0.00  0.00    +0.000 C 
ATOM      2  C   UNL     1      -3.153  10.396  15.443  0.00  0.00    +0.000 A 
ATOM      3  C   UNL     1      -2.287   9.821  16.386  0.00  0.00    +0.000 A 
ATOM      4  C   UNL     1      -2.663  10.348  17.600  0.00  0.00    +0.000 A 
ATOM      5  N   UNL     1      -3.748  11.198  17.351  0.00  0.00    +0.000 N 
ATOM      6  C   UNL     1      -4.441  11.973  18.318  0.00  0.00    +0.000 A 
ATOM      7  N   UNL     1      -4.001  12.000  19.563  0.00  0.00    +0.000 NA
ATOM      8  C   UNL     1      -4.732  13.011  20.311  0.00  0.00    +0.000 A 
ATOM      9  C   UNL     1      -4.725  13.324  21.584  0.00  0.00    +0.000 A 
ATOM     10  C   UNL     1      -5.804  13.785  22.271  0.00  0.00    +0.000 A 
ATOM     11  C   UNL     1      -6.803  14.746  22.050  0.00  0.00    +0.000 A 
ATOM     12  C   UNL     1      -6.818  14.157  20.264  0.00  0.00    +0.000 A 
ATOM     13  C   UNL     1      -5.860  13.301  19.550  0.00  0.00    +0.000 A 
ATOM     14  N   UNL     1      -5.606  12.751  18.223  0.00  0.00    +0.000 N 
ATOM     15  N   UNL     1      -4.064  11.218  16.019  0.00  0.00    +0.000 NA
ATOM     16  H   UNL     1      -6.116  12.791  17.334  0.00  0.00    +0.000 HD
ENDROOT
BRANCH   4  17
ATOM     17  N   UNL     1      -2.071  10.046  18.828  0.00  0.00    +0.000 N 
ATOM     18  C   UNL     1      -0.823  10.648  19.229  0.00  0.00    +0.000 C 
ATOM     19  O   UNL     1      -0.240  11.417  18.486  0.00  0.00    +0.000 OA
ATOM     20  H   UNL     1      -2.586   9.442  19.469  0.00  0.00    +0.000 HD
BRANCH  18  21
ATOM     21  C   UNL     1      -0.297  10.224  20.492  0.00  0.00    +0.000 A 
ATOM     22  S   UNL     1       0.828   8.964  20.568  0.00  0.00    +0.000 S 
ATOM     23  C   UNL     1       0.932   9.112  22.254  0.00  0.00    +0.000 A 
ATOM     24  C   UNL     1       0.139  10.111  22.766  0.00  0.00    +0.000 A 
ATOM     25  C   UNL     1      -0.582  10.770  21.734  0.00  0.00    +0.000 A 
ATOM     26  C   UNL     1      -1.519  11.905  21.949  0.00  0.00    +0.000 C 
ENDBRANCH  18  21
ENDBRANCH   4  17
TORSDOF 2
ENDMDL
MODEL 9
REMARK VINA RESULT:      -6.8      2.093      5.127
REMARK  Name = 
REMARK  4 active torsions:
REMARK  status: ('A' for Active; 'I' for Inactive)
REMARK    1  A    between atoms: C_1  and  C_2
REMARK    2  A    between atoms: C_4  and  N_5
REMARK    3  A    between atoms: C_6  and  C_8
REMARK    4  A    between atoms: C_12  and  C_13
REMARK                            x       y       z     vdW  Elec       q    Type
REMARK                         _______ _______ _______ _____ _____    ______ ____
ROOT
ATOM      1  C   UNL     1       6.975   5.049  14.201  0.00  0.00    +0.000 C 
ATOM      2  C   UNL     1       6.069   5.217  15.379  0.00  0.00    +0.000 A 
ATOM      3  C   UNL     1       5.923   4.269  16.403  0.00  0.00    +0.000 A 
ATOM      4  C   UNL     1       5.021   4.816  17.287  0.00  0.00    +0.000 A 
ATOM      5  N   UNL     1       4.641   6.055  16.757  0.00  0.00    +0.000 N 
ATOM      6  C   UNL     1       3.739   6.976  17.352  0.00  0.00    +0.000 A 
ATOM      7  N   UNL     1       3.262   6.729  18.557  0.00  0.00    +0.000 NA
ATOM      8  C   UNL     1       2.539   7.896  19.039  0.00  0.00    +0.000 A 
ATOM      9  C   UNL     1       1.813   8.085  20.114  0.00  0.00    +0.000 A 
ATOM     10  C   UNL     1       0.728   8.902  20.179  0.00  0.00    +0.000 A 
ATOM     11  C   UNL     1       0.422  10.205  19.755  0.00  0.00    +0.000 A 
ATOM     12  C   UNL     1       1.395   9.805  18.196  0.00  0.00    +0.000 A 
ATOM     13  C   UNL     1       2.301   8.682  17.917  0.00  0.00    +0.000 A 
ATOM     14  N   UNL     1       3.182   8.173  16.871  0.00  0.00    +0.000 N 
ATOM     15  N   UNL     1       5.276   6.300  15.568  0.00  0.00    +0.000 NA
ATOM     16  H   UNL     1       3.400   8.485  15.919  0.00  0.00    +0.000 HD
ENDROOT
BRANCH   4  17
ATOM     17  N   UNL     1       4.573   4.208  18.461  0.00  0.00    +0.000 N 
ATOM     18  C   UNL     1       3.315   3.505  18.511  0.00  0.00    +0.000 C 
ATOM     19  O   UNL     1       2.596   3.453  17.529  0.00  0.00    +0.000 OA
ATOM     20  H   UNL     1       5.199   4.211  19.266  0.00  0.00    +0.000 HD
BRANCH  18  21
ATOM     21  C   UNL     1       2.947   2.962  19.784  0.00  0.00    +0.000 A 
ATOM     22  S   UNL     1       3.965   1.864  20.570  0.00  0.00    +0.000 S 
ATOM     23  C   UNL     1       2.895   1.759  21.882  0.00  0.00    +0.000 A 
ATOM     24  C   UNL     1       1.781   2.553  21.746  0.00  0.00    +0.000 A 
ATOM     25  C   UNL     1       1.809   3.264  20.517  0.00  0.00    +0.000 A 
ATOM     26  C   UNL     1       0.760   4.218  20.068  0.00  0.00    +0.000 C 
ENDBRANCH  18  21
ENDBRANCH   4  17
TORSDOF 2
ENDMDL
