MODEL 1
REMARK VINA RESULT:      -7.8      0.000      0.000
REMARK  Name = 
REMARK  9 active torsions:
REMARK  status: ('A' for Active; 'I' for Inactive)
REMARK    1  A    between atoms: C_1  and  C_2
REMARK    2  A    between atoms: C_5  and  C_6
REMARK    3  A    between atoms: N_8  and  C_9
REMARK    4  A    between atoms: C_9  and  C_10
REMARK    5  A    between atoms: C_10  and  C_11
REMARK    6  A    between atoms: C_10  and  N_12
REMARK    7  A    between atoms: C_13  and  C_14
REMARK    8  A    between atoms: C_19  and  O_20
REMARK    9  A    between atoms: C_21  and  O_22
REMARK                            x       y       z     vdW  Elec       q    Type
REMARK                         _______ _______ _______ _____ _____    ______ ____
ROOT
ATOM      1  C   UNL     1       4.179   5.130  18.070  0.00  0.00    +0.000 C 
ATOM      2  O   UNL     1       4.101   4.695  16.922  0.00  0.00    +0.000 OA
ATOM      3  N   UNL     1       4.984   6.198  18.400  0.00  0.00    +0.000 N 
ATOM      4  H   UNL     1       5.001   6.576  19.333  0.00  0.00    +0.000 HD
ENDROOT
BRANCH   1   9
ATOM      5  C   UNL     1       1.126   2.443  22.250  0.00  0.00    +0.000 C 
ATOM      6  C   UNL     1       1.901   3.157  21.182  0.00  0.00    +0.000 A 
ATOM      7  C   UNL     1       1.437   4.355  20.629  0.00  0.00    +0.000 A 
ATOM      8  C   UNL     1       2.164   5.009  19.623  0.00  0.00    +0.000 A 
ATOM      9  C   UNL     1       3.373   4.475  19.151  0.00  0.00    +0.000 A 
ATOM     10  C   UNL     1       3.834   3.276  19.721  0.00  0.00    +0.000 A 
ATOM     11  C   UNL     1       3.109   2.626  20.722  0.00  0.00    +0.000 A 
BRANCH  10  12
ATOM     12  O   UNL     1       5.007   2.665  19.353  0.00  0.00    +0.000 OA
ATOM     13  H   UNL     1       5.749   3.226  19.677  0.00  0.00    +0.000 HD
ENDBRANCH  10  12
ENDBRANCH   1   9
BRANCH   3  14
ATOM     14  C   UNL     1       5.790   6.893  17.408  0.00  0.00    +0.000 C 
BRANCH  14  15
ATOM     15  C   UNL     1       7.255   6.412  17.349  0.00  0.00    +0.000 C 
ATOM     16  C   UNL     1       7.605   5.561  18.572  0.00  0.00    +0.000 C 
BRANCH  15  17
ATOM     17  N   UNL     1       7.420   5.548  16.167  0.00  0.00    +0.000 NA
ATOM     18  C   UNL     1       6.549   5.718  15.229  0.00  0.00    +0.000 C 
BRANCH  18  19
ATOM     19  C   UNL     1       6.561   4.881  14.008  0.00  0.00    +0.000 A 
ATOM     20  C   UNL     1       5.526   3.961  13.791  0.00  0.00    +0.000 A 
ATOM     21  C   UNL     1       5.504   3.190  12.627  0.00  0.00    +0.000 A 
ATOM     22  C   UNL     1       6.512   3.333  11.677  0.00  0.00    +0.000 A 
ATOM     23  C   UNL     1       7.552   4.243  11.888  0.00  0.00    +0.000 A 
ATOM     24  C   UNL     1       7.575   5.013  13.055  0.00  0.00    +0.000 A 
BRANCH  24  25
ATOM     25  O   UNL     1       8.593   5.904  13.254  0.00  0.00    +0.000 OA
ATOM     26  H   UNL     1       8.257   6.807  13.127  0.00  0.00    +0.000 HD
ENDBRANCH  24  25
ENDBRANCH  18  19
ENDBRANCH  15  17
ENDBRANCH  14  15
ENDBRANCH   3  14
TORSDOF 7
ENDMDL
MODEL 2
REMARK VINA RESULT:      -7.6      0.905      1.340
REMARK  Name = 
REMARK  9 active torsions:
REMARK  status: ('A' for Active; 'I' for Inactive)
REMARK    1  A    between atoms: C_1  and  C_2
REMARK    2  A    between atoms: C_5  and  C_6
REMARK    3  A    between atoms: N_8  and  C_9
REMARK    4  A    between atoms: C_9  and  C_10
REMARK    5  A    between atoms: C_10  and  C_11
REMARK    6  A    between atoms: C_10  and  N_12
REMARK    7  A    between atoms: C_13  and  C_14
REMARK    8  A    between atoms: C_19  and  O_20
REMARK    9  A    between atoms: C_21  and  O_22
REMARK                            x       y       z     vdW  Elec       q    Type
REMARK                         _______ _______ _______ _____ _____    ______ ____
ROOT
ATOM      1  C   UNL     1       4.093   5.179  17.989  0.00  0.00    +0.000 C 
ATOM      2  O   UNL     1       3.857   4.940  16.806  0.00  0.00    +0.000 OA
ATOM      3  N   UNL     1       5.025   6.115  18.380  0.00  0.00    +0.000 N 
ATOM      4  H   UNL     1       5.174   6.336  19.351  0.00  0.00    +0.000 HD
ENDROOT
BRANCH   1   9
ATOM      5  C   UNL     1       1.184   2.380  22.198  0.00  0.00    +0.000 C 
ATOM      6  C   UNL     1       1.927   3.081  21.099  0.00  0.00    +0.000 A 
ATOM      7  C   UNL     1       2.534   2.363  20.064  0.00  0.00    +0.000 A 
ATOM      8  C   UNL     1       3.236   3.026  19.046  0.00  0.00    +0.000 A 
ATOM      9  C   UNL     1       3.344   4.425  19.046  0.00  0.00    +0.000 A 
ATOM     10  C   UNL     1       2.722   5.137  20.086  0.00  0.00    +0.000 A 
ATOM     11  C   UNL     1       2.024   4.474  21.099  0.00  0.00    +0.000 A 
BRANCH  10  12
ATOM     12  O   UNL     1       2.745   6.506  20.186  0.00  0.00    +0.000 OA
ATOM     13  H   UNL     1       2.132   6.865  19.505  0.00  0.00    +0.000 HD
ENDBRANCH  10  12
ENDBRANCH   1   9
BRANCH   3  14
ATOM     14  C   UNL     1       5.788   6.895  17.417  0.00  0.00    +0.000 C 
BRANCH  14  15
ATOM     15  C   UNL     1       7.275   6.493  17.328  0.00  0.00    +0.000 C 
ATOM     16  C   UNL     1       7.690   5.648  18.536  0.00  0.00    +0.000 C 
BRANCH  15  17
ATOM     17  N   UNL     1       7.466   5.652  16.134  0.00  0.00    +0.000 NA
ATOM     18  C   UNL     1       6.516   5.705  15.260  0.00  0.00    +0.000 C 
BRANCH  18  19
ATOM     19  C   UNL     1       6.550   4.871  14.037  0.00  0.00    +0.000 A 
ATOM     20  C   UNL     1       5.526   3.942  13.807  0.00  0.00    +0.000 A 
ATOM     21  C   UNL     1       5.523   3.173  12.641  0.00  0.00    +0.000 A 
ATOM     22  C   UNL     1       6.541   3.329  11.702  0.00  0.00    +0.000 A 
ATOM     23  C   UNL     1       7.569   4.248  11.927  0.00  0.00    +0.000 A 
ATOM     24  C   UNL     1       7.573   5.015  13.095  0.00  0.00    +0.000 A 
BRANCH  24  25
ATOM     25  O   UNL     1       8.580   5.915  13.308  0.00  0.00    +0.000 OA
ATOM     26  H   UNL     1       8.224   6.688  13.777  0.00  0.00    +0.000 HD
ENDBRANCH  24  25
ENDBRANCH  18  19
ENDBRANCH  15  17
ENDBRANCH  14  15
ENDBRANCH   3  14
TORSDOF 7
ENDMDL
MODEL 3
REMARK VINA RESULT:      -7.5      2.933      4.903
REMARK  Name = 
REMARK  9 active torsions:
REMARK  status: ('A' for Active; 'I' for Inactive)
REMARK    1  A    between atoms: C_1  and  C_2
REMARK    2  A    between atoms: C_5  and  C_6
REMARK    3  A    between atoms: N_8  and  C_9
REMARK    4  A    between atoms: C_9  and  C_10
REMARK    5  A    between atoms: C_10  and  C_11
REMARK    6  A    between atoms: C_10  and  N_12
REMARK    7  A    between atoms: C_13  and  C_14
REMARK    8  A    between atoms: C_19  and  O_20
REMARK    9  A    between atoms: C_21  and  O_22
REMARK                            x       y       z     vdW  Elec       q    Type
REMARK                         _______ _______ _______ _____ _____    ______ ____
ROOT
ATOM      1  C   UNL     1       2.888   5.711  19.944  0.00  0.00    +0.000 C 
ATOM      2  O   UNL     1       4.115   5.637  19.883  0.00  0.00    +0.000 OA
ATOM      3  N   UNL     1       2.094   4.609  20.172  0.00  0.00    +0.000 N 
ATOM      4  H   UNL     1       1.095   4.690  20.268  0.00  0.00    +0.000 HD
ENDROOT
BRANCH   1   9
ATOM      5  C   UNL     1       0.435  10.936  19.113  0.00  0.00    +0.000 C 
ATOM      6  C   UNL     1       1.047   9.585  19.343  0.00  0.00    +0.000 A 
ATOM      7  C   UNL     1       0.849   8.897  20.543  0.00  0.00    +0.000 A 
ATOM      8  C   UNL     1       1.435   7.640  20.754  0.00  0.00    +0.000 A 
ATOM      9  C   UNL     1       2.231   7.046  19.763  0.00  0.00    +0.000 A 
ATOM     10  C   UNL     1       2.415   7.743  18.556  0.00  0.00    +0.000 A 
ATOM     11  C   UNL     1       1.832   8.996  18.349  0.00  0.00    +0.000 A 
BRANCH  10  12
ATOM     12  O   UNL     1       3.159   7.261  17.509  0.00  0.00    +0.000 OA
ATOM     13  H   UNL     1       4.070   7.623  17.598  0.00  0.00    +0.000 HD
ENDBRANCH  10  12
ENDBRANCH   1   9
BRANCH   3  14
ATOM     14  C   UNL     1       2.654   3.280  20.367  0.00  0.00    +0.000 C 
BRANCH  14  15
ATOM     15  C   UNL     1       2.748   2.447  19.071  0.00  0.00    +0.000 C 
ATOM     16  C   UNL     1       1.601   2.786  18.115  0.00  0.00    +0.000 C 
BRANCH  15  17
ATOM     17  N   UNL     1       3.999   2.796  18.375  0.00  0.00    +0.000 NA
ATOM     18  C   UNL     1       3.868   3.587  17.363  0.00  0.00    +0.000 C 
BRANCH  18  19
ATOM     19  C   UNL     1       5.034   3.978  16.538  0.00  0.00    +0.000 A 
ATOM     20  C   UNL     1       4.898   4.056  15.144  0.00  0.00    +0.000 A 
ATOM     21  C   UNL     1       5.977   4.458  14.355  0.00  0.00    +0.000 A 
ATOM     22  C   UNL     1       7.194   4.782  14.951  0.00  0.00    +0.000 A 
ATOM     23  C   UNL     1       7.340   4.700  16.338  0.00  0.00    +0.000 A 
ATOM     24  C   UNL     1       6.260   4.296  17.128  0.00  0.00    +0.000 A 
BRANCH  24  25
ATOM     25  O   UNL     1       6.408   4.221  18.486  0.00  0.00    +0.000 OA
ATOM     26  H   UNL     1       6.774   5.060  18.814  0.00  0.00    +0.000 HD
ENDBRANCH  24  25
ENDBRANCH  18  19
ENDBRANCH  15  17
ENDBRANCH  14  15
ENDBRANCH   3  14
TORSDOF 7
ENDMDL
MODEL 4
REMARK VINA RESULT:      -7.5      2.768      7.259
REMARK  Name = 
REMARK  9 active torsions:
REMARK  status: ('A' for Active; 'I' for Inactive)
REMARK    1  A    between atoms: C_1  and  C_2
REMARK    2  A    between atoms: C_5  and  C_6
REMARK    3  A    between atoms: N_8  and  C_9
REMARK    4  A    between atoms: C_9  and  C_10
REMARK    5  A    between atoms: C_10  and  C_11
REMARK    6  A    between atoms: C_10  and  N_12
REMARK    7  A    between atoms: C_13  and  C_14
REMARK    8  A    between atoms: C_19  and  O_20
REMARK    9  A    between atoms: C_21  and  O_22
REMARK                            x       y       z     vdW  Elec       q    Type
REMARK                         _______ _______ _______ _____ _____    ______ ____
ROOT
ATOM      1  C   UNL     1       5.266   4.111  18.123  0.00  0.00    +0.000 C 
ATOM      2  O   UNL     1       5.620   4.912  18.987  0.00  0.00    +0.000 OA
ATOM      3  N   UNL     1       4.438   3.045  18.401  0.00  0.00    +0.000 N 
ATOM      4  H   UNL     1       4.116   2.426  17.676  0.00  0.00    +0.000 HD
ENDROOT
BRANCH   1   9
ATOM      5  C   UNL     1       7.291   4.909  12.712  0.00  0.00    +0.000 C 
ATOM      6  C   UNL     1       6.751   4.689  14.095  0.00  0.00    +0.000 A 
ATOM      7  C   UNL     1       5.397   4.410  14.307  0.00  0.00    +0.000 A 
ATOM      8  C   UNL     1       4.900   4.217  15.605  0.00  0.00    +0.000 A 
ATOM      9  C   UNL     1       5.751   4.298  16.717  0.00  0.00    +0.000 A 
ATOM     10  C   UNL     1       7.112   4.569  16.491  0.00  0.00    +0.000 A 
ATOM     11  C   UNL     1       7.605   4.762  15.198  0.00  0.00    +0.000 A 
BRANCH  10  12
ATOM     12  O   UNL     1       8.043   4.658  17.495  0.00  0.00    +0.000 OA
ATOM     13  H   UNL     1       7.667   5.233  18.200  0.00  0.00    +0.000 HD
ENDBRANCH  10  12
ENDBRANCH   1   9
BRANCH   3  14
ATOM     14  C   UNL     1       3.917   2.800  19.737  0.00  0.00    +0.000 C 
BRANCH  14  15
ATOM     15  C   UNL     1       2.452   3.244  19.925  0.00  0.00    +0.000 C 
ATOM     16  C   UNL     1       2.126   3.457  21.406  0.00  0.00    +0.000 C 
BRANCH  15  17
ATOM     17  N   UNL     1       2.262   4.544  19.257  0.00  0.00    +0.000 NA
ATOM     18  C   UNL     1       2.393   5.581  20.015  0.00  0.00    +0.000 C 
BRANCH  18  19
ATOM     19  C   UNL     1       2.177   6.948  19.491  0.00  0.00    +0.000 A 
ATOM     20  C   UNL     1       2.482   7.230  18.151  0.00  0.00    +0.000 A 
ATOM     21  C   UNL     1       2.249   8.505  17.631  0.00  0.00    +0.000 A 
ATOM     22  C   UNL     1       1.713   9.502  18.443  0.00  0.00    +0.000 A 
ATOM     23  C   UNL     1       1.412   9.231  19.781  0.00  0.00    +0.000 A 
ATOM     24  C   UNL     1       1.647   7.956  20.302  0.00  0.00    +0.000 A 
BRANCH  24  25
ATOM     25  O   UNL     1       1.348   7.697  21.611  0.00  0.00    +0.000 OA
ATOM     26  H   UNL     1       0.460   7.304  21.664  0.00  0.00    +0.000 HD
ENDBRANCH  24  25
ENDBRANCH  18  19
ENDBRANCH  15  17
ENDBRANCH  14  15
ENDBRANCH   3  14
TORSDOF 7
ENDMDL
MODEL 5
REMARK VINA RESULT:      -7.5      1.360      6.905
REMARK  Name = 
REMARK  9 active torsions:
REMARK  status: ('A' for Active; 'I' for Inactive)
REMARK    1  A    between atoms: C_1  and  C_2
REMARK    2  A    between atoms: C_5  and  C_6
REMARK    3  A    between atoms: N_8  and  C_9
REMARK    4  A    between atoms: C_9  and  C_10
REMARK    5  A    between atoms: C_10  and  C_11
REMARK    6  A    between atoms: C_10  and  N_12
REMARK    7  A    between atoms: C_13  and  C_14
REMARK    8  A    between atoms: C_19  and  O_20
REMARK    9  A    between atoms: C_21  and  O_22
REMARK                            x       y       z     vdW  Elec       q    Type
REMARK                         _______ _______ _______ _____ _____    ______ ____
ROOT
ATOM      1  C   UNL     1       7.251   5.039  15.773  0.00  0.00    +0.000 C 
ATOM      2  O   UNL     1       7.756   6.161  15.744  0.00  0.00    +0.000 OA
ATOM      3  N   UNL     1       7.244   4.263  16.911  0.00  0.00    +0.000 N 
ATOM      4  H   UNL     1       6.785   3.367  16.935  0.00  0.00    +0.000 HD
ENDROOT
BRANCH   1   9
ATOM      5  C   UNL     1       4.685   2.845  11.017  0.00  0.00    +0.000 C 
ATOM      6  C   UNL     1       5.360   3.425  12.226  0.00  0.00    +0.000 A 
ATOM      7  C   UNL     1       6.676   3.894  12.164  0.00  0.00    +0.000 A 
ATOM      8  C   UNL     1       7.303   4.423  13.302  0.00  0.00    +0.000 A 
ATOM      9  C   UNL     1       6.621   4.494  14.527  0.00  0.00    +0.000 A 
ATOM     10  C   UNL     1       5.296   4.029  14.575  0.00  0.00    +0.000 A 
ATOM     11  C   UNL     1       4.674   3.501  13.440  0.00  0.00    +0.000 A 
BRANCH  10  12
ATOM     12  O   UNL     1       4.523   4.058  15.708  0.00  0.00    +0.000 OA
ATOM     13  H   UNL     1       4.025   3.210  15.751  0.00  0.00    +0.000 HD
ENDBRANCH  10  12
ENDBRANCH   1   9
BRANCH   3  14
ATOM     14  C   UNL     1       7.826   4.723  18.163  0.00  0.00    +0.000 C 
BRANCH  14  15
ATOM     15  C   UNL     1       6.809   5.385  19.115  0.00  0.00    +0.000 C 
ATOM     16  C   UNL     1       6.236   6.667  18.505  0.00  0.00    +0.000 C 
BRANCH  15  17
ATOM     17  N   UNL     1       5.676   4.464  19.311  0.00  0.00    +0.000 NA
ATOM     18  C   UNL     1       4.503   4.996  19.202  0.00  0.00    +0.000 C 
BRANCH  18  19
ATOM     19  C   UNL     1       3.275   4.201  19.427  0.00  0.00    +0.000 A 
ATOM     20  C   UNL     1       2.238   4.737  20.204  0.00  0.00    +0.000 A 
ATOM     21  C   UNL     1       1.058   4.015  20.395  0.00  0.00    +0.000 A 
ATOM     22  C   UNL     1       0.909   2.758  19.814  0.00  0.00    +0.000 A 
ATOM     23  C   UNL     1       1.940   2.213  19.044  0.00  0.00    +0.000 A 
ATOM     24  C   UNL     1       3.122   2.935  18.854  0.00  0.00    +0.000 A 
BRANCH  24  25
ATOM     25  O   UNL     1       4.126   2.397  18.097  0.00  0.00    +0.000 OA
ATOM     26  H   UNL     1       4.739   1.914  18.676  0.00  0.00    +0.000 HD
ENDBRANCH  24  25
ENDBRANCH  18  19
ENDBRANCH  15  17
ENDBRANCH  14  15
ENDBRANCH   3  14
TORSDOF 7
ENDMDL
MODEL 6
REMARK VINA RESULT:      -7.4      3.105      4.228
REMARK  Name = 
REMARK  9 active torsions:
REMARK  status: ('A' for Active; 'I' for Inactive)
REMARK    1  A    between atoms: C_1  and  C_2
REMARK    2  A    between atoms: C_5  and  C_6
REMARK    3  A    between atoms: N_8  and  C_9
REMARK    4  A    between atoms: C_9  and  C_10
REMARK    5  A    between atoms: C_10  and  C_11
REMARK    6  A    between atoms: C_10  and  N_12
REMARK    7  A    between atoms: C_13  and  C_14
REMARK    8  A    between atoms: C_19  and  O_20
REMARK    9  A    between atoms: C_21  and  O_22
REMARK                            x       y       z     vdW  Elec       q    Type
REMARK                         _______ _______ _______ _____ _____    ______ ____
ROOT
ATOM      1  C   UNL     1       2.787   6.975  18.258  0.00  0.00    +0.000 C 
ATOM      2  O   UNL     1       3.720   7.375  17.564  0.00  0.00    +0.000 OA
ATOM      3  N   UNL     1       2.389   5.656  18.268  0.00  0.00    +0.000 N 
ATOM      4  H   UNL     1       1.655   5.332  18.877  0.00  0.00    +0.000 HD
ENDROOT
BRANCH   1   9
ATOM      5  C   UNL     1      -0.034  10.906  21.514  0.00  0.00    +0.000 C 
ATOM      6  C   UNL     1       0.682   9.875  20.691  0.00  0.00    +0.000 A 
ATOM      7  C   UNL     1       1.064   8.648  21.241  0.00  0.00    +0.000 A 
ATOM      8  C   UNL     1       1.743   7.696  20.467  0.00  0.00    +0.000 A 
ATOM      9  C   UNL     1       2.052   7.954  19.123  0.00  0.00    +0.000 A 
ATOM     10  C   UNL     1       1.655   9.188  18.578  0.00  0.00    +0.000 A 
ATOM     11  C   UNL     1       0.980  10.135  19.351  0.00  0.00    +0.000 A 
BRANCH  10  12
ATOM     12  O   UNL     1       1.888   9.550  17.275  0.00  0.00    +0.000 OA
ATOM     13  H   UNL     1       1.019   9.570  16.811  0.00  0.00    +0.000 HD
ENDBRANCH  10  12
ENDBRANCH   1   9
BRANCH   3  14
ATOM     14  C   UNL     1       3.055   4.642  17.465  0.00  0.00    +0.000 C 
BRANCH  14  15
ATOM     15  C   UNL     1       4.462   4.269  17.976  0.00  0.00    +0.000 C 
ATOM     16  C   UNL     1       4.423   2.986  18.810  0.00  0.00    +0.000 C 
BRANCH  15  17
ATOM     17  N   UNL     1       5.328   3.995  16.815  0.00  0.00    +0.000 NA
ATOM     18  C   UNL     1       5.006   4.609  15.726  0.00  0.00    +0.000 C 
BRANCH  18  19
ATOM     19  C   UNL     1       5.755   4.386  14.468  0.00  0.00    +0.000 A 
ATOM     20  C   UNL     1       5.187   3.599  13.456  0.00  0.00    +0.000 A 
ATOM     21  C   UNL     1       5.864   3.410  12.250  0.00  0.00    +0.000 A 
ATOM     22  C   UNL     1       7.108   4.003  12.049  0.00  0.00    +0.000 A 
ATOM     23  C   UNL     1       7.685   4.783  13.055  0.00  0.00    +0.000 A 
ATOM     24  C   UNL     1       7.008   4.971  14.263  0.00  0.00    +0.000 A 
BRANCH  24  25
ATOM     25  O   UNL     1       7.576   5.738  15.242  0.00  0.00    +0.000 OA
ATOM     26  H   UNL     1       7.982   5.158  15.908  0.00  0.00    +0.000 HD
ENDBRANCH  24  25
ENDBRANCH  18  19
ENDBRANCH  15  17
ENDBRANCH  14  15
ENDBRANCH   3  14
TORSDOF 7
ENDMDL
MODEL 7
REMARK VINA RESULT:      -7.3      3.222      4.387
REMARK  Name = 
REMARK  9 active torsions:
REMARK  status: ('A' for Active; 'I' for Inactive)
REMARK    1  A    between atoms: C_1  and  C_2
REMARK    2  A    between atoms: C_5  and  C_6
REMARK    3  A    between atoms: N_8  and  C_9
REMARK    4  A    between atoms: C_9  and  C_10
REMARK    5  A    between atoms: C_10  and  C_11
REMARK    6  A    between atoms: C_10  and  N_12
REMARK    7  A    between atoms: C_13  and  C_14
REMARK    8  A    between atoms: C_19  and  O_20
REMARK    9  A    between atoms: C_21  and  O_22
REMARK                            x       y       z     vdW  Elec       q    Type
REMARK                         _______ _______ _______ _____ _____    ______ ____
ROOT
ATOM      1  C   UNL     1       2.844   6.317  19.329  0.00  0.00    +0.000 C 
ATOM      2  O   UNL     1       2.496   5.579  20.249  0.00  0.00    +0.000 OA
ATOM      3  N   UNL     1       3.844   5.974  18.446  0.00  0.00    +0.000 N 
ATOM      4  H   UNL     1       4.086   6.566  17.668  0.00  0.00    +0.000 HD
ENDROOT
BRANCH   1   9
ATOM      5  C   UNL     1       0.108  11.443  18.825  0.00  0.00    +0.000 C 
ATOM      6  C   UNL     1       0.827  10.130  18.934  0.00  0.00    +0.000 A 
ATOM      7  C   UNL     1       1.392   9.519  17.811  0.00  0.00    +0.000 A 
ATOM      8  C   UNL     1       2.052   8.286  17.921  0.00  0.00    +0.000 A 
ATOM      9  C   UNL     1       2.160   7.641  19.162  0.00  0.00    +0.000 A 
ATOM     10  C   UNL     1       1.597   8.269  20.286  0.00  0.00    +0.000 A 
ATOM     11  C   UNL     1       0.939   9.496  20.174  0.00  0.00    +0.000 A 
BRANCH  10  12
ATOM     12  O   UNL     1       1.650   7.744  21.553  0.00  0.00    +0.000 OA
ATOM     13  H   UNL     1       1.860   8.480  22.172  0.00  0.00    +0.000 HD
ENDBRANCH  10  12
ENDBRANCH   1   9
BRANCH   3  14
ATOM     14  C   UNL     1       4.550   4.705  18.535  0.00  0.00    +0.000 C 
BRANCH  14  15
ATOM     15  C   UNL     1       4.093   3.664  17.492  0.00  0.00    +0.000 C 
ATOM     16  C   UNL     1       2.565   3.588  17.421  0.00  0.00    +0.000 C 
BRANCH  15  17
ATOM     17  N   UNL     1       4.559   4.092  16.161  0.00  0.00    +0.000 NA
ATOM     18  C   UNL     1       5.696   3.604  15.789  0.00  0.00    +0.000 C 
BRANCH  18  19
ATOM     19  C   UNL     1       6.312   3.990  14.499  0.00  0.00    +0.000 A 
ATOM     20  C   UNL     1       5.928   3.328  13.325  0.00  0.00    +0.000 A 
ATOM     21  C   UNL     1       6.472   3.705  12.095  0.00  0.00    +0.000 A 
ATOM     22  C   UNL     1       7.400   4.742  12.033  0.00  0.00    +0.000 A 
ATOM     23  C   UNL     1       7.794   5.403  13.199  0.00  0.00    +0.000 A 
ATOM     24  C   UNL     1       7.251   5.024  14.430  0.00  0.00    +0.000 A 
BRANCH  24  25
ATOM     25  O   UNL     1       7.637   5.677  15.568  0.00  0.00    +0.000 OA
ATOM     26  H   UNL     1       7.428   5.125  16.340  0.00  0.00    +0.000 HD
ENDBRANCH  24  25
ENDBRANCH  18  19
ENDBRANCH  15  17
ENDBRANCH  14  15
ENDBRANCH   3  14
TORSDOF 7
ENDMDL
MODEL 8
REMARK VINA RESULT:      -7.3      2.612      7.178
REMARK  Name = 
REMARK  9 active torsions:
REMARK  status: ('A' for Active; 'I' for Inactive)
REMARK    1  A    between atoms: C_1  and  C_2
REMARK    2  A    between atoms: C_5  and  C_6
REMARK    3  A    between atoms: N_8  and  C_9
REMARK    4  A    between atoms: C_9  and  C_10
REMARK    5  A    between atoms: C_10  and  C_11
REMARK    6  A    between atoms: C_10  and  N_12
REMARK    7  A    between atoms: C_13  and  C_14
REMARK    8  A    between atoms: C_19  and  O_20
REMARK    9  A    between atoms: C_21  and  O_22
REMARK                            x       y       z     vdW  Elec       q    Type
REMARK                         _______ _______ _______ _____ _____    ______ ____
ROOT
ATOM      1  C   UNL     1       5.393   3.981  18.629  0.00  0.00    +0.000 C 
ATOM      2  O   UNL     1       5.807   4.666  19.563  0.00  0.00    +0.000 OA
ATOM      3  N   UNL     1       4.483   2.961  18.808  0.00  0.00    +0.000 N 
ATOM      4  H   UNL     1       4.116   2.440  18.029  0.00  0.00    +0.000 HD
ENDROOT
BRANCH   1   9
ATOM      5  C   UNL     1       7.217   4.996  13.183  0.00  0.00    +0.000 C 
ATOM      6  C   UNL     1       6.766   4.751  14.593  0.00  0.00    +0.000 A 
ATOM      7  C   UNL     1       7.661   4.838  15.664  0.00  0.00    +0.000 A 
ATOM      8  C   UNL     1       7.233   4.595  16.978  0.00  0.00    +0.000 A 
ATOM      9  C   UNL     1       5.897   4.261  17.245  0.00  0.00    +0.000 A 
ATOM     10  C   UNL     1       5.004   4.186  16.162  0.00  0.00    +0.000 A 
ATOM     11  C   UNL     1       5.432   4.426  14.854  0.00  0.00    +0.000 A 
BRANCH  10  12
ATOM     12  O   UNL     1       3.672   3.882  16.298  0.00  0.00    +0.000 OA
ATOM     13  H   UNL     1       3.532   2.982  15.923  0.00  0.00    +0.000 HD
ENDBRANCH  10  12
ENDBRANCH   1   9
BRANCH   3  14
ATOM     14  C   UNL     1       3.940   2.633  20.117  0.00  0.00    +0.000 C 
BRANCH  14  15
ATOM     15  C   UNL     1       2.494   3.125  20.332  0.00  0.00    +0.000 C 
ATOM     16  C   UNL     1       2.245   3.478  21.801  0.00  0.00    +0.000 C 
BRANCH  15  17
ATOM     17  N   UNL     1       2.295   4.362  19.557  0.00  0.00    +0.000 NA
ATOM     18  C   UNL     1       2.475   5.461  20.212  0.00  0.00    +0.000 C 
BRANCH  18  19
ATOM     19  C   UNL     1       2.257   6.779  19.575  0.00  0.00    +0.000 A 
ATOM     20  C   UNL     1       2.648   6.975  18.242  0.00  0.00    +0.000 A 
ATOM     21  C   UNL     1       2.416   8.201  17.615  0.00  0.00    +0.000 A 
ATOM     22  C   UNL     1       1.795   9.234  18.313  0.00  0.00    +0.000 A 
ATOM     23  C   UNL     1       1.409   9.050  19.643  0.00  0.00    +0.000 A 
ATOM     24  C   UNL     1       1.643   7.824  20.272  0.00  0.00    +0.000 A 
BRANCH  24  25
ATOM     25  O   UNL     1       1.260   7.649  21.573  0.00  0.00    +0.000 OA
ATOM     26  H   UNL     1       2.046   7.476  22.117  0.00  0.00    +0.000 HD
ENDBRANCH  24  25
ENDBRANCH  18  19
ENDBRANCH  15  17
ENDBRANCH  14  15
ENDBRANCH   3  14
TORSDOF 7
ENDMDL
MODEL 9
REMARK VINA RESULT:      -7.3      3.348      5.270
REMARK  Name = 
REMARK  9 active torsions:
REMARK  status: ('A' for Active; 'I' for Inactive)
REMARK    1  A    between atoms: C_1  and  C_2
REMARK    2  A    between atoms: C_5  and  C_6
REMARK    3  A    between atoms: N_8  and  C_9
REMARK    4  A    between atoms: C_9  and  C_10
REMARK    5  A    between atoms: C_10  and  C_11
REMARK    6  A    between atoms: C_10  and  N_12
REMARK    7  A    between atoms: C_13  and  C_14
REMARK    8  A    between atoms: C_19  and  O_20
REMARK    9  A    between atoms: C_21  and  O_22
REMARK                            x       y       z     vdW  Elec       q    Type
REMARK                         _______ _______ _______ _____ _____    ______ ____
ROOT
ATOM      1  C   UNL     1       2.767   6.154  19.691  0.00  0.00    +0.000 C 
ATOM      2  O   UNL     1       3.991   6.030  19.671  0.00  0.00    +0.000 OA
ATOM      3  N   UNL     1       1.924   5.103  19.979  0.00  0.00    +0.000 N 
ATOM      4  H   UNL     1       0.927   5.230  20.040  0.00  0.00    +0.000 HD
ENDROOT
BRANCH   1   9
ATOM      5  C   UNL     1       0.352  11.361  18.658  0.00  0.00    +0.000 C 
ATOM      6  C   UNL     1       0.990  10.026  18.904  0.00  0.00    +0.000 A 
ATOM      7  C   UNL     1       1.605   9.316  17.868  0.00  0.00    +0.000 A 
ATOM      8  C   UNL     1       2.189   8.063  18.106  0.00  0.00    +0.000 A 
ATOM      9  C   UNL     1       2.168   7.495  19.389  0.00  0.00    +0.000 A 
ATOM     10  C   UNL     1       1.556   8.221  20.424  0.00  0.00    +0.000 A 
ATOM     11  C   UNL     1       0.974   9.469  20.185  0.00  0.00    +0.000 A 
BRANCH  10  12
ATOM     12  O   UNL     1       1.485   7.778  21.721  0.00  0.00    +0.000 OA
ATOM     13  H   UNL     1       1.911   8.458  22.292  0.00  0.00    +0.000 HD
ENDBRANCH  10  12
ENDBRANCH   1   9
BRANCH   3  14
ATOM     14  C   UNL     1       2.426   3.774  20.291  0.00  0.00    +0.000 C 
BRANCH  14  15
ATOM     15  C   UNL     1       2.318   2.777  19.119  0.00  0.00    +0.000 C 
ATOM     16  C   UNL     1       0.869   2.637  18.646  0.00  0.00    +0.000 C 
BRANCH  15  17
ATOM     17  N   UNL     1       3.089   3.303  17.979  0.00  0.00    +0.000 NA
ATOM     18  C   UNL     1       4.371   3.319  18.136  0.00  0.00    +0.000 C 
BRANCH  18  19
ATOM     19  C   UNL     1       5.265   3.872  17.094  0.00  0.00    +0.000 A 
ATOM     20  C   UNL     1       4.935   3.706  15.741  0.00  0.00    +0.000 A 
ATOM     21  C   UNL     1       5.749   4.253  14.747  0.00  0.00    +0.000 A 
ATOM     22  C   UNL     1       6.893   4.966  15.098  0.00  0.00    +0.000 A 
ATOM     23  C   UNL     1       7.234   5.131  16.443  0.00  0.00    +0.000 A 
ATOM     24  C   UNL     1       6.420   4.581  17.438  0.00  0.00    +0.000 A 
BRANCH  24  25
ATOM     25  O   UNL     1       6.756   4.749  18.753  0.00  0.00    +0.000 OA
ATOM     26  H   UNL     1       7.725   4.755  18.837  0.00  0.00    +0.000 HD
ENDBRANCH  24  25
ENDBRANCH  18  19
ENDBRANCH  15  17
ENDBRANCH  14  15
ENDBRANCH   3  14
TORSDOF 7
ENDMDL
