MODEL 1
REMARK VINA RESULT:      -8.1      0.000      0.000
REMARK  Name = 
REMARK  13 active torsions:
REMARK  status: ('A' for Active; 'I' for Inactive)
REMARK    1  A    between atoms: O_1  and  C_2
REMARK    2  A    between atoms: C_2  and  C_3
REMARK    3  A    between atoms: C_5  and  C_6
REMARK    4  A    between atoms: C_11  and  C_12
REMARK    5  A    between atoms: C_12  and  C_13
REMARK    6  A    between atoms: C_16  and  O_17
REMARK    7  A    between atoms: O_17  and  C_18
REMARK    8  A    between atoms: C_18  and  C_19
REMARK    9  A    between atoms: C_19  and  O_20
REMARK   10  A    between atoms: O_20  and  C_21
REMARK   11  A    between atoms: C_28  and  O_29
REMARK   12  A    between atoms: C_30  and  O_31
REMARK   13  A    between atoms: C_32  and  O_33
REMARK                            x       y       z     vdW  Elec       q    Type
REMARK                         _______ _______ _______ _____ _____    ______ ____
ROOT
ATOM      1  C   UNL     1       2.115   6.515  19.854  0.00  0.00    +0.000 A 
ATOM      2  C   UNL     1       1.322   5.528  20.452  0.00  0.00    +0.000 A 
ATOM      3  C   UNL     1       1.589   4.176  20.234  0.00  0.00    +0.000 A 
ATOM      4  C   UNL     1       2.653   3.784  19.415  0.00  0.00    +0.000 A 
ATOM      5 CL   UNL     1       2.953   2.091  19.261  0.00  0.00    +0.000 Cl
ATOM      6  C   UNL     1       3.455   4.745  18.786  0.00  0.00    +0.000 A 
ATOM      7  C   UNL     1       3.169   6.105  19.018  0.00  0.00    +0.000 A 
ENDROOT
BRANCH   1  10
ATOM      8  C   UNL     1       0.575   9.400  21.604  0.00  0.00    +0.000 C 
ATOM      9  O   UNL     1       0.868   8.064  21.179  0.00  0.00    +0.000 OA
ATOM     10  C   UNL     1       1.876   7.985  20.165  0.00  0.00    +0.000 C 
ATOM     11  C   UNL     1       1.434   8.755  18.896  0.00  0.00    +0.000 C 
ATOM     12  C   UNL     1       0.990  10.183  19.263  0.00  0.00    +0.000 C 
ATOM     13  C   UNL     1      -0.011  10.189  20.429  0.00  0.00    +0.000 C 
BRANCH  11  14
ATOM     14  O   UNL     1       2.479   8.809  17.915  0.00  0.00    +0.000 OA
ATOM     15  H   UNL     1       2.090   9.004  17.045  0.00  0.00    +0.000 HD
ENDBRANCH  11  14
BRANCH  12  16
ATOM     16  O   UNL     1       0.430  10.857  18.129  0.00  0.00    +0.000 OA
ATOM     17  H   UNL     1      -0.168  10.240  17.670  0.00  0.00    +0.000 HD
ENDBRANCH  12  16
BRANCH  13  18
ATOM     18  O   UNL     1      -0.338  11.521  20.834  0.00  0.00    +0.000 OA
ATOM     19  H   UNL     1      -0.586  11.511  21.777  0.00  0.00    +0.000 HD
ENDBRANCH  13  18
BRANCH   8  20
ATOM     20  C   UNL     1      -0.421   9.329  22.770  0.00  0.00    +0.000 C 
BRANCH  20  21
ATOM     21  O   UNL     1      -0.398  10.556  23.501  0.00  0.00    +0.000 OA
ATOM     22  H   UNL     1       0.536  10.782  23.645  0.00  0.00    +0.000 HD
ENDBRANCH  20  21
ENDBRANCH   8  20
ENDBRANCH   1  10
BRANCH   6  23
ATOM     23  C   UNL     1       4.631   4.390  17.906  0.00  0.00    +0.000 C 
BRANCH  23  24
ATOM     24  C   UNL     1       5.816   5.325  17.975  0.00  0.00    +0.000 A 
ATOM     25  C   UNL     1       5.913   6.401  17.087  0.00  0.00    +0.000 A 
ATOM     26  C   UNL     1       6.928   7.352  17.224  0.00  0.00    +0.000 A 
ATOM     27  C   UNL     1       7.870   7.246  18.245  0.00  0.00    +0.000 A 
ATOM     28  C   UNL     1       7.819   6.141  19.100  0.00  0.00    +0.000 A 
ATOM     29  C   UNL     1       6.805   5.182  18.964  0.00  0.00    +0.000 A 
BRANCH  27  30
ATOM     30  O   UNL     1       8.852   8.170  18.516  0.00  0.00    +0.000 OA
BRANCH  30  31
ATOM     31  C   UNL     1       8.488   9.528  18.254  0.00  0.00    +0.000 C 
BRANCH  31  32
ATOM     32  C   UNL     1       9.186  10.483  19.212  0.00  0.00    +0.000 C 
BRANCH  32  33
ATOM     33  O   UNL     1      10.304  11.051  18.528  0.00  0.00    +0.000 OA
BRANCH  33  34
ATOM     34  C   UNL     1      10.047  12.265  17.799  0.00  0.00    +0.000 C 
ATOM     35  C   UNL     1       9.951  13.555  18.656  0.00  0.00    +0.000 C 
ATOM     36  C   UNL     1      10.652  14.287  17.495  0.00  0.00    +0.000 C 
ATOM     37  C   UNL     1      11.269  12.928  17.114  0.00  0.00    +0.000 C 
ENDBRANCH  33  34
ENDBRANCH  32  33
ENDBRANCH  31  32
ENDBRANCH  30  31
ENDBRANCH  27  30
ENDBRANCH  23  24
ENDBRANCH   6  23
TORSDOF 13
ENDMDL
MODEL 2
REMARK VINA RESULT:      -8.1      3.552      5.555
REMARK  Name = 
REMARK  13 active torsions:
REMARK  status: ('A' for Active; 'I' for Inactive)
REMARK    1  A    between atoms: O_1  and  C_2
REMARK    2  A    between atoms: C_2  and  C_3
REMARK    3  A    between atoms: C_5  and  C_6
REMARK    4  A    between atoms: C_11  and  C_12
REMARK    5  A    between atoms: C_12  and  C_13
REMARK    6  A    between atoms: C_16  and  O_17
REMARK    7  A    between atoms: O_17  and  C_18
REMARK    8  A    between atoms: C_18  and  C_19
REMARK    9  A    between atoms: C_19  and  O_20
REMARK   10  A    between atoms: O_20  and  C_21
REMARK   11  A    between atoms: C_28  and  O_29
REMARK   12  A    between atoms: C_30  and  O_31
REMARK   13  A    between atoms: C_32  and  O_33
REMARK                            x       y       z     vdW  Elec       q    Type
REMARK                         _______ _______ _______ _____ _____    ______ ____
ROOT
ATOM      1  C   UNL     1       1.977   6.258  20.151  0.00  0.00    +0.000 A 
ATOM      2  C   UNL     1       0.878   5.423  20.390  0.00  0.00    +0.000 A 
ATOM      3  C   UNL     1       1.007   4.037  20.293  0.00  0.00    +0.000 A 
ATOM      4  C   UNL     1       2.235   3.458  19.956  0.00  0.00    +0.000 A 
ATOM      5 CL   UNL     1       2.319   1.734  19.931  0.00  0.00    +0.000 Cl
ATOM      6  C   UNL     1       3.350   4.264  19.693  0.00  0.00    +0.000 A 
ATOM      7  C   UNL     1       3.200   5.662  19.795  0.00  0.00    +0.000 A 
ENDROOT
BRANCH   1  10
ATOM      8  C   UNL     1       0.597   9.388  21.584  0.00  0.00    +0.000 C 
ATOM      9  O   UNL     1       0.793   8.003  21.274  0.00  0.00    +0.000 OA
ATOM     10  C   UNL     1       1.855   7.762  20.344  0.00  0.00    +0.000 C 
ATOM     11  C   UNL     1       1.573   8.472  18.997  0.00  0.00    +0.000 C 
ATOM     12  C   UNL     1       1.240   9.957  19.234  0.00  0.00    +0.000 C 
ATOM     13  C   UNL     1       0.167  10.137  20.320  0.00  0.00    +0.000 C 
BRANCH  11  14
ATOM     14  O   UNL     1       2.683   8.362  18.095  0.00  0.00    +0.000 OA
ATOM     15  H   UNL     1       3.426   8.884  18.440  0.00  0.00    +0.000 HD
ENDBRANCH  11  14
BRANCH  12  16
ATOM     16  O   UNL     1       0.823  10.592  18.018  0.00  0.00    +0.000 OA
ATOM     17  H   UNL     1       0.095  11.205  18.226  0.00  0.00    +0.000 HD
ENDBRANCH  12  16
BRANCH  13  18
ATOM     18  O   UNL     1      -0.061  11.518  20.608  0.00  0.00    +0.000 OA
ATOM     19  H   UNL     1       0.228  12.051  19.845  0.00  0.00    +0.000 HD
ENDBRANCH  13  18
BRANCH   8  20
ATOM     20  C   UNL     1      -0.478   9.491  22.675  0.00  0.00    +0.000 C 
BRANCH  20  21
ATOM     21  O   UNL     1      -0.333  10.724  23.382  0.00  0.00    +0.000 OA
ATOM     22  H   UNL     1      -0.301  10.507  24.328  0.00  0.00    +0.000 HD
ENDBRANCH  20  21
ENDBRANCH   8  20
ENDBRANCH   1  10
BRANCH   6  23
ATOM     23  C   UNL     1       4.709   3.703  19.344  0.00  0.00    +0.000 C 
BRANCH  23  24
ATOM     24  C   UNL     1       5.398   4.329  18.154  0.00  0.00    +0.000 A 
ATOM     25  C   UNL     1       6.466   5.212  18.346  0.00  0.00    +0.000 A 
ATOM     26  C   UNL     1       7.201   5.692  17.258  0.00  0.00    +0.000 A 
ATOM     27  C   UNL     1       6.883   5.308  15.958  0.00  0.00    +0.000 A 
ATOM     28  C   UNL     1       5.780   4.476  15.750  0.00  0.00    +0.000 A 
ATOM     29  C   UNL     1       5.037   3.993  16.838  0.00  0.00    +0.000 A 
BRANCH  27  30
ATOM     30  O   UNL     1       7.594   5.656  14.833  0.00  0.00    +0.000 OA
BRANCH  30  31
ATOM     31  C   UNL     1       7.631   4.656  13.812  0.00  0.00    +0.000 C 
BRANCH  31  32
ATOM     32  C   UNL     1       7.768   5.280  12.430  0.00  0.00    +0.000 C 
BRANCH  32  33
ATOM     33  O   UNL     1       7.004   4.491  11.516  0.00  0.00    +0.000 OA
BRANCH  33  34
ATOM     34  C   UNL     1       6.695   3.152  11.944  0.00  0.00    +0.000 C 
ATOM     35  C   UNL     1       5.297   2.621  11.531  0.00  0.00    +0.000 C 
ATOM     36  C   UNL     1       5.962   1.244  11.336  0.00  0.00    +0.000 C 
ATOM     37  C   UNL     1       7.278   2.004  11.083  0.00  0.00    +0.000 C 
ENDBRANCH  33  34
ENDBRANCH  32  33
ENDBRANCH  31  32
ENDBRANCH  30  31
ENDBRANCH  27  30
ENDBRANCH  23  24
ENDBRANCH   6  23
TORSDOF 13
ENDMDL
MODEL 3
REMARK VINA RESULT:      -7.9      0.830      1.029
REMARK  Name = 
REMARK  13 active torsions:
REMARK  status: ('A' for Active; 'I' for Inactive)
REMARK    1  A    between atoms: O_1  and  C_2
REMARK    2  A    between atoms: C_2  and  C_3
REMARK    3  A    between atoms: C_5  and  C_6
REMARK    4  A    between atoms: C_11  and  C_12
REMARK    5  A    between atoms: C_12  and  C_13
REMARK    6  A    between atoms: C_16  and  O_17
REMARK    7  A    between atoms: O_17  and  C_18
REMARK    8  A    between atoms: C_18  and  C_19
REMARK    9  A    between atoms: C_19  and  O_20
REMARK   10  A    between atoms: O_20  and  C_21
REMARK   11  A    between atoms: C_28  and  O_29
REMARK   12  A    between atoms: C_30  and  O_31
REMARK   13  A    between atoms: C_32  and  O_33
REMARK                            x       y       z     vdW  Elec       q    Type
REMARK                         _______ _______ _______ _____ _____    ______ ____
ROOT
ATOM      1  C   UNL     1       2.016   6.231  19.934  0.00  0.00    +0.000 A 
ATOM      2  C   UNL     1       1.130   5.322  20.525  0.00  0.00    +0.000 A 
ATOM      3  C   UNL     1       1.293   3.949  20.336  0.00  0.00    +0.000 A 
ATOM      4  C   UNL     1       2.343   3.459  19.552  0.00  0.00    +0.000 A 
ATOM      5 CL   UNL     1       2.509   1.744  19.433  0.00  0.00    +0.000 Cl
ATOM      6  C   UNL     1       3.236   4.340  18.930  0.00  0.00    +0.000 A 
ATOM      7  C   UNL     1       3.054   5.723  19.133  0.00  0.00    +0.000 A 
ENDROOT
BRANCH   1  10
ATOM      8  C   UNL     1       0.636   9.265  21.561  0.00  0.00    +0.000 C 
ATOM      9  O   UNL     1       0.835   7.902  21.168  0.00  0.00    +0.000 OA
ATOM     10  C   UNL     1       1.888   7.721  20.214  0.00  0.00    +0.000 C 
ATOM     11  C   UNL     1       1.586   8.506  18.914  0.00  0.00    +0.000 C 
ATOM     12  C   UNL     1       1.248   9.973  19.240  0.00  0.00    +0.000 C 
ATOM     13  C   UNL     1       0.187  10.083  20.347  0.00  0.00    +0.000 C 
BRANCH  11  14
ATOM     14  O   UNL     1       2.686   8.455  17.994  0.00  0.00    +0.000 OA
ATOM     15  H   UNL     1       2.354   8.204  17.115  0.00  0.00    +0.000 HD
ENDBRANCH  11  14
BRANCH  12  16
ATOM     16  O   UNL     1       0.814  10.675  18.068  0.00  0.00    +0.000 OA
ATOM     17  H   UNL     1      -0.102  10.406  17.872  0.00  0.00    +0.000 HD
ENDBRANCH  12  16
BRANCH  13  18
ATOM     18  O   UNL     1      -0.045  11.444  20.717  0.00  0.00    +0.000 OA
ATOM     19  H   UNL     1      -0.690  11.832  20.099  0.00  0.00    +0.000 HD
ENDBRANCH  13  18
BRANCH   8  20
ATOM     20  C   UNL     1      -0.427   9.298  22.668  0.00  0.00    +0.000 C 
BRANCH  20  21
ATOM     21  O   UNL     1      -0.228  10.446  23.496  0.00  0.00    +0.000 OA
ATOM     22  H   UNL     1      -1.095  10.871  23.603  0.00  0.00    +0.000 HD
ENDBRANCH  20  21
ENDBRANCH   8  20
ENDBRANCH   1  10
BRANCH   6  23
ATOM     23  C   UNL     1       4.401   3.877  18.088  0.00  0.00    +0.000 C 
BRANCH  23  24
ATOM     24  C   UNL     1       5.440   4.924  17.760  0.00  0.00    +0.000 A 
ATOM     25  C   UNL     1       5.298   5.720  16.619  0.00  0.00    +0.000 A 
ATOM     26  C   UNL     1       6.172   6.782  16.373  0.00  0.00    +0.000 A 
ATOM     27  C   UNL     1       7.210   7.068  17.257  0.00  0.00    +0.000 A 
ATOM     28  C   UNL     1       7.399   6.241  18.368  0.00  0.00    +0.000 A 
ATOM     29  C   UNL     1       6.526   5.173  18.617  0.00  0.00    +0.000 A 
BRANCH  27  30
ATOM     30  O   UNL     1       8.068   8.138  17.151  0.00  0.00    +0.000 OA
BRANCH  30  31
ATOM     31  C   UNL     1       8.434   8.741  18.394  0.00  0.00    +0.000 C 
BRANCH  31  32
ATOM     32  C   UNL     1       8.954  10.157  18.191  0.00  0.00    +0.000 C 
BRANCH  32  33
ATOM     33  O   UNL     1       9.714  10.515  19.348  0.00  0.00    +0.000 OA
BRANCH  33  34
ATOM     34  C   UNL     1       9.623  11.890  19.761  0.00  0.00    +0.000 C 
ATOM     35  C   UNL     1      10.697  12.359  20.777  0.00  0.00    +0.000 C 
ATOM     36  C   UNL     1      10.698  13.711  20.037  0.00  0.00    +0.000 C 
ATOM     37  C   UNL     1      10.222  12.940  18.791  0.00  0.00    +0.000 C 
ENDBRANCH  33  34
ENDBRANCH  32  33
ENDBRANCH  31  32
ENDBRANCH  30  31
ENDBRANCH  27  30
ENDBRANCH  23  24
ENDBRANCH   6  23
TORSDOF 13
ENDMDL
MODEL 4
REMARK VINA RESULT:      -7.7      0.574      1.032
REMARK  Name = 
REMARK  13 active torsions:
REMARK  status: ('A' for Active; 'I' for Inactive)
REMARK    1  A    between atoms: O_1  and  C_2
REMARK    2  A    between atoms: C_2  and  C_3
REMARK    3  A    between atoms: C_5  and  C_6
REMARK    4  A    between atoms: C_11  and  C_12
REMARK    5  A    between atoms: C_12  and  C_13
REMARK    6  A    between atoms: C_16  and  O_17
REMARK    7  A    between atoms: O_17  and  C_18
REMARK    8  A    between atoms: C_18  and  C_19
REMARK    9  A    between atoms: C_19  and  O_20
REMARK   10  A    between atoms: O_20  and  C_21
REMARK   11  A    between atoms: C_28  and  O_29
REMARK   12  A    between atoms: C_30  and  O_31
REMARK   13  A    between atoms: C_32  and  O_33
REMARK                            x       y       z     vdW  Elec       q    Type
REMARK                         _______ _______ _______ _____ _____    ______ ____
ROOT
ATOM      1  C   UNL     1       1.995   6.552  20.039  0.00  0.00    +0.000 A 
ATOM      2  C   UNL     1       1.097   5.575  20.484  0.00  0.00    +0.000 A 
ATOM      3  C   UNL     1       1.392   4.219  20.331  0.00  0.00    +0.000 A 
ATOM      4  C   UNL     1       2.589   3.815  19.732  0.00  0.00    +0.000 A 
ATOM      5 CL   UNL     1       2.903   2.119  19.652  0.00  0.00    +0.000 Cl
ATOM      6  C   UNL     1       3.502   4.766  19.259  0.00  0.00    +0.000 A 
ATOM      7  C   UNL     1       3.185   6.130  19.421  0.00  0.00    +0.000 A 
ENDROOT
BRANCH   1  10
ATOM      8  C   UNL     1       0.383   9.462  21.681  0.00  0.00    +0.000 C 
ATOM      9  O   UNL     1       0.716   8.118  21.313  0.00  0.00    +0.000 OA
ATOM     10  C   UNL     1       1.710   8.026  20.286  0.00  0.00    +0.000 C 
ATOM     11  C   UNL     1       1.222   8.721  18.991  0.00  0.00    +0.000 C 
ATOM     12  C   UNL     1       0.735  10.149  19.300  0.00  0.00    +0.000 C 
ATOM     13  C   UNL     1      -0.247  10.175  20.482  0.00  0.00    +0.000 C 
BRANCH  11  14
ATOM     14  O   UNL     1       2.250   8.765  17.991  0.00  0.00    +0.000 OA
ATOM     15  H   UNL     1       2.935   8.111  18.211  0.00  0.00    +0.000 HD
ENDBRANCH  11  14
BRANCH  12  16
ATOM     16  O   UNL     1       0.135  10.751  18.146  0.00  0.00    +0.000 OA
ATOM     17  H   UNL     1       0.846  11.090  17.573  0.00  0.00    +0.000 HD
ENDBRANCH  12  16
BRANCH  13  18
ATOM     18  O   UNL     1      -0.614  11.512  20.830  0.00  0.00    +0.000 OA
ATOM     19  H   UNL     1       0.169  12.087  20.739  0.00  0.00    +0.000 HD
ENDBRANCH  13  18
BRANCH   8  20
ATOM     20  C   UNL     1      -0.592   9.411  22.865  0.00  0.00    +0.000 C 
BRANCH  20  21
ATOM     21  O   UNL     1       0.129   9.549  24.091  0.00  0.00    +0.000 OA
ATOM     22  H   UNL     1      -0.085  10.428  24.448  0.00  0.00    +0.000 HD
ENDBRANCH  20  21
ENDBRANCH   8  20
ENDBRANCH   1  10
BRANCH   6  23
ATOM     23  C   UNL     1       4.821   4.398  18.620  0.00  0.00    +0.000 C 
BRANCH  23  24
ATOM     24  C   UNL     1       5.802   5.531  18.425  0.00  0.00    +0.000 A 
ATOM     25  C   UNL     1       6.996   5.557  19.151  0.00  0.00    +0.000 A 
ATOM     26  C   UNL     1       7.974   6.520  18.885  0.00  0.00    +0.000 A 
ATOM     27  C   UNL     1       7.778   7.479  17.894  0.00  0.00    +0.000 A 
ATOM     28  C   UNL     1       6.562   7.500  17.205  0.00  0.00    +0.000 A 
ATOM     29  C   UNL     1       5.577   6.538  17.470  0.00  0.00    +0.000 A 
BRANCH  27  30
ATOM     30  O   UNL     1       8.709   8.412  17.500  0.00  0.00    +0.000 OA
BRANCH  30  31
ATOM     31  C   UNL     1       8.475   9.736  17.984  0.00  0.00    +0.000 C 
BRANCH  31  32
ATOM     32  C   UNL     1       9.261  10.005  19.260  0.00  0.00    +0.000 C 
BRANCH  32  33
ATOM     33  O   UNL     1       9.773  11.338  19.187  0.00  0.00    +0.000 OA
BRANCH  33  34
ATOM     34  C   UNL     1      10.326  11.731  17.918  0.00  0.00    +0.000 C 
ATOM     35  C   UNL     1      10.008  13.180  17.466  0.00  0.00    +0.000 C 
ATOM     36  C   UNL     1      11.432  13.229  16.877  0.00  0.00    +0.000 C 
ATOM     37  C   UNL     1      11.814  12.162  17.922  0.00  0.00    +0.000 C 
ENDBRANCH  33  34
ENDBRANCH  32  33
ENDBRANCH  31  32
ENDBRANCH  30  31
ENDBRANCH  27  30
ENDBRANCH  23  24
ENDBRANCH   6  23
TORSDOF 13
ENDMDL
MODEL 5
REMARK VINA RESULT:      -7.7      4.908     10.506
REMARK  Name = 
REMARK  13 active torsions:
REMARK  status: ('A' for Active; 'I' for Inactive)
REMARK    1  A    between atoms: O_1  and  C_2
REMARK    2  A    between atoms: C_2  and  C_3
REMARK    3  A    between atoms: C_5  and  C_6
REMARK    4  A    between atoms: C_11  and  C_12
REMARK    5  A    between atoms: C_12  and  C_13
REMARK    6  A    between atoms: C_16  and  O_17
REMARK    7  A    between atoms: O_17  and  C_18
REMARK    8  A    between atoms: C_18  and  C_19
REMARK    9  A    between atoms: C_19  and  O_20
REMARK   10  A    between atoms: O_20  and  C_21
REMARK   11  A    between atoms: C_28  and  O_29
REMARK   12  A    between atoms: C_30  and  O_31
REMARK   13  A    between atoms: C_32  and  O_33
REMARK                            x       y       z     vdW  Elec       q    Type
REMARK                         _______ _______ _______ _____ _____    ______ ____
ROOT
ATOM      1  C   UNL     1       2.047   7.381  19.065  0.00  0.00    +0.000 A 
ATOM      2  C   UNL     1       1.948   7.226  20.453  0.00  0.00    +0.000 A 
ATOM      3  C   UNL     1       1.364   8.222  21.237  0.00  0.00    +0.000 A 
ATOM      4  C   UNL     1       0.868   9.391  20.650  0.00  0.00    +0.000 A 
ATOM      5 CL   UNL     1       0.097  10.534  21.689  0.00  0.00    +0.000 Cl
ATOM      6  C   UNL     1       0.968   9.587  19.267  0.00  0.00    +0.000 A 
ATOM      7  C   UNL     1       1.561   8.570  18.492  0.00  0.00    +0.000 A 
ENDROOT
BRANCH   1  10
ATOM      8  C   UNL     1       2.586   3.863  18.023  0.00  0.00    +0.000 C 
ATOM      9  O   UNL     1       2.168   5.014  18.767  0.00  0.00    +0.000 OA
ATOM     10  C   UNL     1       2.604   6.257  18.205  0.00  0.00    +0.000 C 
ATOM     11  C   UNL     1       4.151   6.317  18.147  0.00  0.00    +0.000 C 
ATOM     12  C   UNL     1       4.710   5.059  17.457  0.00  0.00    +0.000 C 
ATOM     13  C   UNL     1       4.114   3.771  18.046  0.00  0.00    +0.000 C 
BRANCH  11  14
ATOM     14  O   UNL     1       4.612   7.491  17.464  0.00  0.00    +0.000 OA
ATOM     15  H   UNL     1       4.765   8.198  18.114  0.00  0.00    +0.000 HD
ENDBRANCH  11  14
BRANCH  12  16
ATOM     16  O   UNL     1       6.141   5.022  17.534  0.00  0.00    +0.000 OA
ATOM     17  H   UNL     1       6.431   5.701  18.169  0.00  0.00    +0.000 HD
ENDBRANCH  12  16
BRANCH  13  18
ATOM     18  O   UNL     1       4.557   2.614  17.332  0.00  0.00    +0.000 OA
ATOM     19  H   UNL     1       5.161   2.104  17.903  0.00  0.00    +0.000 HD
ENDBRANCH  13  18
BRANCH   8  20
ATOM     20  C   UNL     1       1.951   2.619  18.661  0.00  0.00    +0.000 C 
BRANCH  20  21
ATOM     21  O   UNL     1       2.237   1.468  17.864  0.00  0.00    +0.000 OA
ATOM     22  H   UNL     1       2.761   1.772  17.105  0.00  0.00    +0.000 HD
ENDBRANCH  20  21
ENDBRANCH   8  20
ENDBRANCH   1  10
BRANCH   6  23
ATOM     23  C   UNL     1       0.435  10.816  18.568  0.00  0.00    +0.000 C 
BRANCH  23  24
ATOM     24  C   UNL     1      -1.038  10.802  18.234  0.00  0.00    +0.000 A 
ATOM     25  C   UNL     1      -1.909  11.694  18.867  0.00  0.00    +0.000 A 
ATOM     26  C   UNL     1      -3.247  11.789  18.473  0.00  0.00    +0.000 A 
ATOM     27  C   UNL     1      -3.745  10.992  17.445  0.00  0.00    +0.000 A 
ATOM     28  C   UNL     1      -2.898  10.054  16.846  0.00  0.00    +0.000 A 
ATOM     29  C   UNL     1      -1.556   9.953  17.240  0.00  0.00    +0.000 A 
BRANCH  27  30
ATOM     30  O   UNL     1      -5.017  11.070  16.928  0.00  0.00    +0.000 OA
BRANCH  30  31
ATOM     31  C   UNL     1      -5.954  11.779  17.742  0.00  0.00    +0.000 C 
BRANCH  31  32
ATOM     32  C   UNL     1      -6.800  10.825  18.573  0.00  0.00    +0.000 C 
BRANCH  32  33
ATOM     33  O   UNL     1      -6.502  11.062  19.951  0.00  0.00    +0.000 OA
BRANCH  33  34
ATOM     34  C   UNL     1      -6.230  12.429  20.310  0.00  0.00    +0.000 C 
ATOM     35  C   UNL     1      -7.448  13.246  20.814  0.00  0.00    +0.000 C 
ATOM     36  C   UNL     1      -6.484  13.932  21.802  0.00  0.00    +0.000 C 
ATOM     37  C   UNL     1      -5.616  12.661  21.714  0.00  0.00    +0.000 C 
ENDBRANCH  33  34
ENDBRANCH  32  33
ENDBRANCH  31  32
ENDBRANCH  30  31
ENDBRANCH  27  30
ENDBRANCH  23  24
ENDBRANCH   6  23
TORSDOF 13
ENDMDL
MODEL 6
REMARK VINA RESULT:      -7.6      5.022     10.331
REMARK  Name = 
REMARK  13 active torsions:
REMARK  status: ('A' for Active; 'I' for Inactive)
REMARK    1  A    between atoms: O_1  and  C_2
REMARK    2  A    between atoms: C_2  and  C_3
REMARK    3  A    between atoms: C_5  and  C_6
REMARK    4  A    between atoms: C_11  and  C_12
REMARK    5  A    between atoms: C_12  and  C_13
REMARK    6  A    between atoms: C_16  and  O_17
REMARK    7  A    between atoms: O_17  and  C_18
REMARK    8  A    between atoms: C_18  and  C_19
REMARK    9  A    between atoms: C_19  and  O_20
REMARK   10  A    between atoms: O_20  and  C_21
REMARK   11  A    between atoms: C_28  and  O_29
REMARK   12  A    between atoms: C_30  and  O_31
REMARK   13  A    between atoms: C_32  and  O_33
REMARK                            x       y       z     vdW  Elec       q    Type
REMARK                         _______ _______ _______ _____ _____    ______ ____
ROOT
ATOM      1  C   UNL     1       1.937   7.263  19.127  0.00  0.00    +0.000 A 
ATOM      2  C   UNL     1       1.821   7.176  20.519  0.00  0.00    +0.000 A 
ATOM      3  C   UNL     1       1.291   8.237  21.254  0.00  0.00    +0.000 A 
ATOM      4  C   UNL     1       0.867   9.405  20.612  0.00  0.00    +0.000 A 
ATOM      5 CL   UNL     1       0.157  10.637  21.592  0.00  0.00    +0.000 Cl
ATOM      6  C   UNL     1       0.986   9.534  19.222  0.00  0.00    +0.000 A 
ATOM      7  C   UNL     1       1.525   8.451  18.498  0.00  0.00    +0.000 A 
ENDROOT
BRANCH   1  10
ATOM      8  C   UNL     1       2.310   3.674  18.268  0.00  0.00    +0.000 C 
ATOM      9  O   UNL     1       1.952   4.880  18.954  0.00  0.00    +0.000 OA
ATOM     10  C   UNL     1       2.433   6.071  18.321  0.00  0.00    +0.000 C 
ATOM     11  C   UNL     1       3.980   6.060  18.243  0.00  0.00    +0.000 C 
ATOM     12  C   UNL     1       4.475   4.744  17.615  0.00  0.00    +0.000 C 
ATOM     13  C   UNL     1       3.833   3.516  18.279  0.00  0.00    +0.000 C 
BRANCH  11  14
ATOM     14  O   UNL     1       4.483   7.175  17.493  0.00  0.00    +0.000 OA
ATOM     15  H   UNL     1       3.815   7.882  17.488  0.00  0.00    +0.000 HD
ENDBRANCH  11  14
BRANCH  12  16
ATOM     16  O   UNL     1       5.904   4.649  17.678  0.00  0.00    +0.000 OA
ATOM     17  H   UNL     1       6.273   5.017  16.855  0.00  0.00    +0.000 HD
ENDBRANCH  12  16
BRANCH  13  18
ATOM     18  O   UNL     1       4.215   2.305  17.623  0.00  0.00    +0.000 OA
ATOM     19  H   UNL     1       5.075   2.443  17.184  0.00  0.00    +0.000 HD
ENDBRANCH  13  18
BRANCH   8  20
ATOM     20  C   UNL     1       1.631   2.495  18.979  0.00  0.00    +0.000 C 
BRANCH  20  21
ATOM     21  O   UNL     1       0.335   2.274  18.418  0.00  0.00    +0.000 OA
ATOM     22  H   UNL     1      -0.243   1.989  19.145  0.00  0.00    +0.000 HD
ENDBRANCH  20  21
ENDBRANCH   8  20
ENDBRANCH   1  10
BRANCH   6  23
ATOM     23  C   UNL     1       0.530  10.759  18.464  0.00  0.00    +0.000 C 
BRANCH  23  24
ATOM     24  C   UNL     1      -0.949  10.842  18.168  0.00  0.00    +0.000 A 
ATOM     25  C   UNL     1      -1.550   9.899  17.328  0.00  0.00    +0.000 A 
ATOM     26  C   UNL     1      -2.936   9.879  17.151  0.00  0.00    +0.000 A 
ATOM     27  C   UNL     1      -3.750  10.802  17.804  0.00  0.00    +0.000 A 
ATOM     28  C   UNL     1      -3.155  11.787  18.597  0.00  0.00    +0.000 A 
ATOM     29  C   UNL     1      -1.764  11.813  18.774  0.00  0.00    +0.000 A 
BRANCH  27  30
ATOM     30  O   UNL     1      -5.125  10.812  17.763  0.00  0.00    +0.000 OA
BRANCH  30  31
ATOM     31  C   UNL     1      -5.765  10.319  18.943  0.00  0.00    +0.000 C 
BRANCH  31  32
ATOM     32  C   UNL     1      -6.744  11.338  19.509  0.00  0.00    +0.000 C 
BRANCH  32  33
ATOM     33  O   UNL     1      -6.577  11.364  20.928  0.00  0.00    +0.000 OA
BRANCH  33  34
ATOM     34  C   UNL     1      -6.156  12.620  21.490  0.00  0.00    +0.000 C 
ATOM     35  C   UNL     1      -6.429  12.804  23.006  0.00  0.00    +0.000 C 
ATOM     36  C   UNL     1      -5.086  13.558  23.079  0.00  0.00    +0.000 C 
ATOM     37  C   UNL     1      -4.652  12.744  21.845  0.00  0.00    +0.000 C 
ENDBRANCH  33  34
ENDBRANCH  32  33
ENDBRANCH  31  32
ENDBRANCH  30  31
ENDBRANCH  27  30
ENDBRANCH  23  24
ENDBRANCH   6  23
TORSDOF 13
ENDMDL
MODEL 7
REMARK VINA RESULT:      -7.5      4.734     10.658
REMARK  Name = 
REMARK  13 active torsions:
REMARK  status: ('A' for Active; 'I' for Inactive)
REMARK    1  A    between atoms: O_1  and  C_2
REMARK    2  A    between atoms: C_2  and  C_3
REMARK    3  A    between atoms: C_5  and  C_6
REMARK    4  A    between atoms: C_11  and  C_12
REMARK    5  A    between atoms: C_12  and  C_13
REMARK    6  A    between atoms: C_16  and  O_17
REMARK    7  A    between atoms: O_17  and  C_18
REMARK    8  A    between atoms: C_18  and  C_19
REMARK    9  A    between atoms: C_19  and  O_20
REMARK   10  A    between atoms: O_20  and  C_21
REMARK   11  A    between atoms: C_28  and  O_29
REMARK   12  A    between atoms: C_30  and  O_31
REMARK   13  A    between atoms: C_32  and  O_33
REMARK                            x       y       z     vdW  Elec       q    Type
REMARK                         _______ _______ _______ _____ _____    ______ ____
ROOT
ATOM      1  C   UNL     1       2.265   7.256  18.904  0.00  0.00    +0.000 A 
ATOM      2  C   UNL     1       2.026   6.931  20.244  0.00  0.00    +0.000 A 
ATOM      3  C   UNL     1       1.348   7.820  21.079  0.00  0.00    +0.000 A 
ATOM      4  C   UNL     1       0.896   9.050  20.590  0.00  0.00    +0.000 A 
ATOM      5 CL   UNL     1       0.003  10.055  21.674  0.00  0.00    +0.000 Cl
ATOM      6  C   UNL     1       1.134   9.415  19.259  0.00  0.00    +0.000 A 
ATOM      7  C   UNL     1       1.822   8.504  18.432  0.00  0.00    +0.000 A 
ENDROOT
BRANCH   1  10
ATOM      8  C   UNL     1       3.800   4.010  17.969  0.00  0.00    +0.000 C 
ATOM      9  O   UNL     1       3.212   5.068  18.736  0.00  0.00    +0.000 OA
ATOM     10  C   UNL     1       2.927   6.247  17.976  0.00  0.00    +0.000 C 
ATOM     11  C   UNL     1       4.225   6.828  17.361  0.00  0.00    +0.000 C 
ATOM     12  C   UNL     1       4.993   5.732  16.599  0.00  0.00    +0.000 C 
ATOM     13  C   UNL     1       5.166   4.461  17.446  0.00  0.00    +0.000 C 
BRANCH  11  14
ATOM     14  O   UNL     1       3.951   7.928  16.483  0.00  0.00    +0.000 OA
ATOM     15  H   UNL     1       3.257   8.484  16.876  0.00  0.00    +0.000 HD
ENDBRANCH  11  14
BRANCH  12  16
ATOM     16  O   UNL     1       6.270   6.210  16.159  0.00  0.00    +0.000 OA
ATOM     17  H   UNL     1       6.881   6.197  16.917  0.00  0.00    +0.000 HD
ENDBRANCH  12  16
BRANCH  13  18
ATOM     18  O   UNL     1       5.787   3.412  16.698  0.00  0.00    +0.000 OA
ATOM     19  H   UNL     1       6.748   3.573  16.669  0.00  0.00    +0.000 HD
ENDBRANCH  13  18
BRANCH   8  20
ATOM     20  C   UNL     1       3.936   2.777  18.872  0.00  0.00    +0.000 C 
BRANCH  20  21
ATOM     21  O   UNL     1       5.184   2.822  19.566  0.00  0.00    +0.000 OA
ATOM     22  H   UNL     1       5.102   2.231  20.334  0.00  0.00    +0.000 HD
ENDBRANCH  20  21
ENDBRANCH   8  20
ENDBRANCH   1  10
BRANCH   6  23
ATOM     23  C   UNL     1       0.656  10.719  18.662  0.00  0.00    +0.000 C 
BRANCH  23  24
ATOM     24  C   UNL     1      -0.809  10.784  18.300  0.00  0.00    +0.000 A 
ATOM     25  C   UNL     1      -1.351   9.861  17.401  0.00  0.00    +0.000 A 
ATOM     26  C   UNL     1      -2.728   9.820  17.160  0.00  0.00    +0.000 A 
ATOM     27  C   UNL     1      -3.590  10.703  17.806  0.00  0.00    +0.000 A 
ATOM     28  C   UNL     1      -3.052  11.670  18.660  0.00  0.00    +0.000 A 
ATOM     29  C   UNL     1      -1.671  11.717  18.902  0.00  0.00    +0.000 A 
BRANCH  27  30
ATOM     30  O   UNL     1      -4.962  10.688  17.703  0.00  0.00    +0.000 OA
BRANCH  30  31
ATOM     31  C   UNL     1      -5.606  11.905  18.087  0.00  0.00    +0.000 C 
BRANCH  31  32
ATOM     32  C   UNL     1      -6.825  11.635  18.957  0.00  0.00    +0.000 C 
BRANCH  32  33
ATOM     33  O   UNL     1      -7.406  12.895  19.300  0.00  0.00    +0.000 OA
BRANCH  33  34
ATOM     34  C   UNL     1      -7.740  13.078  20.688  0.00  0.00    +0.000 C 
ATOM     35  C   UNL     1      -7.581  11.826  21.588  0.00  0.00    +0.000 C 
ATOM     36  C   UNL     1      -7.097  12.779  22.699  0.00  0.00    +0.000 C 
ATOM     37  C   UNL     1      -6.653  13.735  21.575  0.00  0.00    +0.000 C 
ENDBRANCH  33  34
ENDBRANCH  32  33
ENDBRANCH  31  32
ENDBRANCH  30  31
ENDBRANCH  27  30
ENDBRANCH  23  24
ENDBRANCH   6  23
TORSDOF 13
ENDMDL
MODEL 8
REMARK VINA RESULT:      -7.5      4.710     10.565
REMARK  Name = 
REMARK  13 active torsions:
REMARK  status: ('A' for Active; 'I' for Inactive)
REMARK    1  A    between atoms: O_1  and  C_2
REMARK    2  A    between atoms: C_2  and  C_3
REMARK    3  A    between atoms: C_5  and  C_6
REMARK    4  A    between atoms: C_11  and  C_12
REMARK    5  A    between atoms: C_12  and  C_13
REMARK    6  A    between atoms: C_16  and  O_17
REMARK    7  A    between atoms: O_17  and  C_18
REMARK    8  A    between atoms: C_18  and  C_19
REMARK    9  A    between atoms: C_19  and  O_20
REMARK   10  A    between atoms: O_20  and  C_21
REMARK   11  A    between atoms: C_28  and  O_29
REMARK   12  A    between atoms: C_30  and  O_31
REMARK   13  A    between atoms: C_32  and  O_33
REMARK                            x       y       z     vdW  Elec       q    Type
REMARK                         _______ _______ _______ _____ _____    ______ ____
ROOT
ATOM      1  C   UNL     1       2.136   7.488  19.036  0.00  0.00    +0.000 A 
ATOM      2  C   UNL     1       2.011   7.275  20.414  0.00  0.00    +0.000 A 
ATOM      3  C   UNL     1       1.342   8.201  21.216  0.00  0.00    +0.000 A 
ATOM      4  C   UNL     1       0.785   9.356  20.656  0.00  0.00    +0.000 A 
ATOM      5 CL   UNL     1      -0.087  10.407  21.712  0.00  0.00    +0.000 Cl
ATOM      6  C   UNL     1       0.907   9.609  19.284  0.00  0.00    +0.000 A 
ATOM      7  C   UNL     1       1.587   8.663  18.491  0.00  0.00    +0.000 A 
ENDROOT
BRANCH   1  10
ATOM      8  C   UNL     1       3.729   4.228  18.264  0.00  0.00    +0.000 C 
ATOM      9  O   UNL     1       3.142   5.321  18.980  0.00  0.00    +0.000 OA
ATOM     10  C   UNL     1       2.788   6.435  18.152  0.00  0.00    +0.000 C 
ATOM     11  C   UNL     1       4.040   7.006  17.441  0.00  0.00    +0.000 C 
ATOM     12  C   UNL     1       4.809   5.880  16.725  0.00  0.00    +0.000 C 
ATOM     13  C   UNL     1       5.058   4.679  17.650  0.00  0.00    +0.000 C 
BRANCH  11  14
ATOM     14  O   UNL     1       3.696   8.033  16.501  0.00  0.00    +0.000 OA
ATOM     15  H   UNL     1       4.505   8.346  16.061  0.00  0.00    +0.000 HD
ENDBRANCH  11  14
BRANCH  12  16
ATOM     16  O   UNL     1       6.051   6.361  16.195  0.00  0.00    +0.000 OA
ATOM     17  H   UNL     1       6.594   6.689  16.935  0.00  0.00    +0.000 HD
ENDBRANCH  12  16
BRANCH  13  18
ATOM     18  O   UNL     1       5.678   3.597  16.951  0.00  0.00    +0.000 OA
ATOM     19  H   UNL     1       5.245   3.494  16.083  0.00  0.00    +0.000 HD
ENDBRANCH  13  18
BRANCH   8  20
ATOM     20  C   UNL     1       3.942   3.067  19.244  0.00  0.00    +0.000 C 
BRANCH  20  21
ATOM     21  O   UNL     1       5.329   2.957  19.569  0.00  0.00    +0.000 OA
ATOM     22  H   UNL     1       5.750   3.790  19.300  0.00  0.00    +0.000 HD
ENDBRANCH  20  21
ENDBRANCH   8  20
ENDBRANCH   1  10
BRANCH   6  23
ATOM     23  C   UNL     1       0.313  10.825  18.614  0.00  0.00    +0.000 C 
BRANCH  23  24
ATOM     24  C   UNL     1      -1.193  10.842  18.485  0.00  0.00    +0.000 A 
ATOM     25  C   UNL     1      -1.940  11.836  19.124  0.00  0.00    +0.000 A 
ATOM     26  C   UNL     1      -3.316  11.947  18.905  0.00  0.00    +0.000 A 
ATOM     27  C   UNL     1      -3.975  11.067  18.050  0.00  0.00    +0.000 A 
ATOM     28  C   UNL     1      -3.249  10.032  17.455  0.00  0.00    +0.000 A 
ATOM     29  C   UNL     1      -1.868   9.914  17.673  0.00  0.00    +0.000 A 
BRANCH  27  30
ATOM     30  O   UNL     1      -5.304  11.145  17.704  0.00  0.00    +0.000 OA
BRANCH  30  31
ATOM     31  C   UNL     1      -6.190  10.409  18.551  0.00  0.00    +0.000 C 
BRANCH  31  32
ATOM     32  C   UNL     1      -7.053  11.339  19.392  0.00  0.00    +0.000 C 
BRANCH  32  33
ATOM     33  O   UNL     1      -6.606  11.245  20.747  0.00  0.00    +0.000 OA
BRANCH  33  34
ATOM     34  C   UNL     1      -6.061  12.450  21.316  0.00  0.00    +0.000 C 
ATOM     35  C   UNL     1      -6.719  13.772  20.843  0.00  0.00    +0.000 C 
ATOM     36  C   UNL     1      -6.522  14.295  22.280  0.00  0.00    +0.000 C 
ATOM     37  C   UNL     1      -6.557  12.824  22.735  0.00  0.00    +0.000 C 
ENDBRANCH  33  34
ENDBRANCH  32  33
ENDBRANCH  31  32
ENDBRANCH  30  31
ENDBRANCH  27  30
ENDBRANCH  23  24
ENDBRANCH   6  23
TORSDOF 13
ENDMDL
MODEL 9
REMARK VINA RESULT:      -7.4      4.687     10.427
REMARK  Name = 
REMARK  13 active torsions:
REMARK  status: ('A' for Active; 'I' for Inactive)
REMARK    1  A    between atoms: O_1  and  C_2
REMARK    2  A    between atoms: C_2  and  C_3
REMARK    3  A    between atoms: C_5  and  C_6
REMARK    4  A    between atoms: C_11  and  C_12
REMARK    5  A    between atoms: C_12  and  C_13
REMARK    6  A    between atoms: C_16  and  O_17
REMARK    7  A    between atoms: O_17  and  C_18
REMARK    8  A    between atoms: C_18  and  C_19
REMARK    9  A    between atoms: C_19  and  O_20
REMARK   10  A    between atoms: O_20  and  C_21
REMARK   11  A    between atoms: C_28  and  O_29
REMARK   12  A    between atoms: C_30  and  O_31
REMARK   13  A    between atoms: C_32  and  O_33
REMARK                            x       y       z     vdW  Elec       q    Type
REMARK                         _______ _______ _______ _____ _____    ______ ____
ROOT
ATOM      1  C   UNL     1       2.550   7.020  18.778  0.00  0.00    +0.000 A 
ATOM      2  C   UNL     1       2.220   6.506  20.038  0.00  0.00    +0.000 A 
ATOM      3  C   UNL     1       1.514   7.284  20.957  0.00  0.00    +0.000 A 
ATOM      4  C   UNL     1       1.126   8.589  20.635  0.00  0.00    +0.000 A 
ATOM      5 CL   UNL     1       0.194   9.451  21.806  0.00  0.00    +0.000 Cl
ATOM      6  C   UNL     1       1.456   9.141  19.391  0.00  0.00    +0.000 A 
ATOM      7  C   UNL     1       2.170   8.340  18.476  0.00  0.00    +0.000 A 
ENDROOT
BRANCH   1  10
ATOM      8  C   UNL     1       3.669   3.829  17.254  0.00  0.00    +0.000 C 
ATOM      9  O   UNL     1       3.099   4.777  18.165  0.00  0.00    +0.000 OA
ATOM     10  C   UNL     1       3.241   6.139  17.747  0.00  0.00    +0.000 C 
ATOM     11  C   UNL     1       4.737   6.515  17.611  0.00  0.00    +0.000 C 
ATOM     12  C   UNL     1       5.470   5.485  16.731  0.00  0.00    +0.000 C 
ATOM     13  C   UNL     1       5.183   4.044  17.178  0.00  0.00    +0.000 C 
BRANCH  11  14
ATOM     14  O   UNL     1       4.908   7.830  17.063  0.00  0.00    +0.000 OA
ATOM     15  H   UNL     1       5.704   7.842  16.505  0.00  0.00    +0.000 HD
ENDBRANCH  11  14
BRANCH  12  16
ATOM     16  O   UNL     1       6.883   5.728  16.722  0.00  0.00    +0.000 OA
ATOM     17  H   UNL     1       7.127   6.149  17.565  0.00  0.00    +0.000 HD
ENDBRANCH  12  16
BRANCH  13  18
ATOM     18  O   UNL     1       5.780   3.091  16.295  0.00  0.00    +0.000 OA
ATOM     19  H   UNL     1       6.613   2.774  16.691  0.00  0.00    +0.000 HD
ENDBRANCH  13  18
BRANCH   8  20
ATOM     20  C   UNL     1       3.339   2.417  17.758  0.00  0.00    +0.000 C 
BRANCH  20  21
ATOM     21  O   UNL     1       1.940   2.167  17.613  0.00  0.00    +0.000 OA
ATOM     22  H   UNL     1       1.480   2.776  18.214  0.00  0.00    +0.000 HD
ENDBRANCH  20  21
ENDBRANCH   8  20
ENDBRANCH   1  10
BRANCH   6  23
ATOM     23  C   UNL     1       1.051  10.535  18.972  0.00  0.00    +0.000 C 
BRANCH  23  24
ATOM     24  C   UNL     1      -0.346  10.680  18.414  0.00  0.00    +0.000 A 
ATOM     25  C   UNL     1      -1.068  11.858  18.629  0.00  0.00    +0.000 A 
ATOM     26  C   UNL     1      -2.303  12.063  18.007  0.00  0.00    +0.000 A 
ATOM     27  C   UNL     1      -2.845  11.095  17.165  0.00  0.00    +0.000 A 
ATOM     28  C   UNL     1      -2.161   9.889  16.992  0.00  0.00    +0.000 A 
ATOM     29  C   UNL     1      -0.923   9.677  17.616  0.00  0.00    +0.000 A 
BRANCH  27  30
ATOM     30  O   UNL     1      -4.007  11.236  16.442  0.00  0.00    +0.000 OA
BRANCH  30  31
ATOM     31  C   UNL     1      -5.124  11.726  17.188  0.00  0.00    +0.000 C 
BRANCH  31  32
ATOM     32  C   UNL     1      -5.552  10.734  18.260  0.00  0.00    +0.000 C 
BRANCH  32  33
ATOM     33  O   UNL     1      -6.943  10.940  18.517  0.00  0.00    +0.000 OA
BRANCH  33  34
ATOM     34  C   UNL     1      -7.258  11.771  19.648  0.00  0.00    +0.000 C 
ATOM     35  C   UNL     1      -7.885  11.041  20.864  0.00  0.00    +0.000 C 
ATOM     36  C   UNL     1      -7.075  11.998  21.761  0.00  0.00    +0.000 C 
ATOM     37  C   UNL     1      -6.080  12.125  20.590  0.00  0.00    +0.000 C 
ENDBRANCH  33  34
ENDBRANCH  32  33
ENDBRANCH  31  32
ENDBRANCH  30  31
ENDBRANCH  27  30
ENDBRANCH  23  24
ENDBRANCH   6  23
TORSDOF 13
ENDMDL
