MODEL 1
REMARK VINA RESULT:      -9.1      0.000      0.000
REMARK  Name = 
REMARK  13 active torsions:
REMARK  status: ('A' for Active; 'I' for Inactive)
REMARK    1  A    between atoms: C_1  and  O_2
REMARK    2  A    between atoms: O_2  and  C_3
REMARK    3  A    between atoms: C_3  and  C_5
REMARK    4  A    between atoms: C_5  and  C_6
REMARK    5  A    between atoms: C_6  and  O_8
REMARK    6  A    between atoms: O_8  and  C_9
REMARK    7  A    between atoms: C_12  and  O_13
REMARK    8  A    between atoms: O_13  and  C_14
REMARK    9  A    between atoms: C_14  and  C_15
REMARK   10  A    between atoms: C_19  and  C_20
REMARK   11  A    between atoms: C_19  and  C_21
REMARK   12  A    between atoms: C_25  and  C_26
REMARK   13  A    between atoms: C_30  and  C_31
REMARK                            x       y       z     vdW  Elec       q    Type
REMARK                         _______ _______ _______ _____ _____    ______ ____
ROOT
ATOM      1  C   UNL     1       6.122   6.602  16.021  0.00  0.00    +0.000 C 
ATOM      2  C   UNL     1       4.843   7.151  16.952  0.00  0.00    +0.000 C 
ATOM      3  C   UNL     1       4.054   6.191  17.872  0.00  0.00    +0.000 C 
ATOM      4  C   UNL     1       3.144   6.746  19.003  0.00  0.00    +0.000 C 
ATOM      5  C   UNL     1       2.131   5.633  19.414  0.00  0.00    +0.000 C 
ATOM      6  C   UNL     1       2.719   4.215  19.586  0.00  0.00    +0.000 C 
ATOM      7  C   UNL     1       1.708   2.921  19.746  0.00  0.00    +0.000 C 
ATOM      8  C   UNL     1       0.253   3.288  19.442  0.00  0.00    +0.000 C 
ATOM      9  C   UNL     1       1.810   1.518  18.984  0.00  0.00    +0.000 C 
ATOM     10  C   UNL     1       2.152   2.484  21.135  0.00  0.00    +0.000 C 
ATOM     11  C   UNL     1       3.698   2.159  21.009  0.00  0.00    +0.000 C 
ATOM     12  C   UNL     1       4.511   2.608  19.653  0.00  0.00    +0.000 C 
ATOM     13  C   UNL     1       3.928   3.803  18.751  0.00  0.00    +0.000 C 
ATOM     14  C   UNL     1       3.310   3.353  17.372  0.00  0.00    +0.000 C 
ATOM     15  C   UNL     1       4.918   5.027  18.442  0.00  0.00    +0.000 C 
ATOM     16  C   UNL     1       5.919   5.449  19.520  0.00  0.00    +0.000 C 
ATOM     17  C   UNL     1       7.202   5.826  18.768  0.00  0.00    +0.000 C 
ATOM     18  C   UNL     1       6.980   6.022  17.228  0.00  0.00    +0.000 C 
ATOM     19  C   UNL     1       7.575   7.506  17.312  0.00  0.00    +0.000 C 
ATOM     20  C   UNL     1       5.946   4.750  17.366  0.00  0.00    +0.000 C 
ENDROOT
BRANCH   1  21
ATOM     21  O   UNL     1       6.909   5.444  15.345  0.00  0.00    +0.000 OA
BRANCH  21  22
ATOM     22  C   UNL     1       7.113   4.956  14.115  0.00  0.00    +0.000 C 
ATOM     23  O   UNL     1       7.848   5.447  13.274  0.00  0.00    +0.000 OA
BRANCH  22  24
ATOM     24  C   UNL     1       6.189   3.747  13.917  0.00  0.00    +0.000 C 
BRANCH  24  25
ATOM     25  C   UNL     1       5.916   3.358  12.478  0.00  0.00    +0.000 C 
ATOM     26  O   UNL     1       6.696   2.772  11.763  0.00  0.00    +0.000 OA
BRANCH  25  28
ATOM     27  C   UNL     1       4.050   2.958  11.070  0.00  0.00    +0.000 C 
ATOM     28  O   UNL     1       4.653   3.746  12.113  0.00  0.00    +0.000 OA
ENDBRANCH  25  28
ENDBRANCH  24  25
ENDBRANCH  22  24
ENDBRANCH  21  22
ENDBRANCH   1  21
BRANCH   4  29
ATOM     29  O   UNL     1       2.325   7.863  18.585  0.00  0.00    +0.000 OA
BRANCH  29  30
ATOM     30  C   UNL     1       1.683   8.576  19.555  0.00  0.00    +0.000 C 
ATOM     31  C   UNL     1       0.972   9.754  18.949  0.00  0.00    +0.000 C 
ATOM     32  O   UNL     1       1.633   8.282  20.741  0.00  0.00    +0.000 OA
ENDBRANCH  29  30
ENDBRANCH   4  29
TORSDOF 7
ENDMDL
MODEL 2
REMARK VINA RESULT:      -8.5      0.720      1.047
REMARK  Name = 
REMARK  13 active torsions:
REMARK  status: ('A' for Active; 'I' for Inactive)
REMARK    1  A    between atoms: C_1  and  O_2
REMARK    2  A    between atoms: O_2  and  C_3
REMARK    3  A    between atoms: C_3  and  C_5
REMARK    4  A    between atoms: C_5  and  C_6
REMARK    5  A    between atoms: C_6  and  O_8
REMARK    6  A    between atoms: O_8  and  C_9
REMARK    7  A    between atoms: C_12  and  O_13
REMARK    8  A    between atoms: O_13  and  C_14
REMARK    9  A    between atoms: C_14  and  C_15
REMARK   10  A    between atoms: C_19  and  C_20
REMARK   11  A    between atoms: C_19  and  C_21
REMARK   12  A    between atoms: C_25  and  C_26
REMARK   13  A    between atoms: C_30  and  C_31
REMARK                            x       y       z     vdW  Elec       q    Type
REMARK                         _______ _______ _______ _____ _____    ______ ____
ROOT
ATOM      1  C   UNL     1       5.934   6.620  15.805  0.00  0.00    +0.000 C 
ATOM      2  C   UNL     1       4.593   7.117  16.675  0.00  0.00    +0.000 C 
ATOM      3  C   UNL     1       3.847   6.144  17.617  0.00  0.00    +0.000 C 
ATOM      4  C   UNL     1       2.867   6.683  18.697  0.00  0.00    +0.000 C 
ATOM      5  C   UNL     1       1.923   5.519  19.133  0.00  0.00    +0.000 C 
ATOM      6  C   UNL     1       2.605   4.156  19.387  0.00  0.00    +0.000 C 
ATOM      7  C   UNL     1       1.684   2.802  19.580  0.00  0.00    +0.000 C 
ATOM      8  C   UNL     1       0.216   3.048  19.222  0.00  0.00    +0.000 C 
ATOM      9  C   UNL     1       1.908   1.376  18.888  0.00  0.00    +0.000 C 
ATOM     10  C   UNL     1       2.117   2.460  21.000  0.00  0.00    +0.000 C 
ATOM     11  C   UNL     1       3.685   2.243  20.930  0.00  0.00    +0.000 C 
ATOM     12  C   UNL     1       4.504   2.688  19.576  0.00  0.00    +0.000 C 
ATOM     13  C   UNL     1       3.864   3.795  18.604  0.00  0.00    +0.000 C 
ATOM     14  C   UNL     1       3.321   3.241  17.232  0.00  0.00    +0.000 C 
ATOM     15  C   UNL     1       4.774   5.072  18.264  0.00  0.00    +0.000 C 
ATOM     16  C   UNL     1       5.711   5.614  19.347  0.00  0.00    +0.000 C 
ATOM     17  C   UNL     1       6.985   6.048  18.612  0.00  0.00    +0.000 C 
ATOM     18  C   UNL     1       6.795   6.158  17.059  0.00  0.00    +0.000 C 
ATOM     19  C   UNL     1       7.281   7.684  17.090  0.00  0.00    +0.000 C 
ATOM     20  C   UNL     1       5.850   4.822  17.230  0.00  0.00    +0.000 C 
ENDROOT
BRANCH   1  21
ATOM     21  O   UNL     1       6.821   5.493  15.205  0.00  0.00    +0.000 OA
BRANCH  21  22
ATOM     22  C   UNL     1       7.083   4.955  14.007  0.00  0.00    +0.000 C 
ATOM     23  O   UNL     1       7.852   5.417  13.179  0.00  0.00    +0.000 OA
BRANCH  22  24
ATOM     24  C   UNL     1       6.177   3.732  13.819  0.00  0.00    +0.000 C 
BRANCH  24  25
ATOM     25  C   UNL     1       5.917   3.321  12.383  0.00  0.00    +0.000 C 
ATOM     26  O   UNL     1       4.844   3.392  11.830  0.00  0.00    +0.000 OA
BRANCH  25  28
ATOM     27  C   UNL     1       6.969   1.623  11.105  0.00  0.00    +0.000 C 
ATOM     28  O   UNL     1       7.076   2.880  11.798  0.00  0.00    +0.000 OA
ENDBRANCH  25  28
ENDBRANCH  24  25
ENDBRANCH  22  24
ENDBRANCH  21  22
ENDBRANCH   1  21
BRANCH   4  29
ATOM     29  O   UNL     1       1.983   7.717  18.206  0.00  0.00    +0.000 OA
BRANCH  29  30
ATOM     30  C   UNL     1       1.859   8.852  18.953  0.00  0.00    +0.000 C 
ATOM     31  C   UNL     1       1.570   8.502  20.387  0.00  0.00    +0.000 C 
ATOM     32  O   UNL     1       2.012   9.995  18.545  0.00  0.00    +0.000 OA
ENDBRANCH  29  30
ENDBRANCH   4  29
TORSDOF 7
ENDMDL
MODEL 3
REMARK VINA RESULT:      -7.4      1.331      1.611
REMARK  Name = 
REMARK  13 active torsions:
REMARK  status: ('A' for Active; 'I' for Inactive)
REMARK    1  A    between atoms: C_1  and  O_2
REMARK    2  A    between atoms: O_2  and  C_3
REMARK    3  A    between atoms: C_3  and  C_5
REMARK    4  A    between atoms: C_5  and  C_6
REMARK    5  A    between atoms: C_6  and  O_8
REMARK    6  A    between atoms: O_8  and  C_9
REMARK    7  A    between atoms: C_12  and  O_13
REMARK    8  A    between atoms: O_13  and  C_14
REMARK    9  A    between atoms: C_14  and  C_15
REMARK   10  A    between atoms: C_19  and  C_20
REMARK   11  A    between atoms: C_19  and  C_21
REMARK   12  A    between atoms: C_25  and  C_26
REMARK   13  A    between atoms: C_30  and  C_31
REMARK                            x       y       z     vdW  Elec       q    Type
REMARK                         _______ _______ _______ _____ _____    ______ ____
ROOT
ATOM      1  C   UNL     1       5.611   5.544  14.874  0.00  0.00    +0.000 C 
ATOM      2  C   UNL     1       4.923   6.478  16.082  0.00  0.00    +0.000 C 
ATOM      3  C   UNL     1       4.252   5.825  17.312  0.00  0.00    +0.000 C 
ATOM      4  C   UNL     1       3.966   6.658  18.593  0.00  0.00    +0.000 C 
ATOM      5  C   UNL     1       2.880   5.915  19.433  0.00  0.00    +0.000 C 
ATOM      6  C   UNL     1       3.072   4.390  19.587  0.00  0.00    +0.000 C 
ATOM      7  C   UNL     1       1.855   3.469  20.211  0.00  0.00    +0.000 C 
ATOM      8  C   UNL     1       0.546   4.252  20.333  0.00  0.00    +0.000 C 
ATOM      9  C   UNL     1       1.302   2.083  19.635  0.00  0.00    +0.000 C 
ATOM     10  C   UNL     1       2.597   2.951  21.436  0.00  0.00    +0.000 C 
ATOM     11  C   UNL     1       3.858   2.169  20.876  0.00  0.00    +0.000 C 
ATOM     12  C   UNL     1       4.261   2.317  19.290  0.00  0.00    +0.000 C 
ATOM     13  C   UNL     1       3.767   3.610  18.474  0.00  0.00    +0.000 C 
ATOM     14  C   UNL     1       2.626   3.336  17.423  0.00  0.00    +0.000 C 
ATOM     15  C   UNL     1       4.897   4.468  17.724  0.00  0.00    +0.000 C 
ATOM     16  C   UNL     1       6.276   4.593  18.376  0.00  0.00    +0.000 C 
ATOM     17  C   UNL     1       7.285   4.544  17.221  0.00  0.00    +0.000 C 
ATOM     18  C   UNL     1       6.625   4.761  15.815  0.00  0.00    +0.000 C 
ATOM     19  C   UNL     1       7.603   5.996  15.527  0.00  0.00    +0.000 C 
ATOM     20  C   UNL     1       5.386   3.866  16.424  0.00  0.00    +0.000 C 
ENDROOT
BRANCH   1  21
ATOM     21  O   UNL     1       5.771   4.186  14.135  0.00  0.00    +0.000 OA
BRANCH  21  22
ATOM     22  C   UNL     1       5.970   3.742  12.887  0.00  0.00    +0.000 C 
ATOM     23  O   UNL     1       7.052   3.448  12.407  0.00  0.00    +0.000 OA
BRANCH  22  24
ATOM     24  C   UNL     1       4.626   3.770  12.146  0.00  0.00    +0.000 C 
BRANCH  24  25
ATOM     25  C   UNL     1       4.392   2.637  11.168  0.00  0.00    +0.000 C 
ATOM     26  O   UNL     1       5.109   1.671  11.049  0.00  0.00    +0.000 OA
BRANCH  25  28
ATOM     27  C   UNL     1       3.130   4.163   9.863  0.00  0.00    +0.000 C 
ATOM     28  O   UNL     1       3.242   2.856  10.455  0.00  0.00    +0.000 OA
ENDBRANCH  25  28
ENDBRANCH  24  25
ENDBRANCH  22  24
ENDBRANCH  21  22
ENDBRANCH   1  21
BRANCH   4  29
ATOM     29  O   UNL     1       3.399   7.960  18.317  0.00  0.00    +0.000 OA
BRANCH  29  30
ATOM     30  C   UNL     1       2.042   8.051  18.211  0.00  0.00    +0.000 C 
ATOM     31  C   UNL     1       1.507   9.029  19.221  0.00  0.00    +0.000 C 
ATOM     32  O   UNL     1       1.351   7.473  17.385  0.00  0.00    +0.000 OA
ENDBRANCH  29  30
ENDBRANCH   4  29
TORSDOF 7
ENDMDL
MODEL 4
REMARK VINA RESULT:      -7.3      0.793      1.045
REMARK  Name = 
REMARK  13 active torsions:
REMARK  status: ('A' for Active; 'I' for Inactive)
REMARK    1  A    between atoms: C_1  and  O_2
REMARK    2  A    between atoms: O_2  and  C_3
REMARK    3  A    between atoms: C_3  and  C_5
REMARK    4  A    between atoms: C_5  and  C_6
REMARK    5  A    between atoms: C_6  and  O_8
REMARK    6  A    between atoms: O_8  and  C_9
REMARK    7  A    between atoms: C_12  and  O_13
REMARK    8  A    between atoms: O_13  and  C_14
REMARK    9  A    between atoms: C_14  and  C_15
REMARK   10  A    between atoms: C_19  and  C_20
REMARK   11  A    between atoms: C_19  and  C_21
REMARK   12  A    between atoms: C_25  and  C_26
REMARK   13  A    between atoms: C_30  and  C_31
REMARK                            x       y       z     vdW  Elec       q    Type
REMARK                         _______ _______ _______ _____ _____    ______ ____
ROOT
ATOM      1  C   UNL     1       5.679   6.725  16.054  0.00  0.00    +0.000 C 
ATOM      2  C   UNL     1       4.495   7.242  17.120  0.00  0.00    +0.000 C 
ATOM      3  C   UNL     1       3.786   6.249  18.070  0.00  0.00    +0.000 C 
ATOM      4  C   UNL     1       2.989   6.762  19.302  0.00  0.00    +0.000 C 
ATOM      5  C   UNL     1       2.009   5.639  19.759  0.00  0.00    +0.000 C 
ATOM      6  C   UNL     1       2.598   4.212  19.820  0.00  0.00    +0.000 C 
ATOM      7  C   UNL     1       1.596   2.918  20.021  0.00  0.00    +0.000 C 
ATOM      8  C   UNL     1       0.122   3.303  19.868  0.00  0.00    +0.000 C 
ATOM      9  C   UNL     1       1.616   1.545  19.198  0.00  0.00    +0.000 C 
ATOM     10  C   UNL     1       2.163   2.422  21.345  0.00  0.00    +0.000 C 
ATOM     11  C   UNL     1       3.688   2.096  21.064  0.00  0.00    +0.000 C 
ATOM     12  C   UNL     1       4.376   2.596  19.658  0.00  0.00    +0.000 C 
ATOM     13  C   UNL     1       3.722   3.828  18.861  0.00  0.00    +0.000 C 
ATOM     14  C   UNL     1       2.977   3.438  17.529  0.00  0.00    +0.000 C 
ATOM     15  C   UNL     1       4.690   5.059  18.511  0.00  0.00    +0.000 C 
ATOM     16  C   UNL     1       5.790   5.433  19.508  0.00  0.00    +0.000 C 
ATOM     17  C   UNL     1       7.000   5.834  18.656  0.00  0.00    +0.000 C 
ATOM     18  C   UNL     1       6.639   6.093  17.152  0.00  0.00    +0.000 C 
ATOM     19  C   UNL     1       7.252   7.570  17.240  0.00  0.00    +0.000 C 
ATOM     20  C   UNL     1       5.612   4.821  17.335  0.00  0.00    +0.000 C 
ENDROOT
BRANCH   1  21
ATOM     21  O   UNL     1       6.390   5.592  15.263  0.00  0.00    +0.000 OA
BRANCH  21  22
ATOM     22  C   UNL     1       6.107   4.724  14.283  0.00  0.00    +0.000 C 
ATOM     23  O   UNL     1       5.028   4.182  14.110  0.00  0.00    +0.000 OA
BRANCH  22  24
ATOM     24  C   UNL     1       7.393   4.455  13.491  0.00  0.00    +0.000 C 
BRANCH  24  25
ATOM     25  C   UNL     1       7.206   4.145  12.019  0.00  0.00    +0.000 C 
ATOM     26  O   UNL     1       7.203   4.971  11.137  0.00  0.00    +0.000 OA
BRANCH  25  28
ATOM     27  C   UNL     1       5.724   2.358  11.533  0.00  0.00    +0.000 C 
ATOM     28  O   UNL     1       7.063   2.794  11.833  0.00  0.00    +0.000 OA
ENDBRANCH  25  28
ENDBRANCH  24  25
ENDBRANCH  22  24
ENDBRANCH  21  22
ENDBRANCH   1  21
BRANCH   4  29
ATOM     29  O   UNL     1       2.144   7.899  19.006  0.00  0.00    +0.000 OA
BRANCH  29  30
ATOM     30  C   UNL     1       1.611   8.583  20.058  0.00  0.00    +0.000 C 
ATOM     31  C   UNL     1       0.897   9.813  19.570  0.00  0.00    +0.000 C 
ATOM     32  O   UNL     1       1.649   8.233  21.229  0.00  0.00    +0.000 OA
ENDBRANCH  29  30
ENDBRANCH   4  29
TORSDOF 7
ENDMDL
MODEL 5
REMARK VINA RESULT:      -7.2      1.525      1.995
REMARK  Name = 
REMARK  13 active torsions:
REMARK  status: ('A' for Active; 'I' for Inactive)
REMARK    1  A    between atoms: C_1  and  O_2
REMARK    2  A    between atoms: O_2  and  C_3
REMARK    3  A    between atoms: C_3  and  C_5
REMARK    4  A    between atoms: C_5  and  C_6
REMARK    5  A    between atoms: C_6  and  O_8
REMARK    6  A    between atoms: O_8  and  C_9
REMARK    7  A    between atoms: C_12  and  O_13
REMARK    8  A    between atoms: O_13  and  C_14
REMARK    9  A    between atoms: C_14  and  C_15
REMARK   10  A    between atoms: C_19  and  C_20
REMARK   11  A    between atoms: C_19  and  C_21
REMARK   12  A    between atoms: C_25  and  C_26
REMARK   13  A    between atoms: C_30  and  C_31
REMARK                            x       y       z     vdW  Elec       q    Type
REMARK                         _______ _______ _______ _____ _____    ______ ____
ROOT
ATOM      1  C   UNL     1       5.501   5.439  14.559  0.00  0.00    +0.000 C 
ATOM      2  C   UNL     1       4.938   6.416  15.796  0.00  0.00    +0.000 C 
ATOM      3  C   UNL     1       4.304   5.809  17.069  0.00  0.00    +0.000 C 
ATOM      4  C   UNL     1       4.139   6.663  18.357  0.00  0.00    +0.000 C 
ATOM      5  C   UNL     1       3.064   5.988  19.264  0.00  0.00    +0.000 C 
ATOM      6  C   UNL     1       3.179   4.455  19.419  0.00  0.00    +0.000 C 
ATOM      7  C   UNL     1       1.950   3.607  20.120  0.00  0.00    +0.000 C 
ATOM      8  C   UNL     1       0.696   4.464  20.311  0.00  0.00    +0.000 C 
ATOM      9  C   UNL     1       1.286   2.252  19.588  0.00  0.00    +0.000 C 
ATOM     10  C   UNL     1       2.731   3.054  21.305  0.00  0.00    +0.000 C 
ATOM     11  C   UNL     1       3.911   2.200  20.680  0.00  0.00    +0.000 C 
ATOM     12  C   UNL     1       4.230   2.316  19.072  0.00  0.00    +0.000 C 
ATOM     13  C   UNL     1       3.763   3.631  18.275  0.00  0.00    +0.000 C 
ATOM     14  C   UNL     1       2.549   3.417  17.293  0.00  0.00    +0.000 C 
ATOM     15  C   UNL     1       4.894   4.419  17.454  0.00  0.00    +0.000 C 
ATOM     16  C   UNL     1       6.313   4.469  18.024  0.00  0.00    +0.000 C 
ATOM     17  C   UNL     1       7.249   4.357  16.814  0.00  0.00    +0.000 C 
ATOM     18  C   UNL     1       6.522   4.604  15.447  0.00  0.00    +0.000 C 
ATOM     19  C   UNL     1       7.550   5.780  15.092  0.00  0.00    +0.000 C 
ATOM     20  C   UNL     1       5.272   3.784  16.134  0.00  0.00    +0.000 C 
ENDROOT
BRANCH   1  21
ATOM     21  O   UNL     1       5.542   4.070  13.823  0.00  0.00    +0.000 OA
BRANCH  21  22
ATOM     22  C   UNL     1       5.359   3.592  12.585  0.00  0.00    +0.000 C 
ATOM     23  O   UNL     1       4.282   3.292  12.097  0.00  0.00    +0.000 OA
BRANCH  22  24
ATOM     24  C   UNL     1       6.736   3.389  11.939  0.00  0.00    +0.000 C 
BRANCH  24  25
ATOM     25  C   UNL     1       6.965   2.038  11.291  0.00  0.00    +0.000 C 
ATOM     26  O   UNL     1       8.000   1.691  10.773  0.00  0.00    +0.000 OA
BRANCH  25  28
ATOM     27  C   UNL     1       6.058  -0.152  11.262  0.00  0.00    +0.000 C 
ATOM     28  O   UNL     1       5.839   1.264  11.398  0.00  0.00    +0.000 OA
ENDBRANCH  25  28
ENDBRANCH  24  25
ENDBRANCH  22  24
ENDBRANCH  21  22
ENDBRANCH   1  21
BRANCH   4  29
ATOM     29  O   UNL     1       3.632   7.994  18.103  0.00  0.00    +0.000 OA
BRANCH  29  30
ATOM     30  C   UNL     1       2.289   8.134  17.908  0.00  0.00    +0.000 C 
ATOM     31  C   UNL     1       1.849   9.518  18.296  0.00  0.00    +0.000 C 
ATOM     32  O   UNL     1       1.545   7.287  17.434  0.00  0.00    +0.000 OA
ENDBRANCH  29  30
ENDBRANCH   4  29
TORSDOF 7
ENDMDL
MODEL 6
REMARK VINA RESULT:      -6.9      0.870      1.116
REMARK  Name = 
REMARK  13 active torsions:
REMARK  status: ('A' for Active; 'I' for Inactive)
REMARK    1  A    between atoms: C_1  and  O_2
REMARK    2  A    between atoms: O_2  and  C_3
REMARK    3  A    between atoms: C_3  and  C_5
REMARK    4  A    between atoms: C_5  and  C_6
REMARK    5  A    between atoms: C_6  and  O_8
REMARK    6  A    between atoms: O_8  and  C_9
REMARK    7  A    between atoms: C_12  and  O_13
REMARK    8  A    between atoms: O_13  and  C_14
REMARK    9  A    between atoms: C_14  and  C_15
REMARK   10  A    between atoms: C_19  and  C_20
REMARK   11  A    between atoms: C_19  and  C_21
REMARK   12  A    between atoms: C_25  and  C_26
REMARK   13  A    between atoms: C_30  and  C_31
REMARK                            x       y       z     vdW  Elec       q    Type
REMARK                         _______ _______ _______ _____ _____    ______ ____
ROOT
ATOM      1  C   UNL     1       6.110   6.525  16.238  0.00  0.00    +0.000 C 
ATOM      2  C   UNL     1       4.952   7.128  17.287  0.00  0.00    +0.000 C 
ATOM      3  C   UNL     1       4.157   6.190  18.224  0.00  0.00    +0.000 C 
ATOM      4  C   UNL     1       3.382   6.761  19.445  0.00  0.00    +0.000 C 
ATOM      5  C   UNL     1       2.314   5.713  19.886  0.00  0.00    +0.000 C 
ATOM      6  C   UNL     1       2.794   4.246  19.954  0.00  0.00    +0.000 C 
ATOM      7  C   UNL     1       1.695   3.030  20.137  0.00  0.00    +0.000 C 
ATOM      8  C   UNL     1       0.257   3.524  19.963  0.00  0.00    +0.000 C 
ATOM      9  C   UNL     1       1.625   1.661  19.312  0.00  0.00    +0.000 C 
ATOM     10  C   UNL     1       2.203   2.493  21.469  0.00  0.00    +0.000 C 
ATOM     11  C   UNL     1       3.704   2.054  21.211  0.00  0.00    +0.000 C 
ATOM     12  C   UNL     1       4.449   2.502  19.815  0.00  0.00    +0.000 C 
ATOM     13  C   UNL     1       3.901   3.780  19.011  0.00  0.00    +0.000 C 
ATOM     14  C   UNL     1       3.148   3.447  17.667  0.00  0.00    +0.000 C 
ATOM     15  C   UNL     1       4.963   4.936  18.678  0.00  0.00    +0.000 C 
ATOM     16  C   UNL     1       6.072   5.226  19.691  0.00  0.00    +0.000 C 
ATOM     17  C   UNL     1       7.322   5.536  18.858  0.00  0.00    +0.000 C 
ATOM     18  C   UNL     1       7.004   5.822  17.350  0.00  0.00    +0.000 C 
ATOM     19  C   UNL     1       7.724   7.249  17.449  0.00  0.00    +0.000 C 
ATOM     20  C   UNL     1       5.882   4.630  17.515  0.00  0.00    +0.000 C 
ENDROOT
BRANCH   1  21
ATOM     21  O   UNL     1       6.747   5.341  15.456  0.00  0.00    +0.000 OA
BRANCH  21  22
ATOM     22  C   UNL     1       7.141   5.063  14.207  0.00  0.00    +0.000 C 
ATOM     23  O   UNL     1       7.986   5.680  13.580  0.00  0.00    +0.000 OA
BRANCH  22  24
ATOM     24  C   UNL     1       6.275   3.914  13.673  0.00  0.00    +0.000 C 
BRANCH  24  25
ATOM     25  C   UNL     1       6.418   3.616  12.194  0.00  0.00    +0.000 C 
ATOM     26  O   UNL     1       7.325   4.009  11.497  0.00  0.00    +0.000 OA
BRANCH  25  28
ATOM     27  C   UNL     1       5.769   1.506  11.328  0.00  0.00    +0.000 C 
ATOM     28  O   UNL     1       5.386   2.822  11.768  0.00  0.00    +0.000 OA
ENDBRANCH  25  28
ENDBRANCH  24  25
ENDBRANCH  22  24
ENDBRANCH  21  22
ENDBRANCH   1  21
BRANCH   4  29
ATOM     29  O   UNL     1       2.628   7.957  19.138  0.00  0.00    +0.000 OA
BRANCH  29  30
ATOM     30  C   UNL     1       2.118   8.079  17.879  0.00  0.00    +0.000 C 
ATOM     31  C   UNL     1       1.300   6.867  17.529  0.00  0.00    +0.000 C 
ATOM     32  O   UNL     1       2.250   9.051  17.148  0.00  0.00    +0.000 OA
ENDBRANCH  29  30
ENDBRANCH   4  29
TORSDOF 7
ENDMDL
MODEL 7
REMARK VINA RESULT:      -6.9      8.215     11.779
REMARK  Name = 
REMARK  13 active torsions:
REMARK  status: ('A' for Active; 'I' for Inactive)
REMARK    1  A    between atoms: C_1  and  O_2
REMARK    2  A    between atoms: O_2  and  C_3
REMARK    3  A    between atoms: C_3  and  C_5
REMARK    4  A    between atoms: C_5  and  C_6
REMARK    5  A    between atoms: C_6  and  O_8
REMARK    6  A    between atoms: O_8  and  C_9
REMARK    7  A    between atoms: C_12  and  O_13
REMARK    8  A    between atoms: O_13  and  C_14
REMARK    9  A    between atoms: C_14  and  C_15
REMARK   10  A    between atoms: C_19  and  C_20
REMARK   11  A    between atoms: C_19  and  C_21
REMARK   12  A    between atoms: C_25  and  C_26
REMARK   13  A    between atoms: C_30  and  C_31
REMARK                            x       y       z     vdW  Elec       q    Type
REMARK                         _______ _______ _______ _____ _____    ______ ____
ROOT
ATOM      1  C   UNL     1       1.418  13.643  19.905  0.00  0.00    +0.000 C 
ATOM      2  C   UNL     1       0.924  12.475  20.999  0.00  0.00    +0.000 C 
ATOM      3  C   UNL     1      -0.507  12.481  21.583  0.00  0.00    +0.000 C 
ATOM      4  C   UNL     1      -1.085  11.216  22.276  0.00  0.00    +0.000 C 
ATOM      5  C   UNL     1      -2.286  11.649  23.173  0.00  0.00    +0.000 C 
ATOM      6  C   UNL     1      -3.281  12.644  22.535  0.00  0.00    +0.000 C 
ATOM      7  C   UNL     1      -4.423  13.378  23.471  0.00  0.00    +0.000 C 
ATOM      8  C   UNL     1      -4.176  13.148  24.965  0.00  0.00    +0.000 C 
ATOM      9  C   UNL     1      -4.807  14.931  23.485  0.00  0.00    +0.000 C 
ATOM     10  C   UNL     1      -5.654  12.823  22.767  0.00  0.00    +0.000 C 
ATOM     11  C   UNL     1      -5.549  13.318  21.265  0.00  0.00    +0.000 C 
ATOM     12  C   UNL     1      -4.145  13.983  20.729  0.00  0.00    +0.000 C 
ATOM     13  C   UNL     1      -2.774  13.640  21.494  0.00  0.00    +0.000 C 
ATOM     14  C   UNL     1      -2.177  14.822  22.349  0.00  0.00    +0.000 C 
ATOM     15  C   UNL     1      -1.575  13.055  20.604  0.00  0.00    +0.000 C 
ATOM     16  C   UNL     1      -1.916  12.136  19.428  0.00  0.00    +0.000 C 
ATOM     17  C   UNL     1      -0.925  12.504  18.316  0.00  0.00    +0.000 C 
ATOM     18  C   UNL     1       0.285  13.361  18.825  0.00  0.00    +0.000 C 
ATOM     19  C   UNL     1       1.317  12.278  18.255  0.00  0.00    +0.000 C 
ATOM     20  C   UNL     1      -0.831  14.091  19.790  0.00  0.00    +0.000 C 
ENDROOT
BRANCH   1  21
ATOM     21  O   UNL     1       1.241  15.035  19.235  0.00  0.00    +0.000 OA
BRANCH  21  22
ATOM     22  C   UNL     1       2.008  15.993  18.699  0.00  0.00    +0.000 C 
ATOM     23  O   UNL     1       3.130  15.830  18.250  0.00  0.00    +0.000 OA
BRANCH  22  24
ATOM     24  C   UNL     1       1.276  17.334  18.845  0.00  0.00    +0.000 C 
BRANCH  24  25
ATOM     25  C   UNL     1       0.781  17.956  17.555  0.00  0.00    +0.000 C 
ATOM     26  O   UNL     1       1.457  18.628  16.811  0.00  0.00    +0.000 OA
BRANCH  25  28
ATOM     27  C   UNL     1      -1.386  17.755  18.497  0.00  0.00    +0.000 C 
ATOM     28  O   UNL     1      -0.533  17.629  17.344  0.00  0.00    +0.000 OA
ENDBRANCH  25  28
ENDBRANCH  24  25
ENDBRANCH  22  24
ENDBRANCH  21  22
ENDBRANCH   1  21
BRANCH   4  29
ATOM     29  O   UNL     1      -0.153  10.581  23.182  0.00  0.00    +0.000 OA
BRANCH  29  30
ATOM     30  C   UNL     1       0.578   9.532  22.706  0.00  0.00    +0.000 C 
ATOM     31  C   UNL     1      -0.277   8.656  21.833  0.00  0.00    +0.000 C 
ATOM     32  O   UNL     1       1.771   9.346  22.903  0.00  0.00    +0.000 OA
ENDBRANCH  29  30
ENDBRANCH   4  29
TORSDOF 7
ENDMDL
MODEL 8
REMARK VINA RESULT:      -6.6      1.246      1.513
REMARK  Name = 
REMARK  13 active torsions:
REMARK  status: ('A' for Active; 'I' for Inactive)
REMARK    1  A    between atoms: C_1  and  O_2
REMARK    2  A    between atoms: O_2  and  C_3
REMARK    3  A    between atoms: C_3  and  C_5
REMARK    4  A    between atoms: C_5  and  C_6
REMARK    5  A    between atoms: C_6  and  O_8
REMARK    6  A    between atoms: O_8  and  C_9
REMARK    7  A    between atoms: C_12  and  O_13
REMARK    8  A    between atoms: O_13  and  C_14
REMARK    9  A    between atoms: C_14  and  C_15
REMARK   10  A    between atoms: C_19  and  C_20
REMARK   11  A    between atoms: C_19  and  C_21
REMARK   12  A    between atoms: C_25  and  C_26
REMARK   13  A    between atoms: C_30  and  C_31
REMARK                            x       y       z     vdW  Elec       q    Type
REMARK                         _______ _______ _______ _____ _____    ______ ____
ROOT
ATOM      1  C   UNL     1       5.695   5.643  14.979  0.00  0.00    +0.000 C 
ATOM      2  C   UNL     1       4.938   6.557  16.159  0.00  0.00    +0.000 C 
ATOM      3  C   UNL     1       4.222   5.886  17.354  0.00  0.00    +0.000 C 
ATOM      4  C   UNL     1       3.864   6.704  18.626  0.00  0.00    +0.000 C 
ATOM      5  C   UNL     1       2.753   5.939  19.410  0.00  0.00    +0.000 C 
ATOM      6  C   UNL     1       2.962   4.416  19.563  0.00  0.00    +0.000 C 
ATOM      7  C   UNL     1       1.733   3.472  20.125  0.00  0.00    +0.000 C 
ATOM      8  C   UNL     1       0.407   4.234  20.192  0.00  0.00    +0.000 C 
ATOM      9  C   UNL     1       1.229   2.081  19.515  0.00  0.00    +0.000 C 
ATOM     10  C   UNL     1       2.426   2.957  21.379  0.00  0.00    +0.000 C 
ATOM     11  C   UNL     1       3.723   2.199  20.873  0.00  0.00    +0.000 C 
ATOM     12  C   UNL     1       4.197   2.364  19.308  0.00  0.00    +0.000 C 
ATOM     13  C   UNL     1       3.720   3.655  18.478  0.00  0.00    +0.000 C 
ATOM     14  C   UNL     1       2.632   3.371  17.374  0.00  0.00    +0.000 C 
ATOM     15  C   UNL     1       4.869   4.536  17.786  0.00  0.00    +0.000 C 
ATOM     16  C   UNL     1       6.215   4.677  18.501  0.00  0.00    +0.000 C 
ATOM     17  C   UNL     1       7.275   4.652  17.393  0.00  0.00    +0.000 C 
ATOM     18  C   UNL     1       6.677   4.869  15.960  0.00  0.00    +0.000 C 
ATOM     19  C   UNL     1       7.647   6.121  15.724  0.00  0.00    +0.000 C 
ATOM     20  C   UNL     1       5.426   3.951  16.506  0.00  0.00    +0.000 C 
ENDROOT
BRANCH   1  21
ATOM     21  O   UNL     1       5.911   4.292  14.239  0.00  0.00    +0.000 OA
BRANCH  21  22
ATOM     22  C   UNL     1       6.169   3.860  12.998  0.00  0.00    +0.000 C 
ATOM     23  O   UNL     1       7.279   3.767  12.501  0.00  0.00    +0.000 OA
BRANCH  22  24
ATOM     24  C   UNL     1       4.833   3.609  12.287  0.00  0.00    +0.000 C 
BRANCH  24  25
ATOM     25  C   UNL     1       4.836   2.497  11.257  0.00  0.00    +0.000 C 
ATOM     26  O   UNL     1       3.908   2.230  10.530  0.00  0.00    +0.000 OA
BRANCH  25  28
ATOM     27  C   UNL     1       5.979   0.422  11.147  0.00  0.00    +0.000 C 
ATOM     28  O   UNL     1       6.048   1.856  11.254  0.00  0.00    +0.000 OA
ENDBRANCH  25  28
ENDBRANCH  24  25
ENDBRANCH  22  24
ENDBRANCH  21  22
ENDBRANCH   1  21
BRANCH   4  29
ATOM     29  O   UNL     1       3.290   8.000  18.332  0.00  0.00    +0.000 OA
BRANCH  29  30
ATOM     30  C   UNL     1       2.055   8.276  18.841  0.00  0.00    +0.000 C 
ATOM     31  C   UNL     1       1.114   8.673  17.737  0.00  0.00    +0.000 C 
ATOM     32  O   UNL     1       1.727   8.167  20.014  0.00  0.00    +0.000 OA
ENDBRANCH  29  30
ENDBRANCH   4  29
TORSDOF 7
ENDMDL
MODEL 9
REMARK VINA RESULT:      -6.6      8.291     11.518
REMARK  Name = 
REMARK  13 active torsions:
REMARK  status: ('A' for Active; 'I' for Inactive)
REMARK    1  A    between atoms: C_1  and  O_2
REMARK    2  A    between atoms: O_2  and  C_3
REMARK    3  A    between atoms: C_3  and  C_5
REMARK    4  A    between atoms: C_5  and  C_6
REMARK    5  A    between atoms: C_6  and  O_8
REMARK    6  A    between atoms: O_8  and  C_9
REMARK    7  A    between atoms: C_12  and  O_13
REMARK    8  A    between atoms: O_13  and  C_14
REMARK    9  A    between atoms: C_14  and  C_15
REMARK   10  A    between atoms: C_19  and  C_20
REMARK   11  A    between atoms: C_19  and  C_21
REMARK   12  A    between atoms: C_25  and  C_26
REMARK   13  A    between atoms: C_30  and  C_31
REMARK                            x       y       z     vdW  Elec       q    Type
REMARK                         _______ _______ _______ _____ _____    ______ ____
ROOT
ATOM      1  C   UNL     1       1.415  13.952  19.884  0.00  0.00    +0.000 C 
ATOM      2  C   UNL     1       0.982  12.731  20.946  0.00  0.00    +0.000 C 
ATOM      3  C   UNL     1      -0.451  12.640  21.518  0.00  0.00    +0.000 C 
ATOM      4  C   UNL     1      -0.959  11.328  22.177  0.00  0.00    +0.000 C 
ATOM      5  C   UNL     1      -2.190  11.668  23.073  0.00  0.00    +0.000 C 
ATOM      6  C   UNL     1      -3.236  12.620  22.450  0.00  0.00    +0.000 C 
ATOM      7  C   UNL     1      -4.425  13.263  23.395  0.00  0.00    +0.000 C 
ATOM      8  C   UNL     1      -4.175  13.012  24.884  0.00  0.00    +0.000 C 
ATOM      9  C   UNL     1      -4.898  14.791  23.442  0.00  0.00    +0.000 C 
ATOM     10  C   UNL     1      -5.617  12.656  22.667  0.00  0.00    +0.000 C 
ATOM     11  C   UNL     1      -5.531  13.192  21.179  0.00  0.00    +0.000 C 
ATOM     12  C   UNL     1      -4.164  13.949  20.670  0.00  0.00    +0.000 C 
ATOM     13  C   UNL     1      -2.781  13.668  21.438  0.00  0.00    +0.000 C 
ATOM     14  C   UNL     1      -2.259  14.861  22.325  0.00  0.00    +0.000 C 
ATOM     15  C   UNL     1      -1.544  13.175  20.544  0.00  0.00    +0.000 C 
ATOM     16  C   UNL     1      -1.822  12.267  19.344  0.00  0.00    +0.000 C 
ATOM     17  C   UNL     1      -0.847  12.717  18.250  0.00  0.00    +0.000 C 
ATOM     18  C   UNL     1       0.307  13.631  18.789  0.00  0.00    +0.000 C 
ATOM     19  C   UNL     1       1.405  12.623  18.201  0.00  0.00    +0.000 C 
ATOM     20  C   UNL     1      -0.855  14.271  19.761  0.00  0.00    +0.000 C 
ENDROOT
BRANCH   1  21
ATOM     21  O   UNL     1       1.162  15.347  19.246  0.00  0.00    +0.000 OA
BRANCH  21  22
ATOM     22  C   UNL     1       1.876  16.383  18.786  0.00  0.00    +0.000 C 
ATOM     23  O   UNL     1       1.541  17.554  18.847  0.00  0.00    +0.000 OA
BRANCH  22  24
ATOM     24  C   UNL     1       3.125  15.833  18.083  0.00  0.00    +0.000 C 
BRANCH  24  25
ATOM     25  C   UNL     1       4.412  15.906  18.880  0.00  0.00    +0.000 C 
ATOM     26  O   UNL     1       4.842  15.017  19.577  0.00  0.00    +0.000 OA
BRANCH  25  28
ATOM     27  C   UNL     1       6.442  17.130  18.940  0.00  0.00    +0.000 C 
ATOM     28  O   UNL     1       5.027  17.114  18.677  0.00  0.00    +0.000 OA
ENDBRANCH  25  28
ENDBRANCH  24  25
ENDBRANCH  22  24
ENDBRANCH  21  22
ENDBRANCH   1  21
BRANCH   4  29
ATOM     29  O   UNL     1       0.002  10.726  23.074  0.00  0.00    +0.000 OA
BRANCH  29  30
ATOM     30  C   UNL     1       0.624   9.583  22.664  0.00  0.00    +0.000 C 
ATOM     31  C   UNL     1      -0.285   8.791  21.765  0.00  0.00    +0.000 C 
ATOM     32  O   UNL     1       1.772   9.260  22.932  0.00  0.00    +0.000 OA
ENDBRANCH  29  30
ENDBRANCH   4  29
TORSDOF 7
ENDMDL
