MODEL 1
REMARK VINA RESULT:      -7.7      0.000      0.000
REMARK  Name = 
REMARK  12 active torsions:
REMARK  status: ('A' for Active; 'I' for Inactive)
REMARK    1  A    between atoms: C_1  and  C_2
REMARK    2  A    between atoms: C_2  and  C_3
REMARK    3  A    between atoms: C_3  and  N_4
REMARK    4  A    between atoms: N_4  and  C_5
REMARK    5  A    between atoms: C_5  and  C_6
REMARK    6  A    between atoms: N_8  and  C_9
REMARK    7  A    between atoms: C_14  and  C_15
REMARK    8  A    between atoms: C_16  and  C_18
REMARK    9  A    between atoms: C_18  and  O_19
REMARK   10  A    between atoms: O_19  and  C_20
REMARK   11  A    between atoms: C_20  and  C_22
REMARK   12  A    between atoms: C_25  and  C_26
REMARK                            x       y       z     vdW  Elec       q    Type
REMARK                         _______ _______ _______ _____ _____    ______ ____
ROOT
ATOM      1  N   UNL     1       3.060   4.534  19.505  0.00  0.00    +0.000 N 
ATOM      2  C   UNL     1       4.301   4.094  19.031  0.00  0.00    +0.000 C 
ATOM      3  O   UNL     1       4.454   2.952  18.588  0.00  0.00    +0.000 OA
ENDROOT
BRANCH   1   4
ATOM      4  C   UNL     1       1.961   3.564  19.468  0.00  0.00    +0.000 C 
BRANCH   4   6
ATOM      5  C   UNL     1       1.850   2.650  21.867  0.00  0.00    +0.000 C 
ATOM      6  C   UNL     1       1.158   3.447  20.774  0.00  0.00    +0.000 C 
ENDBRANCH   4   6
ENDBRANCH   1   4
BRANCH   1   7
ATOM      7  C   UNL     1       2.883   5.753  20.311  0.00  0.00    +0.000 C 
BRANCH   7   8
ATOM      8  C   UNL     1       2.151   6.998  19.767  0.00  0.00    +0.000 C 
ATOM      9  O   UNL     1       2.278   7.273  18.568  0.00  0.00    +0.000 OA
ATOM     10  N   UNL     1       1.576   7.849  20.694  0.00  0.00    +0.000 N 
ATOM     11  H   UNL     1       1.822   7.703  21.666  0.00  0.00    +0.000 HD
BRANCH  10  12
ATOM     12  C   UNL     1       0.968   9.083  20.339  0.00  0.00    +0.000 A 
ATOM     13  C   UNL     1       1.253   9.694  19.109  0.00  0.00    +0.000 A 
ATOM     14  C   UNL     1       0.641  10.893  18.731  0.00  0.00    +0.000 A 
ATOM     15  C   UNL     1      -0.258  11.508  19.588  0.00  0.00    +0.000 A 
ATOM     16  C   UNL     1      -0.544  10.925  20.824  0.00  0.00    +0.000 A 
ATOM     17  C   UNL     1       0.063   9.712  21.217  0.00  0.00    +0.000 A 
ATOM     18  C   UNL     1      -0.248   9.173  22.581  0.00  0.00    +0.000 C 
ENDBRANCH  10  12
ENDBRANCH   7   8
ENDBRANCH   1   7
BRANCH   2  19
ATOM     19  C   UNL     1       5.495   5.049  19.087  0.00  0.00    +0.000 C 
BRANCH  19  20
ATOM     20  O   UNL     1       5.622   5.826  17.903  0.00  0.00    +0.000 OA
BRANCH  20  21
ATOM     21  C   UNL     1       6.823   5.711  17.286  0.00  0.00    +0.000 C 
ATOM     22  O   UNL     1       7.910   6.039  17.749  0.00  0.00    +0.000 OA
BRANCH  21  23
ATOM     23  C   UNL     1       6.659   5.166  15.918  0.00  0.00    +0.000 A 
ATOM     24  C   UNL     1       5.582   4.337  15.652  0.00  0.00    +0.000 A 
ATOM     25  N   UNL     1       5.390   3.757  14.439  0.00  0.00    +0.000 NA
ATOM     26  C   UNL     1       6.322   4.043  13.496  0.00  0.00    +0.000 A 
ATOM     27  C   UNL     1       6.172   3.420  12.146  0.00  0.00    +0.000 C 
ATOM     28  C   UNL     1       7.389   4.894  13.766  0.00  0.00    +0.000 A 
ATOM     29  N   UNL     1       7.590   5.467  14.975  0.00  0.00    +0.000 NA
ENDBRANCH  21  23
ENDBRANCH  20  21
ENDBRANCH  19  20
ENDBRANCH   2  19
TORSDOF 9
ENDMDL
MODEL 2
REMARK VINA RESULT:      -7.5      1.900      7.321
REMARK  Name = 
REMARK  12 active torsions:
REMARK  status: ('A' for Active; 'I' for Inactive)
REMARK    1  A    between atoms: C_1  and  C_2
REMARK    2  A    between atoms: C_2  and  C_3
REMARK    3  A    between atoms: C_3  and  N_4
REMARK    4  A    between atoms: N_4  and  C_5
REMARK    5  A    between atoms: C_5  and  C_6
REMARK    6  A    between atoms: N_8  and  C_9
REMARK    7  A    between atoms: C_14  and  C_15
REMARK    8  A    between atoms: C_16  and  C_18
REMARK    9  A    between atoms: C_18  and  O_19
REMARK   10  A    between atoms: O_19  and  C_20
REMARK   11  A    between atoms: C_20  and  C_22
REMARK   12  A    between atoms: C_25  and  C_26
REMARK                            x       y       z     vdW  Elec       q    Type
REMARK                         _______ _______ _______ _____ _____    ______ ____
ROOT
ATOM      1  N   UNL     1       5.803   5.597  16.586  0.00  0.00    +0.000 N 
ATOM      2  C   UNL     1       5.334   6.842  17.023  0.00  0.00    +0.000 C 
ATOM      3  O   UNL     1       6.086   7.662  17.558  0.00  0.00    +0.000 OA
ENDROOT
BRANCH   1   4
ATOM      4  C   UNL     1       7.222   5.313  16.816  0.00  0.00    +0.000 C 
BRANCH   4   6
ATOM      5  C   UNL     1       7.961   5.555  19.265  0.00  0.00    +0.000 C 
ATOM      6  C   UNL     1       7.534   4.615  18.150  0.00  0.00    +0.000 C 
ENDBRANCH   4   6
ENDBRANCH   1   4
BRANCH   1   7
ATOM      7  C   UNL     1       4.919   4.476  16.226  0.00  0.00    +0.000 C 
BRANCH   7   8
ATOM      8  C   UNL     1       3.953   3.834  17.244  0.00  0.00    +0.000 C 
ATOM      9  O   UNL     1       3.069   3.083  16.817  0.00  0.00    +0.000 OA
ATOM     10  N   UNL     1       4.000   4.306  18.544  0.00  0.00    +0.000 N 
ATOM     11  H   UNL     1       4.528   5.155  18.706  0.00  0.00    +0.000 HD
BRANCH  10  12
ATOM     12  C   UNL     1       3.095   3.883  19.554  0.00  0.00    +0.000 A 
ATOM     13  C   UNL     1       1.881   4.556  19.755  0.00  0.00    +0.000 A 
ATOM     14  C   UNL     1       0.965   4.134  20.725  0.00  0.00    +0.000 A 
ATOM     15  C   UNL     1       1.259   3.037  21.519  0.00  0.00    +0.000 A 
ATOM     16  C   UNL     1       2.469   2.363  21.346  0.00  0.00    +0.000 A 
ATOM     17  C   UNL     1       3.400   2.774  20.368  0.00  0.00    +0.000 A 
ATOM     18  C   UNL     1       4.703   2.038  20.277  0.00  0.00    +0.000 C 
ENDBRANCH  10  12
ENDBRANCH   7   8
ENDBRANCH   1   7
BRANCH   2  19
ATOM     19  C   UNL     1       3.851   7.175  16.851  0.00  0.00    +0.000 C 
BRANCH  19  20
ATOM     20  O   UNL     1       3.226   7.505  18.085  0.00  0.00    +0.000 OA
BRANCH  20  21
ATOM     21  C   UNL     1       2.384   8.565  18.018  0.00  0.00    +0.000 C 
ATOM     22  O   UNL     1       2.269   9.341  17.075  0.00  0.00    +0.000 OA
BRANCH  21  23
ATOM     23  C   UNL     1       1.624   8.712  19.281  0.00  0.00    +0.000 A 
ATOM     24  C   UNL     1       0.690   9.729  19.386  0.00  0.00    +0.000 A 
ATOM     25  N   UNL     1      -0.009   9.961  20.527  0.00  0.00    +0.000 NA
ATOM     26  C   UNL     1       0.262   9.128  21.563  0.00  0.00    +0.000 A 
ATOM     27  C   UNL     1      -0.467   9.346  22.850  0.00  0.00    +0.000 C 
ATOM     28  C   UNL     1       1.185   8.096  21.441  0.00  0.00    +0.000 A 
ATOM     29  N   UNL     1       1.892   7.866  20.310  0.00  0.00    +0.000 NA
ENDBRANCH  21  23
ENDBRANCH  20  21
ENDBRANCH  19  20
ENDBRANCH   2  19
TORSDOF 9
ENDMDL
MODEL 3
REMARK VINA RESULT:      -7.5      3.749      6.866
REMARK  Name = 
REMARK  12 active torsions:
REMARK  status: ('A' for Active; 'I' for Inactive)
REMARK    1  A    between atoms: C_1  and  C_2
REMARK    2  A    between atoms: C_2  and  C_3
REMARK    3  A    between atoms: C_3  and  N_4
REMARK    4  A    between atoms: N_4  and  C_5
REMARK    5  A    between atoms: C_5  and  C_6
REMARK    6  A    between atoms: N_8  and  C_9
REMARK    7  A    between atoms: C_14  and  C_15
REMARK    8  A    between atoms: C_16  and  C_18
REMARK    9  A    between atoms: C_18  and  O_19
REMARK   10  A    between atoms: O_19  and  C_20
REMARK   11  A    between atoms: C_20  and  C_22
REMARK   12  A    between atoms: C_25  and  C_26
REMARK                            x       y       z     vdW  Elec       q    Type
REMARK                         _______ _______ _______ _____ _____    ______ ____
ROOT
ATOM      1  N   UNL     1       6.447   5.161  16.910  0.00  0.00    +0.000 N 
ATOM      2  C   UNL     1       7.504   5.225  17.825  0.00  0.00    +0.000 C 
ATOM      3  O   UNL     1       8.396   4.370  17.841  0.00  0.00    +0.000 OA
ENDROOT
BRANCH   1   4
ATOM      4  C   UNL     1       6.442   4.020  15.990  0.00  0.00    +0.000 C 
BRANCH   4   6
ATOM      5  C   UNL     1       7.309   4.980  13.770  0.00  0.00    +0.000 C 
ATOM      6  C   UNL     1       6.139   4.372  14.524  0.00  0.00    +0.000 C 
ENDBRANCH   4   6
ENDBRANCH   1   4
BRANCH   1   7
ATOM      7  C   UNL     1       5.215   5.959  17.034  0.00  0.00    +0.000 C 
BRANCH   7   8
ATOM      8  C   UNL     1       4.074   5.561  17.993  0.00  0.00    +0.000 C 
ATOM      9  O   UNL     1       3.459   6.461  18.574  0.00  0.00    +0.000 OA
ATOM     10  N   UNL     1       3.953   4.219  18.308  0.00  0.00    +0.000 N 
ATOM     11  H   UNL     1       4.719   3.613  18.040  0.00  0.00    +0.000 HD
BRANCH  10  12
ATOM     12  C   UNL     1       3.019   3.729  19.260  0.00  0.00    +0.000 A 
ATOM     13  C   UNL     1       3.446   3.299  20.526  0.00  0.00    +0.000 A 
ATOM     14  C   UNL     1       2.536   2.843  21.486  0.00  0.00    +0.000 A 
ATOM     15  C   UNL     1       1.184   2.796  21.187  0.00  0.00    +0.000 A 
ATOM     16  C   UNL     1       0.740   3.204  19.928  0.00  0.00    +0.000 A 
ATOM     17  C   UNL     1       1.646   3.672  18.951  0.00  0.00    +0.000 A 
ATOM     18  C   UNL     1       1.105   4.041  17.603  0.00  0.00    +0.000 C 
ENDBRANCH  10  12
ENDBRANCH   7   8
ENDBRANCH   1   7
BRANCH   2  19
ATOM     19  C   UNL     1       7.536   6.368  18.840  0.00  0.00    +0.000 C 
BRANCH  19  20
ATOM     20  O   UNL     1       8.538   7.331  18.537  0.00  0.00    +0.000 OA
BRANCH  20  21
ATOM     21  C   UNL     1       8.062   8.484  18.008  0.00  0.00    +0.000 C 
ATOM     22  O   UNL     1       7.156   8.585  17.186  0.00  0.00    +0.000 OA
BRANCH  21  23
ATOM     23  C   UNL     1       8.822   9.649  18.518  0.00  0.00    +0.000 A 
ATOM     24  C   UNL     1       8.975   9.801  19.886  0.00  0.00    +0.000 A 
ATOM     25  N   UNL     1       9.613  10.867  20.434  0.00  0.00    +0.000 NA
ATOM     26  C   UNL     1      10.098  11.779  19.554  0.00  0.00    +0.000 A 
ATOM     27  C   UNL     1      10.796  12.982  20.100  0.00  0.00    +0.000 C 
ATOM     28  C   UNL     1       9.959  11.606  18.181  0.00  0.00    +0.000 A 
ATOM     29  N   UNL     1       9.315  10.551  17.630  0.00  0.00    +0.000 NA
ENDBRANCH  21  23
ENDBRANCH  20  21
ENDBRANCH  19  20
ENDBRANCH   2  19
TORSDOF 9
ENDMDL
MODEL 4
REMARK VINA RESULT:      -7.5      1.200      1.491
REMARK  Name = 
REMARK  12 active torsions:
REMARK  status: ('A' for Active; 'I' for Inactive)
REMARK    1  A    between atoms: C_1  and  C_2
REMARK    2  A    between atoms: C_2  and  C_3
REMARK    3  A    between atoms: C_3  and  N_4
REMARK    4  A    between atoms: N_4  and  C_5
REMARK    5  A    between atoms: C_5  and  C_6
REMARK    6  A    between atoms: N_8  and  C_9
REMARK    7  A    between atoms: C_14  and  C_15
REMARK    8  A    between atoms: C_16  and  C_18
REMARK    9  A    between atoms: C_18  and  O_19
REMARK   10  A    between atoms: O_19  and  C_20
REMARK   11  A    between atoms: C_20  and  C_22
REMARK   12  A    between atoms: C_25  and  C_26
REMARK                            x       y       z     vdW  Elec       q    Type
REMARK                         _______ _______ _______ _____ _____    ______ ____
ROOT
ATOM      1  N   UNL     1       3.364   3.876  20.212  0.00  0.00    +0.000 N 
ATOM      2  C   UNL     1       4.634   3.976  19.631  0.00  0.00    +0.000 C 
ATOM      3  O   UNL     1       5.279   2.972  19.313  0.00  0.00    +0.000 OA
ENDROOT
BRANCH   1   4
ATOM      4  C   UNL     1       2.853   2.522  20.442  0.00  0.00    +0.000 C 
BRANCH   4   6
ATOM      5  C   UNL     1       1.529   2.538  18.240  0.00  0.00    +0.000 C 
ATOM      6  C   UNL     1       1.535   2.197  19.720  0.00  0.00    +0.000 C 
ENDBRANCH   4   6
ENDBRANCH   1   4
BRANCH   1   7
ATOM      7  C   UNL     1       2.685   4.998  20.881  0.00  0.00    +0.000 C 
BRANCH   7   8
ATOM      8  C   UNL     1       1.985   6.122  20.090  0.00  0.00    +0.000 C 
ATOM      9  O   UNL     1       1.736   5.928  18.895  0.00  0.00    +0.000 OA
ATOM     10  N   UNL     1       1.873   7.355  20.708  0.00  0.00    +0.000 N 
ATOM     11  H   UNL     1       2.410   7.494  21.556  0.00  0.00    +0.000 HD
BRANCH  10  12
ATOM     12  C   UNL     1       1.351   8.503  20.056  0.00  0.00    +0.000 A 
ATOM     13  C   UNL     1       1.842   8.900  18.803  0.00  0.00    +0.000 A 
ATOM     14  C   UNL     1       1.318  10.011  18.132  0.00  0.00    +0.000 A 
ATOM     15  C   UNL     1       0.301  10.751  18.715  0.00  0.00    +0.000 A 
ATOM     16  C   UNL     1      -0.191  10.382  19.968  0.00  0.00    +0.000 A 
ATOM     17  C   UNL     1       0.325   9.261  20.654  0.00  0.00    +0.000 A 
ATOM     18  C   UNL     1      -0.214   8.957  22.020  0.00  0.00    +0.000 C 
ENDBRANCH  10  12
ENDBRANCH   7   8
ENDBRANCH   1   7
BRANCH   2  19
ATOM     19  C   UNL     1       5.239   5.364  19.410  0.00  0.00    +0.000 C 
BRANCH  19  20
ATOM     20  O   UNL     1       6.660   5.332  19.367  0.00  0.00    +0.000 OA
BRANCH  20  21
ATOM     21  C   UNL     1       7.203   6.040  18.346  0.00  0.00    +0.000 C 
ATOM     22  O   UNL     1       7.959   7.000  18.452  0.00  0.00    +0.000 OA
BRANCH  21  23
ATOM     23  C   UNL     1       6.722   5.531  17.041  0.00  0.00    +0.000 A 
ATOM     24  C   UNL     1       7.149   4.287  16.609  0.00  0.00    +0.000 A 
ATOM     25  N   UNL     1       6.795   3.773  15.403  0.00  0.00    +0.000 NA
ATOM     26  C   UNL     1       5.988   4.555  14.643  0.00  0.00    +0.000 A 
ATOM     27  C   UNL     1       5.579   4.048  13.299  0.00  0.00    +0.000 C 
ATOM     28  C   UNL     1       5.546   5.794  15.095  0.00  0.00    +0.000 A 
ATOM     29  N   UNL     1       5.904   6.316  16.291  0.00  0.00    +0.000 NA
ENDBRANCH  21  23
ENDBRANCH  20  21
ENDBRANCH  19  20
ENDBRANCH   2  19
TORSDOF 9
ENDMDL
MODEL 5
REMARK VINA RESULT:      -7.5      1.106      1.864
REMARK  Name = 
REMARK  12 active torsions:
REMARK  status: ('A' for Active; 'I' for Inactive)
REMARK    1  A    between atoms: C_1  and  C_2
REMARK    2  A    between atoms: C_2  and  C_3
REMARK    3  A    between atoms: C_3  and  N_4
REMARK    4  A    between atoms: N_4  and  C_5
REMARK    5  A    between atoms: C_5  and  C_6
REMARK    6  A    between atoms: N_8  and  C_9
REMARK    7  A    between atoms: C_14  and  C_15
REMARK    8  A    between atoms: C_16  and  C_18
REMARK    9  A    between atoms: C_18  and  O_19
REMARK   10  A    between atoms: O_19  and  C_20
REMARK   11  A    between atoms: C_20  and  C_22
REMARK   12  A    between atoms: C_25  and  C_26
REMARK                            x       y       z     vdW  Elec       q    Type
REMARK                         _______ _______ _______ _____ _____    ______ ____
ROOT
ATOM      1  N   UNL     1       3.352   3.829  20.110  0.00  0.00    +0.000 N 
ATOM      2  C   UNL     1       4.591   3.882  19.460  0.00  0.00    +0.000 C 
ATOM      3  O   UNL     1       5.076   2.886  18.915  0.00  0.00    +0.000 OA
ENDROOT
BRANCH   1   4
ATOM      4  C   UNL     1       2.674   2.530  20.127  0.00  0.00    +0.000 C 
BRANCH   4   6
ATOM      5  C   UNL     1       0.483   2.244  18.816  0.00  0.00    +0.000 C 
ATOM      6  C   UNL     1       1.998   2.135  18.804  0.00  0.00    +0.000 C 
ENDBRANCH   4   6
ENDBRANCH   1   4
BRANCH   1   7
ATOM      7  C   UNL     1       2.868   4.877  21.024  0.00  0.00    +0.000 C 
BRANCH   7   8
ATOM      8  C   UNL     1       1.842   5.941  20.581  0.00  0.00    +0.000 C 
ATOM      9  O   UNL     1       0.766   5.556  20.112  0.00  0.00    +0.000 OA
ATOM     10  N   UNL     1       2.274   7.255  20.537  0.00  0.00    +0.000 N 
ATOM     11  H   UNL     1       3.271   7.414  20.619  0.00  0.00    +0.000 HD
BRANCH  10  12
ATOM     12  C   UNL     1       1.470   8.318  20.045  0.00  0.00    +0.000 A 
ATOM     13  C   UNL     1       0.470   8.889  20.846  0.00  0.00    +0.000 A 
ATOM     14  C   UNL     1      -0.310   9.956  20.388  0.00  0.00    +0.000 A 
ATOM     15  C   UNL     1      -0.109  10.460  19.113  0.00  0.00    +0.000 A 
ATOM     16  C   UNL     1       0.870   9.896  18.294  0.00  0.00    +0.000 A 
ATOM     17  C   UNL     1       1.669   8.822  18.744  0.00  0.00    +0.000 A 
ATOM     18  C   UNL     1       2.663   8.230  17.791  0.00  0.00    +0.000 C 
ENDBRANCH  10  12
ENDBRANCH   7   8
ENDBRANCH   1   7
BRANCH   2  19
ATOM     19  C   UNL     1       5.366   5.201  19.451  0.00  0.00    +0.000 C 
BRANCH  19  20
ATOM     20  O   UNL     1       5.597   5.681  18.132  0.00  0.00    +0.000 OA
BRANCH  20  21
ATOM     21  C   UNL     1       6.793   5.318  17.608  0.00  0.00    +0.000 C 
ATOM     22  O   UNL     1       7.876   5.343  18.186  0.00  0.00    +0.000 OA
BRANCH  21  23
ATOM     23  C   UNL     1       6.645   4.917  16.190  0.00  0.00    +0.000 A 
ATOM     24  C   UNL     1       5.698   3.962  15.860  0.00  0.00    +0.000 A 
ATOM     25  N   UNL     1       5.535   3.505  14.592  0.00  0.00    +0.000 NA
ATOM     26  C   UNL     1       6.360   4.047  13.661  0.00  0.00    +0.000 A 
ATOM     27  C   UNL     1       6.237   3.570  12.249  0.00  0.00    +0.000 C 
ATOM     28  C   UNL     1       7.292   5.022  13.998  0.00  0.00    +0.000 A 
ATOM     29  N   UNL     1       7.466   5.474  15.261  0.00  0.00    +0.000 NA
ENDBRANCH  21  23
ENDBRANCH  20  21
ENDBRANCH  19  20
ENDBRANCH   2  19
TORSDOF 9
ENDMDL
MODEL 6
REMARK VINA RESULT:      -7.5      1.789      2.795
REMARK  Name = 
REMARK  12 active torsions:
REMARK  status: ('A' for Active; 'I' for Inactive)
REMARK    1  A    between atoms: C_1  and  C_2
REMARK    2  A    between atoms: C_2  and  C_3
REMARK    3  A    between atoms: C_3  and  N_4
REMARK    4  A    between atoms: N_4  and  C_5
REMARK    5  A    between atoms: C_5  and  C_6
REMARK    6  A    between atoms: N_8  and  C_9
REMARK    7  A    between atoms: C_14  and  C_15
REMARK    8  A    between atoms: C_16  and  C_18
REMARK    9  A    between atoms: C_18  and  O_19
REMARK   10  A    between atoms: O_19  and  C_20
REMARK   11  A    between atoms: C_20  and  C_22
REMARK   12  A    between atoms: C_25  and  C_26
REMARK                            x       y       z     vdW  Elec       q    Type
REMARK                         _______ _______ _______ _____ _____    ______ ____
ROOT
ATOM      1  N   UNL     1       3.425   3.788  19.521  0.00  0.00    +0.000 N 
ATOM      2  C   UNL     1       3.776   3.020  18.404  0.00  0.00    +0.000 C 
ATOM      3  O   UNL     1       3.782   1.786  18.446  0.00  0.00    +0.000 OA
ENDROOT
BRANCH   1   4
ATOM      4  C   UNL     1       3.088   3.053  20.743  0.00  0.00    +0.000 C 
BRANCH   4   6
ATOM      5  C   UNL     1       0.630   3.172  20.002  0.00  0.00    +0.000 C 
ATOM      6  C   UNL     1       1.611   3.137  21.162  0.00  0.00    +0.000 C 
ENDBRANCH   4   6
ENDBRANCH   1   4
BRANCH   1   7
ATOM      7  C   UNL     1       3.687   5.232  19.629  0.00  0.00    +0.000 C 
BRANCH   7   8
ATOM      8  C   UNL     1       2.639   6.289  19.222  0.00  0.00    +0.000 C 
ATOM      9  O   UNL     1       2.123   6.198  18.102  0.00  0.00    +0.000 OA
ATOM     10  N   UNL     1       2.500   7.392  20.046  0.00  0.00    +0.000 N 
ATOM     11  H   UNL     1       3.210   7.527  20.756  0.00  0.00    +0.000 HD
BRANCH  10  12
ATOM     12  C   UNL     1       1.654   8.489  19.734  0.00  0.00    +0.000 A 
ATOM     13  C   UNL     1       1.496   8.917  18.407  0.00  0.00    +0.000 A 
ATOM     14  C   UNL     1       0.643   9.977  18.079  0.00  0.00    +0.000 A 
ATOM     15  C   UNL     1      -0.055  10.634  19.079  0.00  0.00    +0.000 A 
ATOM     16  C   UNL     1       0.099  10.234  20.407  0.00  0.00    +0.000 A 
ATOM     17  C   UNL     1       0.953   9.163  20.753  0.00  0.00    +0.000 A 
ATOM     18  C   UNL     1       1.112   8.825  22.204  0.00  0.00    +0.000 C 
ENDBRANCH  10  12
ENDBRANCH   7   8
ENDBRANCH   1   7
BRANCH   2  19
ATOM     19  C   UNL     1       4.183   3.734  17.113  0.00  0.00    +0.000 C 
BRANCH  19  20
ATOM     20  O   UNL     1       5.241   3.066  16.438  0.00  0.00    +0.000 OA
BRANCH  20  21
ATOM     21  C   UNL     1       5.971   3.863  15.619  0.00  0.00    +0.000 C 
ATOM     22  O   UNL     1       6.137   3.705  14.414  0.00  0.00    +0.000 OA
BRANCH  21  23
ATOM     23  C   UNL     1       6.607   4.960  16.385  0.00  0.00    +0.000 A 
ATOM     24  C   UNL     1       7.367   4.645  17.499  0.00  0.00    +0.000 A 
ATOM     25  N   UNL     1       7.939   5.595  18.283  0.00  0.00    +0.000 NA
ATOM     26  C   UNL     1       7.724   6.880  17.903  0.00  0.00    +0.000 A 
ATOM     27  C   UNL     1       8.317   7.969  18.737  0.00  0.00    +0.000 C 
ATOM     28  C   UNL     1       6.978   7.185  16.770  0.00  0.00    +0.000 A 
ATOM     29  N   UNL     1       6.397   6.243  15.991  0.00  0.00    +0.000 NA
ENDBRANCH  21  23
ENDBRANCH  20  21
ENDBRANCH  19  20
ENDBRANCH   2  19
TORSDOF 9
ENDMDL
MODEL 7
REMARK VINA RESULT:      -7.4      3.698      6.901
REMARK  Name = 
REMARK  12 active torsions:
REMARK  status: ('A' for Active; 'I' for Inactive)
REMARK    1  A    between atoms: C_1  and  C_2
REMARK    2  A    between atoms: C_2  and  C_3
REMARK    3  A    between atoms: C_3  and  N_4
REMARK    4  A    between atoms: N_4  and  C_5
REMARK    5  A    between atoms: C_5  and  C_6
REMARK    6  A    between atoms: N_8  and  C_9
REMARK    7  A    between atoms: C_14  and  C_15
REMARK    8  A    between atoms: C_16  and  C_18
REMARK    9  A    between atoms: C_18  and  O_19
REMARK   10  A    between atoms: O_19  and  C_20
REMARK   11  A    between atoms: C_20  and  C_22
REMARK   12  A    between atoms: C_25  and  C_26
REMARK                            x       y       z     vdW  Elec       q    Type
REMARK                         _______ _______ _______ _____ _____    ______ ____
ROOT
ATOM      1  N   UNL     1       6.544   5.238  16.482  0.00  0.00    +0.000 N 
ATOM      2  C   UNL     1       7.449   5.293  17.549  0.00  0.00    +0.000 C 
ATOM      3  O   UNL     1       8.343   4.452  17.680  0.00  0.00    +0.000 OA
ENDROOT
BRANCH   1   4
ATOM      4  C   UNL     1       6.700   4.121  15.546  0.00  0.00    +0.000 C 
BRANCH   4   6
ATOM      5  C   UNL     1       5.664   3.797  13.217  0.00  0.00    +0.000 C 
ATOM      6  C   UNL     1       6.702   4.517  14.061  0.00  0.00    +0.000 C 
ENDBRANCH   4   6
ENDBRANCH   1   4
BRANCH   1   7
ATOM      7  C   UNL     1       5.294   6.014  16.436  0.00  0.00    +0.000 C 
BRANCH   7   8
ATOM      8  C   UNL     1       4.124   5.741  17.404  0.00  0.00    +0.000 C 
ATOM      9  O   UNL     1       3.528   6.710  17.887  0.00  0.00    +0.000 OA
ATOM     10  N   UNL     1       3.953   4.438  17.838  0.00  0.00    +0.000 N 
ATOM     11  H   UNL     1       4.703   3.787  17.642  0.00  0.00    +0.000 HD
BRANCH  10  12
ATOM     12  C   UNL     1       2.987   4.067  18.812  0.00  0.00    +0.000 A 
ATOM     13  C   UNL     1       2.331   5.043  19.577  0.00  0.00    +0.000 A 
ATOM     14  C   UNL     1       1.355   4.697  20.518  0.00  0.00    +0.000 A 
ATOM     15  C   UNL     1       1.032   3.364  20.718  0.00  0.00    +0.000 A 
ATOM     16  C   UNL     1       1.684   2.376  19.978  0.00  0.00    +0.000 A 
ATOM     17  C   UNL     1       2.667   2.711  19.021  0.00  0.00    +0.000 A 
ATOM     18  C   UNL     1       3.366   1.596  18.303  0.00  0.00    +0.000 C 
ENDBRANCH  10  12
ENDBRANCH   7   8
ENDBRANCH   1   7
BRANCH   2  19
ATOM     19  C   UNL     1       7.306   6.411  18.584  0.00  0.00    +0.000 C 
BRANCH  19  20
ATOM     20  O   UNL     1       8.353   7.368  18.493  0.00  0.00    +0.000 OA
BRANCH  20  21
ATOM     21  C   UNL     1       7.976   8.560  17.969  0.00  0.00    +0.000 C 
ATOM     22  O   UNL     1       7.088   8.740  17.141  0.00  0.00    +0.000 OA
BRANCH  21  23
ATOM     23  C   UNL     1       8.822   9.656  18.496  0.00  0.00    +0.000 A 
ATOM     24  C   UNL     1       8.956   9.797  19.867  0.00  0.00    +0.000 A 
ATOM     25  N   UNL     1       9.671  10.806  20.429  0.00  0.00    +0.000 NA
ATOM     26  C   UNL     1      10.253  11.670  19.560  0.00  0.00    +0.000 A 
ATOM     27  C   UNL     1      11.040  12.810  20.122  0.00  0.00    +0.000 C 
ATOM     28  C   UNL     1      10.131  11.507  18.184  0.00  0.00    +0.000 A 
ATOM     29  N   UNL     1       9.412  10.510  17.619  0.00  0.00    +0.000 NA
ENDBRANCH  21  23
ENDBRANCH  20  21
ENDBRANCH  19  20
ENDBRANCH   2  19
TORSDOF 9
ENDMDL
MODEL 8
REMARK VINA RESULT:      -7.4      1.685      7.391
REMARK  Name = 
REMARK  12 active torsions:
REMARK  status: ('A' for Active; 'I' for Inactive)
REMARK    1  A    between atoms: C_1  and  C_2
REMARK    2  A    between atoms: C_2  and  C_3
REMARK    3  A    between atoms: C_3  and  N_4
REMARK    4  A    between atoms: N_4  and  C_5
REMARK    5  A    between atoms: C_5  and  C_6
REMARK    6  A    between atoms: N_8  and  C_9
REMARK    7  A    between atoms: C_14  and  C_15
REMARK    8  A    between atoms: C_16  and  C_18
REMARK    9  A    between atoms: C_18  and  O_19
REMARK   10  A    between atoms: O_19  and  C_20
REMARK   11  A    between atoms: C_20  and  C_22
REMARK   12  A    between atoms: C_25  and  C_26
REMARK                            x       y       z     vdW  Elec       q    Type
REMARK                         _______ _______ _______ _____ _____    ______ ____
ROOT
ATOM      1  N   UNL     1       5.567   5.167  15.962  0.00  0.00    +0.000 N 
ATOM      2  C   UNL     1       5.083   6.477  16.058  0.00  0.00    +0.000 C 
ATOM      3  O   UNL     1       4.910   7.176  15.054  0.00  0.00    +0.000 OA
ENDROOT
BRANCH   1   4
ATOM      4  C   UNL     1       5.876   4.678  14.615  0.00  0.00    +0.000 C 
BRANCH   4   6
ATOM      5  C   UNL     1       7.649   5.166  12.820  0.00  0.00    +0.000 C 
ATOM      6  C   UNL     1       7.367   4.710  14.242  0.00  0.00    +0.000 C 
ENDBRANCH   4   6
ENDBRANCH   1   4
BRANCH   1   7
ATOM      7  C   UNL     1       6.075   4.402  17.112  0.00  0.00    +0.000 C 
BRANCH   7   8
ATOM      8  C   UNL     1       5.238   4.190  18.391  0.00  0.00    +0.000 C 
ATOM      9  O   UNL     1       5.809   4.272  19.484  0.00  0.00    +0.000 OA
ATOM     10  N   UNL     1       3.950   3.710  18.230  0.00  0.00    +0.000 N 
ATOM     11  H   UNL     1       3.701   3.360  17.313  0.00  0.00    +0.000 HD
BRANCH  10  12
ATOM     12  C   UNL     1       3.110   3.367  19.324  0.00  0.00    +0.000 A 
ATOM     13  C   UNL     1       3.630   2.703  20.445  0.00  0.00    +0.000 A 
ATOM     14  C   UNL     1       2.823   2.385  21.543  0.00  0.00    +0.000 A 
ATOM     15  C   UNL     1       1.478   2.716  21.529  0.00  0.00    +0.000 A 
ATOM     16  C   UNL     1       0.937   3.364  20.417  0.00  0.00    +0.000 A 
ATOM     17  C   UNL     1       1.740   3.695  19.303  0.00  0.00    +0.000 A 
ATOM     18  C   UNL     1       1.081   4.340  18.121  0.00  0.00    +0.000 C 
ENDBRANCH  10  12
ENDBRANCH   7   8
ENDBRANCH   1   7
BRANCH   2  19
ATOM     19  C   UNL     1       4.787   7.057  17.442  0.00  0.00    +0.000 C 
BRANCH  19  20
ATOM     20  O   UNL     1       3.415   6.935  17.796  0.00  0.00    +0.000 OA
BRANCH  20  21
ATOM     21  C   UNL     1       2.733   8.106  17.798  0.00  0.00    +0.000 C 
ATOM     22  O   UNL     1       2.762   8.963  16.920  0.00  0.00    +0.000 OA
BRANCH  21  23
ATOM     23  C   UNL     1       1.957   8.259  19.050  0.00  0.00    +0.000 A 
ATOM     24  C   UNL     1       1.125   9.357  19.192  0.00  0.00    +0.000 A 
ATOM     25  N   UNL     1       0.420   9.595  20.328  0.00  0.00    +0.000 NA
ATOM     26  C   UNL     1       0.578   8.684  21.321  0.00  0.00    +0.000 A 
ATOM     27  C   UNL     1      -0.161   8.903  22.601  0.00  0.00    +0.000 C 
ATOM     28  C   UNL     1       1.399   7.573  21.160  0.00  0.00    +0.000 A 
ATOM     29  N   UNL     1       2.111   7.335  20.035  0.00  0.00    +0.000 NA
ENDBRANCH  21  23
ENDBRANCH  20  21
ENDBRANCH  19  20
ENDBRANCH   2  19
TORSDOF 9
ENDMDL
MODEL 9
REMARK VINA RESULT:      -7.4      2.061      8.371
REMARK  Name = 
REMARK  12 active torsions:
REMARK  status: ('A' for Active; 'I' for Inactive)
REMARK    1  A    between atoms: C_1  and  C_2
REMARK    2  A    between atoms: C_2  and  C_3
REMARK    3  A    between atoms: C_3  and  N_4
REMARK    4  A    between atoms: N_4  and  C_5
REMARK    5  A    between atoms: C_5  and  C_6
REMARK    6  A    between atoms: N_8  and  C_9
REMARK    7  A    between atoms: C_14  and  C_15
REMARK    8  A    between atoms: C_16  and  C_18
REMARK    9  A    between atoms: C_18  and  O_19
REMARK   10  A    between atoms: O_19  and  C_20
REMARK   11  A    between atoms: C_20  and  C_22
REMARK   12  A    between atoms: C_25  and  C_26
REMARK                            x       y       z     vdW  Elec       q    Type
REMARK                         _______ _______ _______ _____ _____    ______ ____
ROOT
ATOM      1  N   UNL     1       6.495   6.316  18.200  0.00  0.00    +0.000 N 
ATOM      2  C   UNL     1       6.311   5.450  19.285  0.00  0.00    +0.000 C 
ATOM      3  O   UNL     1       7.209   5.248  20.108  0.00  0.00    +0.000 OA
ENDROOT
BRANCH   1   4
ATOM      4  C   UNL     1       7.812   6.949  18.081  0.00  0.00    +0.000 C 
BRANCH   4   6
ATOM      5  C   UNL     1       8.556   9.394  18.345  0.00  0.00    +0.000 C 
ATOM      6  C   UNL     1       7.794   8.377  17.512  0.00  0.00    +0.000 C 
ENDBRANCH   4   6
ENDBRANCH   1   4
BRANCH   1   7
ATOM      7  C   UNL     1       5.593   6.366  17.037  0.00  0.00    +0.000 C 
BRANCH   7   8
ATOM      8  C   UNL     1       5.606   5.278  15.942  0.00  0.00    +0.000 C 
ATOM      9  O   UNL     1       5.405   4.107  16.280  0.00  0.00    +0.000 OA
ATOM     10  N   UNL     1       6.054   5.651  14.687  0.00  0.00    +0.000 N 
ATOM     11  H   UNL     1       6.510   6.553  14.611  0.00  0.00    +0.000 HD
BRANCH  10  12
ATOM     12  C   UNL     1       6.220   4.729  13.619  0.00  0.00    +0.000 A 
ATOM     13  C   UNL     1       5.253   3.745  13.365  0.00  0.00    +0.000 A 
ATOM     14  C   UNL     1       5.387   2.849  12.300  0.00  0.00    +0.000 A 
ATOM     15  C   UNL     1       6.501   2.916  11.479  0.00  0.00    +0.000 A 
ATOM     16  C   UNL     1       7.483   3.877  11.723  0.00  0.00    +0.000 A 
ATOM     17  C   UNL     1       7.359   4.792  12.792  0.00  0.00    +0.000 A 
ATOM     18  C   UNL     1       8.479   5.760  13.029  0.00  0.00    +0.000 C 
ENDBRANCH  10  12
ENDBRANCH   7   8
ENDBRANCH   1   7
BRANCH   2  19
ATOM     19  C   UNL     1       4.972   4.725  19.433  0.00  0.00    +0.000 C 
BRANCH  19  20
ATOM     20  O   UNL     1       3.930   5.597  19.856  0.00  0.00    +0.000 OA
BRANCH  20  21
ATOM     21  C   UNL     1       2.919   5.730  18.964  0.00  0.00    +0.000 C 
ATOM     22  O   UNL     1       2.529   4.874  18.176  0.00  0.00    +0.000 OA
BRANCH  21  23
ATOM     23  C   UNL     1       2.347   7.095  19.019  0.00  0.00    +0.000 A 
ATOM     24  C   UNL     1       1.846   7.563  20.223  0.00  0.00    +0.000 A 
ATOM     25  N   UNL     1       1.260   8.782  20.344  0.00  0.00    +0.000 NA
ATOM     26  C   UNL     1       1.198   9.521  19.208  0.00  0.00    +0.000 A 
ATOM     27  C   UNL     1       0.548  10.865  19.278  0.00  0.00    +0.000 C 
ATOM     28  C   UNL     1       1.723   9.052  18.009  0.00  0.00    +0.000 A 
ATOM     29  N   UNL     1       2.299   7.834  17.880  0.00  0.00    +0.000 NA
ENDBRANCH  21  23
ENDBRANCH  20  21
ENDBRANCH  19  20
ENDBRANCH   2  19
TORSDOF 9
ENDMDL
