MODEL 1
REMARK VINA RESULT:      -8.0      0.000      0.000
REMARK  Name = 
REMARK  8 active torsions:
REMARK  status: ('A' for Active; 'I' for Inactive)
REMARK    1  A    between atoms: C_2  and  C_10
REMARK    2  A    between atoms: N_3  and  C_4
REMARK    3  A    between atoms: C_12  and  C_13
REMARK    4  A    between atoms: C_23  and  O_24
REMARK    5  A    between atoms: O_24  and  C_25
REMARK    6  A    between atoms: C_25  and  C_26
REMARK    7  A    between atoms: C_29  and  C_30
REMARK    8  A    between atoms: C_30  and  O_31
REMARK                            x       y       z     vdW  Elec       q    Type
REMARK                         _______ _______ _______ _____ _____    ______ ____
ROOT
ATOM      1  C   UNL     1       0.429  10.379  20.602  0.00  0.00    +0.000 C 
ATOM      2  C   UNL     1       1.321   9.323  20.458  0.00  0.00    +0.000 C 
ATOM      3  C   UNL     1       1.441   8.460  19.117  0.00  0.00    +0.000 C 
ATOM      4  C   UNL     1       0.745   9.248  18.054  0.00  0.00    +0.000 C 
ATOM      5  C   UNL     1      -0.538   9.975  18.473  0.00  0.00    +0.000 C 
ATOM      6  O   UNL     1      -0.250  10.904  19.515  0.00  0.00    +0.000 OA
ENDROOT
BRANCH   3   7
ATOM      7  C   UNL     1       2.702   7.642  18.379  0.00  0.00    +0.000 A 
ATOM      8  C   UNL     1       2.104   6.333  18.463  0.00  0.00    +0.000 A 
ATOM      9  S   UNL     1       3.134   5.575  19.680  0.00  0.00    +0.000 S 
ATOM     10  C   UNL     1       4.296   5.651  18.412  0.00  0.00    +0.000 A 
ATOM     11  C   UNL     1       5.302   4.701  18.065  0.00  0.00    +0.000 A 
ATOM     12  C   UNL     1       5.962   4.799  16.846  0.00  0.00    +0.000 A 
ATOM     13  C   UNL     1       5.673   5.877  16.027  0.00  0.00    +0.000 A 
ATOM     14  C   UNL     1       4.718   6.896  16.443  0.00  0.00    +0.000 A 
ATOM     15  C   UNL     1       3.942   6.797  17.701  0.00  0.00    +0.000 A 
ENDBRANCH   3   7
BRANCH   1  17
ATOM     16  O   UNL     1       0.066  10.422  23.000  0.00  0.00    +0.000 OA
ATOM     17  C   UNL     1      -0.122  11.021  21.944  0.00  0.00    +0.000 C 
ATOM     18  N   UNL     1      -0.913  12.155  21.790  0.00  0.00    +0.000 N 
ATOM     19  H   UNL     1      -1.156  12.391  20.851  0.00  0.00    +0.000 HD
BRANCH  18  20
ATOM     20  C   UNL     1      -1.654  12.838  22.825  0.00  0.00    +0.000 A 
ATOM     21  C   UNL     1      -2.906  12.306  23.181  0.00  0.00    +0.000 A 
ATOM     22  C   UNL     1      -3.695  12.902  24.190  0.00  0.00    +0.000 A 
ATOM     23  C   UNL     1      -3.262  14.057  24.819  0.00  0.00    +0.000 A 
ATOM     24  C   UNL     1      -2.032  14.605  24.469  0.00  0.00    +0.000 A 
ATOM     25  C   UNL     1      -1.225  13.993  23.484  0.00  0.00    +0.000 A 
ENDBRANCH  18  20
ENDBRANCH   1  17
BRANCH   5  26
ATOM     26  O   UNL     1      -1.069  10.705  17.346  0.00  0.00    +0.000 OA
BRANCH  26  27
ATOM     27  C   UNL     1      -1.750  11.873  17.774  0.00  0.00    +0.000 C 
BRANCH  27  28
ATOM     28  C   UNL     1      -3.122  11.667  18.308  0.00  0.00    +0.000 A 
ATOM     29  C   UNL     1      -4.053  11.081  17.447  0.00  0.00    +0.000 A 
ATOM     30  C   UNL     1      -5.397  11.085  17.778  0.00  0.00    +0.000 A 
ATOM     31  C   UNL     1      -5.820  11.662  18.983  0.00  0.00    +0.000 A 
ATOM     32  C   UNL     1      -4.887  12.314  19.804  0.00  0.00    +0.000 A 
ATOM     33  C   UNL     1      -3.538  12.314  19.472  0.00  0.00    +0.000 A 
BRANCH  31  34
ATOM     34  C   UNL     1      -7.273  11.537  19.347  0.00  0.00    +0.000 C 
BRANCH  34  35
ATOM     35  O   UNL     1      -7.617  10.230  19.780  0.00  0.00    +0.000 OA
ATOM     36  H   UNL     1      -8.382  10.330  20.371  0.00  0.00    +0.000 HD
ENDBRANCH  34  35
ENDBRANCH  31  34
ENDBRANCH  27  28
ENDBRANCH  26  27
ENDBRANCH   5  26
TORSDOF 8
ENDMDL
MODEL 2
REMARK VINA RESULT:      -8.0      4.261      7.720
REMARK  Name = 
REMARK  8 active torsions:
REMARK  status: ('A' for Active; 'I' for Inactive)
REMARK    1  A    between atoms: C_2  and  C_10
REMARK    2  A    between atoms: N_3  and  C_4
REMARK    3  A    between atoms: C_12  and  C_13
REMARK    4  A    between atoms: C_23  and  O_24
REMARK    5  A    between atoms: O_24  and  C_25
REMARK    6  A    between atoms: C_25  and  C_26
REMARK    7  A    between atoms: C_29  and  C_30
REMARK    8  A    between atoms: C_30  and  O_31
REMARK                            x       y       z     vdW  Elec       q    Type
REMARK                         _______ _______ _______ _____ _____    ______ ____
ROOT
ATOM      1  C   UNL     1      -0.938  11.120  18.194  0.00  0.00    +0.000 C 
ATOM      2  C   UNL     1      -0.197  12.224  18.597  0.00  0.00    +0.000 C 
ATOM      3  C   UNL     1       1.381  12.170  18.850  0.00  0.00    +0.000 C 
ATOM      4  C   UNL     1       1.859  10.905  18.211  0.00  0.00    +0.000 C 
ATOM      5  C   UNL     1       0.944   9.683  18.350  0.00  0.00    +0.000 C 
ATOM      6  O   UNL     1      -0.323   9.958  17.759  0.00  0.00    +0.000 OA
ENDROOT
BRANCH   3   7
ATOM      7  C   UNL     1       2.614  13.294  18.701  0.00  0.00    +0.000 A 
ATOM      8  C   UNL     1       2.665  13.649  20.097  0.00  0.00    +0.000 A 
ATOM      9  S   UNL     1       1.999  15.283  20.049  0.00  0.00    +0.000 S 
ATOM     10  C   UNL     1       3.492  15.622  19.263  0.00  0.00    +0.000 A 
ATOM     11  C   UNL     1       4.318  16.780  19.377  0.00  0.00    +0.000 A 
ATOM     12  C   UNL     1       5.617  16.758  18.886  0.00  0.00    +0.000 A 
ATOM     13  C   UNL     1       6.051  15.624  18.222  0.00  0.00    +0.000 A 
ATOM     14  C   UNL     1       5.160  14.489  18.022  0.00  0.00    +0.000 A 
ATOM     15  C   UNL     1       3.791  14.440  18.586  0.00  0.00    +0.000 A 
ENDBRANCH   3   7
BRANCH   1  17
ATOM     16  O   UNL     1      -2.971   9.822  17.936  0.00  0.00    +0.000 OA
ATOM     17  C   UNL     1      -2.501  10.885  18.332  0.00  0.00    +0.000 C 
ATOM     18  N   UNL     1      -3.240  11.982  18.763  0.00  0.00    +0.000 N 
ATOM     19  H   UNL     1      -2.740  12.843  18.833  0.00  0.00    +0.000 HD
BRANCH  18  20
ATOM     20  C   UNL     1      -4.679  12.081  18.829  0.00  0.00    +0.000 A 
ATOM     21  C   UNL     1      -5.379  12.130  17.611  0.00  0.00    +0.000 A 
ATOM     22  C   UNL     1      -6.790  12.217  17.579  0.00  0.00    +0.000 A 
ATOM     23  C   UNL     1      -7.507  12.300  18.760  0.00  0.00    +0.000 A 
ATOM     24  C   UNL     1      -6.830  12.267  19.975  0.00  0.00    +0.000 A 
ATOM     25  C   UNL     1      -5.422  12.148  20.011  0.00  0.00    +0.000 A 
ENDBRANCH  18  20
ENDBRANCH   1  17
BRANCH   5  26
ATOM     26  O   UNL     1       1.534   8.559  17.662  0.00  0.00    +0.000 OA
BRANCH  26  27
ATOM     27  C   UNL     1       2.598   8.003  18.418  0.00  0.00    +0.000 C 
BRANCH  27  28
ATOM     28  C   UNL     1       2.415   6.596  18.862  0.00  0.00    +0.000 A 
ATOM     29  C   UNL     1       2.299   5.629  17.860  0.00  0.00    +0.000 A 
ATOM     30  C   UNL     1       1.881   4.350  18.182  0.00  0.00    +0.000 A 
ATOM     31  C   UNL     1       1.591   4.021  19.513  0.00  0.00    +0.000 A 
ATOM     32  C   UNL     1       1.639   5.019  20.499  0.00  0.00    +0.000 A 
ATOM     33  C   UNL     1       2.055   6.304  20.177  0.00  0.00    +0.000 A 
BRANCH  31  34
ATOM     34  C   UNL     1       1.254   2.590  19.824  0.00  0.00    +0.000 C 
BRANCH  34  35
ATOM     35  O   UNL     1       1.299   1.756  18.676  0.00  0.00    +0.000 OA
ATOM     36  H   UNL     1       0.853   2.247  17.964  0.00  0.00    +0.000 HD
ENDBRANCH  34  35
ENDBRANCH  31  34
ENDBRANCH  27  28
ENDBRANCH  26  27
ENDBRANCH   5  26
TORSDOF 8
ENDMDL
MODEL 3
REMARK VINA RESULT:      -7.7      4.282      8.449
REMARK  Name = 
REMARK  8 active torsions:
REMARK  status: ('A' for Active; 'I' for Inactive)
REMARK    1  A    between atoms: C_2  and  C_10
REMARK    2  A    between atoms: N_3  and  C_4
REMARK    3  A    between atoms: C_12  and  C_13
REMARK    4  A    between atoms: C_23  and  O_24
REMARK    5  A    between atoms: O_24  and  C_25
REMARK    6  A    between atoms: C_25  and  C_26
REMARK    7  A    between atoms: C_29  and  C_30
REMARK    8  A    between atoms: C_30  and  O_31
REMARK                            x       y       z     vdW  Elec       q    Type
REMARK                         _______ _______ _______ _____ _____    ______ ____
ROOT
ATOM      1  C   UNL     1      -0.749  11.091  18.207  0.00  0.00    +0.000 C 
ATOM      2  C   UNL     1      -0.033  12.209  18.621  0.00  0.00    +0.000 C 
ATOM      3  C   UNL     1       1.548  12.193  18.857  0.00  0.00    +0.000 C 
ATOM      4  C   UNL     1       2.052  10.951  18.195  0.00  0.00    +0.000 C 
ATOM      5  C   UNL     1       1.172   9.703  18.323  0.00  0.00    +0.000 C 
ATOM      6  O   UNL     1      -0.107   9.953  17.747  0.00  0.00    +0.000 OA
ENDROOT
BRANCH   3   7
ATOM      7  C   UNL     1       2.748  13.352  18.715  0.00  0.00    +0.000 A 
ATOM      8  C   UNL     1       2.768  13.722  20.107  0.00  0.00    +0.000 A 
ATOM      9  S   UNL     1       2.054  15.335  20.032  0.00  0.00    +0.000 S 
ATOM     10  C   UNL     1       3.548  15.710  19.265  0.00  0.00    +0.000 A 
ATOM     11  C   UNL     1       4.338  16.894  19.378  0.00  0.00    +0.000 A 
ATOM     12  C   UNL     1       5.645  16.906  18.907  0.00  0.00    +0.000 A 
ATOM     13  C   UNL     1       6.122  15.779  18.262  0.00  0.00    +0.000 A 
ATOM     14  C   UNL     1       5.268  14.615  18.061  0.00  0.00    +0.000 A 
ATOM     15  C   UNL     1       3.893  14.531  18.605  0.00  0.00    +0.000 A 
ENDBRANCH   3   7
BRANCH   1  17
ATOM     16  O   UNL     1      -2.735   9.711  18.028  0.00  0.00    +0.000 OA
ATOM     17  C   UNL     1      -2.304  10.813  18.356  0.00  0.00    +0.000 C 
ATOM     18  N   UNL     1      -3.081  11.910  18.713  0.00  0.00    +0.000 N 
ATOM     19  H   UNL     1      -2.612  12.789  18.728  0.00  0.00    +0.000 HD
BRANCH  18  20
ATOM     20  C   UNL     1      -4.524  11.963  18.769  0.00  0.00    +0.000 A 
ATOM     21  C   UNL     1      -5.110  12.299  20.002  0.00  0.00    +0.000 A 
ATOM     22  C   UNL     1      -6.513  12.385  20.147  0.00  0.00    +0.000 A 
ATOM     23  C   UNL     1      -7.341  12.092  19.077  0.00  0.00    +0.000 A 
ATOM     24  C   UNL     1      -6.779  11.745  17.853  0.00  0.00    +0.000 A 
ATOM     25  C   UNL     1      -5.376  11.689  17.696  0.00  0.00    +0.000 A 
ENDBRANCH  18  20
ENDBRANCH   1  17
BRANCH   5  26
ATOM     26  O   UNL     1       1.785   8.606  17.611  0.00  0.00    +0.000 OA
BRANCH  26  27
ATOM     27  C   UNL     1       2.217   7.597  18.510  0.00  0.00    +0.000 C 
BRANCH  27  28
ATOM     28  C   UNL     1       3.254   6.666  17.994  0.00  0.00    +0.000 A 
ATOM     29  C   UNL     1       4.257   7.220  17.194  0.00  0.00    +0.000 A 
ATOM     30  C   UNL     1       5.105   6.392  16.478  0.00  0.00    +0.000 A 
ATOM     31  C   UNL     1       4.966   5.000  16.570  0.00  0.00    +0.000 A 
ATOM     32  C   UNL     1       3.909   4.457  17.316  0.00  0.00    +0.000 A 
ATOM     33  C   UNL     1       3.056   5.286  18.032  0.00  0.00    +0.000 A 
BRANCH  31  34
ATOM     34  C   UNL     1       5.984   4.148  15.865  0.00  0.00    +0.000 C 
BRANCH  34  35
ATOM     35  O   UNL     1       7.305   4.649  16.001  0.00  0.00    +0.000 OA
ATOM     36  H   UNL     1       7.228   5.501  16.463  0.00  0.00    +0.000 HD
ENDBRANCH  34  35
ENDBRANCH  31  34
ENDBRANCH  27  28
ENDBRANCH  26  27
ENDBRANCH   5  26
TORSDOF 8
ENDMDL
MODEL 4
REMARK VINA RESULT:      -7.7      4.243      8.100
REMARK  Name = 
REMARK  8 active torsions:
REMARK  status: ('A' for Active; 'I' for Inactive)
REMARK    1  A    between atoms: C_2  and  C_10
REMARK    2  A    between atoms: N_3  and  C_4
REMARK    3  A    between atoms: C_12  and  C_13
REMARK    4  A    between atoms: C_23  and  O_24
REMARK    5  A    between atoms: O_24  and  C_25
REMARK    6  A    between atoms: C_25  and  C_26
REMARK    7  A    between atoms: C_29  and  C_30
REMARK    8  A    between atoms: C_30  and  O_31
REMARK                            x       y       z     vdW  Elec       q    Type
REMARK                         _______ _______ _______ _____ _____    ______ ____
ROOT
ATOM      1  C   UNL     1      -0.895  11.119  18.182  0.00  0.00    +0.000 C 
ATOM      2  C   UNL     1      -0.159  12.222  18.597  0.00  0.00    +0.000 C 
ATOM      3  C   UNL     1       1.420  12.175  18.843  0.00  0.00    +0.000 C 
ATOM      4  C   UNL     1       1.904  10.922  18.187  0.00  0.00    +0.000 C 
ATOM      5  C   UNL     1       0.997   9.692  18.312  0.00  0.00    +0.000 C 
ATOM      6  O   UNL     1      -0.273   9.967  17.729  0.00  0.00    +0.000 OA
ENDROOT
BRANCH   3   7
ATOM      7  C   UNL     1       2.645  13.309  18.705  0.00  0.00    +0.000 A 
ATOM      8  C   UNL     1       2.674  13.672  20.100  0.00  0.00    +0.000 A 
ATOM      9  S   UNL     1       1.994  15.299  20.035  0.00  0.00    +0.000 S 
ATOM     10  C   UNL     1       3.495  15.647  19.267  0.00  0.00    +0.000 A 
ATOM     11  C   UNL     1       4.309  16.813  19.386  0.00  0.00    +0.000 A 
ATOM     12  C   UNL     1       5.616  16.800  18.913  0.00  0.00    +0.000 A 
ATOM     13  C   UNL     1       6.068  15.667  18.261  0.00  0.00    +0.000 A 
ATOM     14  C   UNL     1       5.190  14.523  18.055  0.00  0.00    +0.000 A 
ATOM     15  C   UNL     1       3.813  14.465  18.601  0.00  0.00    +0.000 A 
ENDBRANCH   3   7
BRANCH   1  17
ATOM     16  O   UNL     1      -2.910   9.784  17.977  0.00  0.00    +0.000 OA
ATOM     17  C   UNL     1      -2.455  10.872  18.321  0.00  0.00    +0.000 C 
ATOM     18  N   UNL     1      -3.210  11.981  18.691  0.00  0.00    +0.000 N 
ATOM     19  H   UNL     1      -2.721  12.850  18.721  0.00  0.00    +0.000 HD
BRANCH  18  20
ATOM     20  C   UNL     1      -4.651  12.065  18.743  0.00  0.00    +0.000 A 
ATOM     21  C   UNL     1      -5.243  12.228  20.009  0.00  0.00    +0.000 A 
ATOM     22  C   UNL     1      -6.645  12.330  20.154  0.00  0.00    +0.000 A 
ATOM     23  C   UNL     1      -7.468  12.224  19.046  0.00  0.00    +0.000 A 
ATOM     24  C   UNL     1      -6.900  12.048  17.788  0.00  0.00    +0.000 A 
ATOM     25  C   UNL     1      -5.497  11.978  17.635  0.00  0.00    +0.000 A 
ENDBRANCH  18  20
ENDBRANCH   1  17
BRANCH   5  26
ATOM     26  O   UNL     1       1.592   8.581  17.607  0.00  0.00    +0.000 OA
BRANCH  26  27
ATOM     27  C   UNL     1       2.594   7.959  18.396  0.00  0.00    +0.000 C 
BRANCH  27  28
ATOM     28  C   UNL     1       2.900   6.543  18.061  0.00  0.00    +0.000 A 
ATOM     29  C   UNL     1       1.834   5.640  18.105  0.00  0.00    +0.000 A 
ATOM     30  C   UNL     1       2.080   4.279  18.052  0.00  0.00    +0.000 A 
ATOM     31  C   UNL     1       3.396   3.809  17.938  0.00  0.00    +0.000 A 
ATOM     32  C   UNL     1       4.462   4.721  17.970  0.00  0.00    +0.000 A 
ATOM     33  C   UNL     1       4.217   6.087  18.026  0.00  0.00    +0.000 A 
BRANCH  31  34
ATOM     34  C   UNL     1       3.598   2.330  17.767  0.00  0.00    +0.000 C 
BRANCH  34  35
ATOM     35  O   UNL     1       2.444   1.578  18.106  0.00  0.00    +0.000 OA
ATOM     36  H   UNL     1       2.737   0.655  18.200  0.00  0.00    +0.000 HD
ENDBRANCH  34  35
ENDBRANCH  31  34
ENDBRANCH  27  28
ENDBRANCH  26  27
ENDBRANCH   5  26
TORSDOF 8
ENDMDL
MODEL 5
REMARK VINA RESULT:      -7.7      3.376      5.304
REMARK  Name = 
REMARK  8 active torsions:
REMARK  status: ('A' for Active; 'I' for Inactive)
REMARK    1  A    between atoms: C_2  and  C_10
REMARK    2  A    between atoms: N_3  and  C_4
REMARK    3  A    between atoms: C_12  and  C_13
REMARK    4  A    between atoms: C_23  and  O_24
REMARK    5  A    between atoms: O_24  and  C_25
REMARK    6  A    between atoms: C_25  and  C_26
REMARK    7  A    between atoms: C_29  and  C_30
REMARK    8  A    between atoms: C_30  and  O_31
REMARK                            x       y       z     vdW  Elec       q    Type
REMARK                         _______ _______ _______ _____ _____    ______ ____
ROOT
ATOM      1  C   UNL     1       1.062  10.638  19.726  0.00  0.00    +0.000 C 
ATOM      2  C   UNL     1       1.550   9.384  19.379  0.00  0.00    +0.000 C 
ATOM      3  C   UNL     1       1.717   8.191  20.431  0.00  0.00    +0.000 C 
ATOM      4  C   UNL     1       0.918   8.585  21.632  0.00  0.00    +0.000 C 
ATOM      5  C   UNL     1       0.963  10.065  22.027  0.00  0.00    +0.000 C 
ATOM      6  O   UNL     1       0.469  10.866  20.957  0.00  0.00    +0.000 OA
ENDROOT
BRANCH   3   7
ATOM      7  C   UNL     1       1.635   6.523  20.308  0.00  0.00    +0.000 A 
ATOM      8  C   UNL     1       2.898   6.358  19.634  0.00  0.00    +0.000 A 
ATOM      9  S   UNL     1       2.355   5.890  18.021  0.00  0.00    +0.000 S 
ATOM     10  C   UNL     1       1.893   4.451  18.844  0.00  0.00    +0.000 A 
ATOM     11  C   UNL     1       1.957   3.101  18.385  0.00  0.00    +0.000 A 
ATOM     12  C   UNL     1       1.805   2.053  19.285  0.00  0.00    +0.000 A 
ATOM     13  C   UNL     1       1.514   2.355  20.603  0.00  0.00    +0.000 A 
ATOM     14  C   UNL     1       1.348   3.737  21.034  0.00  0.00    +0.000 A 
ATOM     15  C   UNL     1       1.568   4.887  20.127  0.00  0.00    +0.000 A 
ENDBRANCH   3   7
BRANCH   1  17
ATOM     16  O   UNL     1       1.972  12.031  17.961  0.00  0.00    +0.000 OA
ATOM     17  C   UNL     1       1.249  12.011  18.953  0.00  0.00    +0.000 C 
ATOM     18  N   UNL     1       0.682  13.127  19.561  0.00  0.00    +0.000 N 
ATOM     19  H   UNL     1       0.315  12.983  20.478  0.00  0.00    +0.000 HD
BRANCH  18  20
ATOM     20  C   UNL     1       0.832  14.503  19.149  0.00  0.00    +0.000 A 
ATOM     21  C   UNL     1       2.123  15.057  19.210  0.00  0.00    +0.000 A 
ATOM     22  C   UNL     1       2.365  16.393  18.817  0.00  0.00    +0.000 A 
ATOM     23  C   UNL     1       1.317  17.198  18.405  0.00  0.00    +0.000 A 
ATOM     24  C   UNL     1       0.031  16.669  18.352  0.00  0.00    +0.000 A 
ATOM     25  C   UNL     1      -0.210  15.324  18.713  0.00  0.00    +0.000 A 
ENDBRANCH  18  20
ENDBRANCH   1  17
BRANCH   5  26
ATOM     26  O   UNL     1       0.125  10.281  23.182  0.00  0.00    +0.000 OA
BRANCH  26  27
ATOM     27  C   UNL     1      -1.226  10.479  22.798  0.00  0.00    +0.000 C 
BRANCH  27  28
ATOM     28  C   UNL     1      -1.782  11.835  23.050  0.00  0.00    +0.000 A 
ATOM     29  C   UNL     1      -0.875  12.898  23.051  0.00  0.00    +0.000 A 
ATOM     30  C   UNL     1      -1.268  14.140  23.518  0.00  0.00    +0.000 A 
ATOM     31  C   UNL     1      -2.579  14.334  23.975  0.00  0.00    +0.000 A 
ATOM     32  C   UNL     1      -3.459  13.242  24.039  0.00  0.00    +0.000 A 
ATOM     33  C   UNL     1      -3.065  11.994  23.574  0.00  0.00    +0.000 A 
BRANCH  31  34
ATOM     34  C   UNL     1      -2.987  15.727  24.362  0.00  0.00    +0.000 C 
BRANCH  34  35
ATOM     35  O   UNL     1      -4.126  15.749  25.209  0.00  0.00    +0.000 OA
ATOM     36  H   UNL     1      -4.874  16.029  24.653  0.00  0.00    +0.000 HD
ENDBRANCH  34  35
ENDBRANCH  31  34
ENDBRANCH  27  28
ENDBRANCH  26  27
ENDBRANCH   5  26
TORSDOF 8
ENDMDL
MODEL 6
REMARK VINA RESULT:      -7.6      3.136      4.827
REMARK  Name = 
REMARK  8 active torsions:
REMARK  status: ('A' for Active; 'I' for Inactive)
REMARK    1  A    between atoms: C_2  and  C_10
REMARK    2  A    between atoms: N_3  and  C_4
REMARK    3  A    between atoms: C_12  and  C_13
REMARK    4  A    between atoms: C_23  and  O_24
REMARK    5  A    between atoms: O_24  and  C_25
REMARK    6  A    between atoms: C_25  and  C_26
REMARK    7  A    between atoms: C_29  and  C_30
REMARK    8  A    between atoms: C_30  and  O_31
REMARK                            x       y       z     vdW  Elec       q    Type
REMARK                         _______ _______ _______ _____ _____    ______ ____
ROOT
ATOM      1  C   UNL     1       0.962  10.657  19.549  0.00  0.00    +0.000 C 
ATOM      2  C   UNL     1       1.595   9.426  19.420  0.00  0.00    +0.000 C 
ATOM      3  C   UNL     1       1.453   8.256  20.501  0.00  0.00    +0.000 C 
ATOM      4  C   UNL     1       0.281   8.621  21.354  0.00  0.00    +0.000 C 
ATOM      5  C   UNL     1       0.124  10.106  21.699  0.00  0.00    +0.000 C 
ATOM      6  O   UNL     1      -0.019  10.868  20.504  0.00  0.00    +0.000 OA
ENDROOT
BRANCH   3   7
ATOM      7  C   UNL     1       1.493   6.585  20.405  0.00  0.00    +0.000 A 
ATOM      8  C   UNL     1       2.764   6.501  19.731  0.00  0.00    +0.000 A 
ATOM      9  S   UNL     1       2.255   5.970  18.126  0.00  0.00    +0.000 S 
ATOM     10  C   UNL     1       1.901   4.514  18.973  0.00  0.00    +0.000 A 
ATOM     11  C   UNL     1       2.063   3.165  18.536  0.00  0.00    +0.000 A 
ATOM     12  C   UNL     1       1.988   2.123  19.452  0.00  0.00    +0.000 A 
ATOM     13  C   UNL     1       1.677   2.424  20.766  0.00  0.00    +0.000 A 
ATOM     14  C   UNL     1       1.411   3.797  21.176  0.00  0.00    +0.000 A 
ATOM     15  C   UNL     1       1.546   4.946  20.250  0.00  0.00    +0.000 A 
ENDBRANCH   3   7
BRANCH   1  17
ATOM     16  O   UNL     1       2.256  12.040  18.033  0.00  0.00    +0.000 OA
ATOM     17  C   UNL     1       1.335  12.029  18.845  0.00  0.00    +0.000 C 
ATOM     18  N   UNL     1       0.670  13.153  19.325  0.00  0.00    +0.000 N 
ATOM     19  H   UNL     1       0.111  13.013  20.139  0.00  0.00    +0.000 HD
BRANCH  18  20
ATOM     20  C   UNL     1       0.928  14.527  18.965  0.00  0.00    +0.000 A 
ATOM     21  C   UNL     1      -0.184  15.346  18.700  0.00  0.00    +0.000 A 
ATOM     22  C   UNL     1      -0.027  16.706  18.351  0.00  0.00    +0.000 A 
ATOM     23  C   UNL     1       1.241  17.247  18.218  0.00  0.00    +0.000 A 
ATOM     24  C   UNL     1       2.353  16.448  18.463  0.00  0.00    +0.000 A 
ATOM     25  C   UNL     1       2.199  15.096  18.844  0.00  0.00    +0.000 A 
ENDBRANCH  18  20
ENDBRANCH   1  17
BRANCH   5  26
ATOM     26  O   UNL     1      -1.062  10.291  22.502  0.00  0.00    +0.000 OA
BRANCH  26  27
ATOM     27  C   UNL     1      -1.133  11.616  23.004  0.00  0.00    +0.000 C 
BRANCH  27  28
ATOM     28  C   UNL     1      -2.476  12.253  22.974  0.00  0.00    +0.000 A 
ATOM     29  C   UNL     1      -3.156  12.346  24.192  0.00  0.00    +0.000 A 
ATOM     30  C   UNL     1      -4.496  12.692  24.208  0.00  0.00    +0.000 A 
ATOM     31  C   UNL     1      -5.164  12.965  23.006  0.00  0.00    +0.000 A 
ATOM     32  C   UNL     1      -4.491  12.795  21.786  0.00  0.00    +0.000 A 
ATOM     33  C   UNL     1      -3.148  12.444  21.767  0.00  0.00    +0.000 A 
BRANCH  31  34
ATOM     34  C   UNL     1      -6.584  13.448  23.089  0.00  0.00    +0.000 C 
BRANCH  34  35
ATOM     35  O   UNL     1      -7.079  13.466  24.419  0.00  0.00    +0.000 OA
ATOM     36  H   UNL     1      -6.300  13.451  25.000  0.00  0.00    +0.000 HD
ENDBRANCH  34  35
ENDBRANCH  31  34
ENDBRANCH  27  28
ENDBRANCH  26  27
ENDBRANCH   5  26
TORSDOF 8
ENDMDL
MODEL 7
REMARK VINA RESULT:      -7.6      3.342      5.576
REMARK  Name = 
REMARK  8 active torsions:
REMARK  status: ('A' for Active; 'I' for Inactive)
REMARK    1  A    between atoms: C_2  and  C_10
REMARK    2  A    between atoms: N_3  and  C_4
REMARK    3  A    between atoms: C_12  and  C_13
REMARK    4  A    between atoms: C_23  and  O_24
REMARK    5  A    between atoms: O_24  and  C_25
REMARK    6  A    between atoms: C_25  and  C_26
REMARK    7  A    between atoms: C_29  and  C_30
REMARK    8  A    between atoms: C_30  and  O_31
REMARK                            x       y       z     vdW  Elec       q    Type
REMARK                         _______ _______ _______ _____ _____    ______ ____
ROOT
ATOM      1  C   UNL     1       0.753  10.668  19.788  0.00  0.00    +0.000 C 
ATOM      2  C   UNL     1       1.293   9.439  19.428  0.00  0.00    +0.000 C 
ATOM      3  C   UNL     1       1.565   8.264  20.478  0.00  0.00    +0.000 C 
ATOM      4  C   UNL     1       0.795   8.623  21.708  0.00  0.00    +0.000 C 
ATOM      5  C   UNL     1       0.776  10.107  22.093  0.00  0.00    +0.000 C 
ATOM      6  O   UNL     1       0.198  10.873  21.040  0.00  0.00    +0.000 OA
ENDROOT
BRANCH   3   7
ATOM      7  C   UNL     1       1.568   6.594  20.367  0.00  0.00    +0.000 A 
ATOM      8  C   UNL     1       2.839   6.488  19.696  0.00  0.00    +0.000 A 
ATOM      9  S   UNL     1       2.324   5.982  18.085  0.00  0.00    +0.000 S 
ATOM     10  C   UNL     1       1.934   4.527  18.917  0.00  0.00    +0.000 A 
ATOM     11  C   UNL     1       2.067   3.179  18.469  0.00  0.00    +0.000 A 
ATOM     12  C   UNL     1       1.966   2.131  19.375  0.00  0.00    +0.000 A 
ATOM     13  C   UNL     1       1.657   2.427  20.691  0.00  0.00    +0.000 A 
ATOM     14  C   UNL     1       1.421   3.802  21.112  0.00  0.00    +0.000 A 
ATOM     15  C   UNL     1       1.584   4.955  20.197  0.00  0.00    +0.000 A 
ENDBRANCH   3   7
BRANCH   1  17
ATOM     16  O   UNL     1       0.165  12.175  17.981  0.00  0.00    +0.000 OA
ATOM     17  C   UNL     1       0.835  12.043  19.001  0.00  0.00    +0.000 C 
ATOM     18  N   UNL     1       1.788  12.945  19.463  0.00  0.00    +0.000 N 
ATOM     19  H   UNL     1       2.407  12.602  20.166  0.00  0.00    +0.000 HD
BRANCH  18  20
ATOM     20  C   UNL     1       2.166  14.193  18.842  0.00  0.00    +0.000 A 
ATOM     21  C   UNL     1       3.343  14.200  18.073  0.00  0.00    +0.000 A 
ATOM     22  C   UNL     1       3.785  15.374  17.420  0.00  0.00    +0.000 A 
ATOM     23  C   UNL     1       3.082  16.557  17.568  0.00  0.00    +0.000 A 
ATOM     24  C   UNL     1       1.923  16.572  18.337  0.00  0.00    +0.000 A 
ATOM     25  C   UNL     1       1.460  15.393  18.964  0.00  0.00    +0.000 A 
ENDBRANCH  18  20
ENDBRANCH   1  17
BRANCH   5  26
ATOM     26  O   UNL     1      -0.026  10.286  23.281  0.00  0.00    +0.000 OA
BRANCH  26  27
ATOM     27  C   UNL     1      -1.362  10.624  22.944  0.00  0.00    +0.000 C 
BRANCH  27  28
ATOM     28  C   UNL     1      -1.820  11.972  23.372  0.00  0.00    +0.000 A 
ATOM     29  C   UNL     1      -3.172  12.104  23.701  0.00  0.00    +0.000 A 
ATOM     30  C   UNL     1      -3.722  13.363  23.865  0.00  0.00    +0.000 A 
ATOM     31  C   UNL     1      -2.920  14.503  23.718  0.00  0.00    +0.000 A 
ATOM     32  C   UNL     1      -1.583  14.362  23.315  0.00  0.00    +0.000 A 
ATOM     33  C   UNL     1      -1.030  13.099  23.146  0.00  0.00    +0.000 A 
BRANCH  31  34
ATOM     34  C   UNL     1      -3.539  15.839  24.021  0.00  0.00    +0.000 C 
BRANCH  34  35
ATOM     35  O   UNL     1      -2.602  16.903  23.956  0.00  0.00    +0.000 OA
ATOM     36  H   UNL     1      -3.007  17.652  24.425  0.00  0.00    +0.000 HD
ENDBRANCH  34  35
ENDBRANCH  31  34
ENDBRANCH  27  28
ENDBRANCH  26  27
ENDBRANCH   5  26
TORSDOF 8
ENDMDL
MODEL 8
REMARK VINA RESULT:      -7.5      3.221      5.076
REMARK  Name = 
REMARK  8 active torsions:
REMARK  status: ('A' for Active; 'I' for Inactive)
REMARK    1  A    between atoms: C_2  and  C_10
REMARK    2  A    between atoms: N_3  and  C_4
REMARK    3  A    between atoms: C_12  and  C_13
REMARK    4  A    between atoms: C_23  and  O_24
REMARK    5  A    between atoms: O_24  and  C_25
REMARK    6  A    between atoms: C_25  and  C_26
REMARK    7  A    between atoms: C_29  and  C_30
REMARK    8  A    between atoms: C_30  and  O_31
REMARK                            x       y       z     vdW  Elec       q    Type
REMARK                         _______ _______ _______ _____ _____    ______ ____
ROOT
ATOM      1  C   UNL     1       0.285  11.000  19.692  0.00  0.00    +0.000 C 
ATOM      2  C   UNL     1       1.045   9.852  19.504  0.00  0.00    +0.000 C 
ATOM      3  C   UNL     1       1.164   8.695  20.600  0.00  0.00    +0.000 C 
ATOM      4  C   UNL     1       0.054   8.931  21.573  0.00  0.00    +0.000 C 
ATOM      5  C   UNL     1      -0.246  10.393  21.924  0.00  0.00    +0.000 C 
ATOM      6  O   UNL     1      -0.607  11.109  20.747  0.00  0.00    +0.000 OA
ENDROOT
BRANCH   3   7
ATOM      7  C   UNL     1       1.398   7.039  20.511  0.00  0.00    +0.000 A 
ATOM      8  C   UNL     1       2.684   7.101  19.864  0.00  0.00    +0.000 A 
ATOM      9  S   UNL     1       2.274   6.513  18.251  0.00  0.00    +0.000 S 
ATOM     10  C   UNL     1       2.071   5.027  19.095  0.00  0.00    +0.000 A 
ATOM     11  C   UNL     1       2.395   3.705  18.666  0.00  0.00    +0.000 A 
ATOM     12  C   UNL     1       2.422   2.663  19.584  0.00  0.00    +0.000 A 
ATOM     13  C   UNL     1       2.050   2.927  20.890  0.00  0.00    +0.000 A 
ATOM     14  C   UNL     1       1.620   4.261  21.289  0.00  0.00    +0.000 A 
ATOM     15  C   UNL     1       1.641   5.417  20.363  0.00  0.00    +0.000 A 
ENDBRANCH   3   7
BRANCH   1  17
ATOM     16  O   UNL     1      -0.304  12.598  17.966  0.00  0.00    +0.000 OA
ATOM     17  C   UNL     1       0.409  12.393  18.944  0.00  0.00    +0.000 C 
ATOM     18  N   UNL     1       1.439  13.221  19.378  0.00  0.00    +0.000 N 
ATOM     19  H   UNL     1       2.073  12.819  20.036  0.00  0.00    +0.000 HD
BRANCH  18  20
ATOM     20  C   UNL     1       1.860  14.464  18.775  0.00  0.00    +0.000 A 
ATOM     21  C   UNL     1       3.048  14.446  18.022  0.00  0.00    +0.000 A 
ATOM     22  C   UNL     1       3.531  15.613  17.387  0.00  0.00    +0.000 A 
ATOM     23  C   UNL     1       2.858  16.813  17.536  0.00  0.00    +0.000 A 
ATOM     24  C   UNL     1       1.689  16.852  18.289  0.00  0.00    +0.000 A 
ATOM     25  C   UNL     1       1.185  15.681  18.898  0.00  0.00    +0.000 A 
ENDBRANCH  18  20
ENDBRANCH   1  17
BRANCH   5  26
ATOM     26  O   UNL     1      -1.353  10.449  22.849  0.00  0.00    +0.000 OA
BRANCH  26  27
ATOM     27  C   UNL     1      -1.544  11.769  23.332  0.00  0.00    +0.000 C 
BRANCH  27  28
ATOM     28  C   UNL     1      -2.924  12.310  23.219  0.00  0.00    +0.000 A 
ATOM     29  C   UNL     1      -3.712  12.273  24.373  0.00  0.00    +0.000 A 
ATOM     30  C   UNL     1      -5.071  12.523  24.288  0.00  0.00    +0.000 A 
ATOM     31  C   UNL     1      -5.651  12.828  23.049  0.00  0.00    +0.000 A 
ATOM     32  C   UNL     1      -4.864  12.789  21.887  0.00  0.00    +0.000 A 
ATOM     33  C   UNL     1      -3.502  12.535  21.970  0.00  0.00    +0.000 A 
BRANCH  31  34
ATOM     34  C   UNL     1      -7.106  13.204  23.031  0.00  0.00    +0.000 C 
BRANCH  34  35
ATOM     35  O   UNL     1      -7.854  12.541  24.039  0.00  0.00    +0.000 OA
ATOM     36  H   UNL     1      -8.757  12.444  23.690  0.00  0.00    +0.000 HD
ENDBRANCH  34  35
ENDBRANCH  31  34
ENDBRANCH  27  28
ENDBRANCH  26  27
ENDBRANCH   5  26
TORSDOF 8
ENDMDL
MODEL 9
REMARK VINA RESULT:      -7.5      0.835      1.419
REMARK  Name = 
REMARK  8 active torsions:
REMARK  status: ('A' for Active; 'I' for Inactive)
REMARK    1  A    between atoms: C_2  and  C_10
REMARK    2  A    between atoms: N_3  and  C_4
REMARK    3  A    between atoms: C_12  and  C_13
REMARK    4  A    between atoms: C_23  and  O_24
REMARK    5  A    between atoms: O_24  and  C_25
REMARK    6  A    between atoms: C_25  and  C_26
REMARK    7  A    between atoms: C_29  and  C_30
REMARK    8  A    between atoms: C_30  and  O_31
REMARK                            x       y       z     vdW  Elec       q    Type
REMARK                         _______ _______ _______ _____ _____    ______ ____
ROOT
ATOM      1  C   UNL     1       0.409  10.360  20.637  0.00  0.00    +0.000 C 
ATOM      2  C   UNL     1       1.293   9.297  20.498  0.00  0.00    +0.000 C 
ATOM      3  C   UNL     1       1.440   8.456  19.146  0.00  0.00    +0.000 C 
ATOM      4  C   UNL     1       0.781   9.270  18.079  0.00  0.00    +0.000 C 
ATOM      5  C   UNL     1      -0.505  10.003  18.476  0.00  0.00    +0.000 C 
ATOM      6  O   UNL     1      -0.236  10.911  19.541  0.00  0.00    +0.000 OA
ENDROOT
BRANCH   3   7
ATOM      7  C   UNL     1       2.712   7.638  18.428  0.00  0.00    +0.000 A 
ATOM      8  C   UNL     1       2.089   6.338  18.450  0.00  0.00    +0.000 A 
ATOM      9  S   UNL     1       3.062   5.524  19.678  0.00  0.00    +0.000 S 
ATOM     10  C   UNL     1       4.269   5.618  18.454  0.00  0.00    +0.000 A 
ATOM     11  C   UNL     1       5.271   4.660  18.114  0.00  0.00    +0.000 A 
ATOM     12  C   UNL     1       5.975   4.783  16.922  0.00  0.00    +0.000 A 
ATOM     13  C   UNL     1       5.734   5.890  16.128  0.00  0.00    +0.000 A 
ATOM     14  C   UNL     1       4.783   6.914  16.541  0.00  0.00    +0.000 A 
ATOM     15  C   UNL     1       3.961   6.791  17.767  0.00  0.00    +0.000 A 
ENDBRANCH   3   7
BRANCH   1  17
ATOM     16  O   UNL     1       0.073  10.421  23.038  0.00  0.00    +0.000 OA
ATOM     17  C   UNL     1      -0.172  10.984  21.975  0.00  0.00    +0.000 C 
ATOM     18  N   UNL     1      -1.047  12.053  21.811  0.00  0.00    +0.000 N 
ATOM     19  H   UNL     1      -1.319  12.253  20.872  0.00  0.00    +0.000 HD
BRANCH  18  20
ATOM     20  C   UNL     1      -1.823  12.699  22.844  0.00  0.00    +0.000 A 
ATOM     21  C   UNL     1      -1.304  13.884  23.396  0.00  0.00    +0.000 A 
ATOM     22  C   UNL     1      -2.000  14.588  24.404  0.00  0.00    +0.000 A 
ATOM     23  C   UNL     1      -3.193  14.093  24.901  0.00  0.00    +0.000 A 
ATOM     24  C   UNL     1      -3.714  12.914  24.376  0.00  0.00    +0.000 A 
ATOM     25  C   UNL     1      -3.038  12.224  23.345  0.00  0.00    +0.000 A 
ENDBRANCH  18  20
ENDBRANCH   1  17
BRANCH   5  26
ATOM     26  O   UNL     1      -0.998  10.758  17.348  0.00  0.00    +0.000 OA
BRANCH  26  27
ATOM     27  C   UNL     1      -2.314  10.356  17.005  0.00  0.00    +0.000 C 
BRANCH  27  28
ATOM     28  C   UNL     1      -3.407  11.267  17.439  0.00  0.00    +0.000 A 
ATOM     29  C   UNL     1      -3.383  11.689  18.771  0.00  0.00    +0.000 A 
ATOM     30  C   UNL     1      -4.486  12.326  19.312  0.00  0.00    +0.000 A 
ATOM     31  C   UNL     1      -5.619  12.561  18.519  0.00  0.00    +0.000 A 
ATOM     32  C   UNL     1      -5.660  12.066  17.206  0.00  0.00    +0.000 A 
ATOM     33  C   UNL     1      -4.555  11.423  16.663  0.00  0.00    +0.000 A 
BRANCH  31  34
ATOM     34  C   UNL     1      -6.741  13.358  19.121  0.00  0.00    +0.000 C 
BRANCH  34  35
ATOM     35  O   UNL     1      -6.641  13.464  20.533  0.00  0.00    +0.000 OA
ATOM     36  H   UNL     1      -6.645  12.555  20.876  0.00  0.00    +0.000 HD
ENDBRANCH  34  35
ENDBRANCH  31  34
ENDBRANCH  27  28
ENDBRANCH  26  27
ENDBRANCH   5  26
TORSDOF 8
ENDMDL
