MODEL 1
REMARK VINA RESULT:      -6.5      0.000      0.000
REMARK  Name = 
REMARK  4 active torsions:
REMARK  status: ('A' for Active; 'I' for Inactive)
REMARK    1  A    between atoms: C_1  and  O_2
REMARK    2  A    between atoms: O_2  and  C_3
REMARK    3  A    between atoms: N_10  and  C_11
REMARK    4  A    between atoms: C_11  and  C_12
REMARK                            x       y       z     vdW  Elec       q    Type
REMARK                         _______ _______ _______ _____ _____    ______ ____
ROOT
ATOM      1  C   UNL     1       2.250   6.624  19.763  0.00  0.00    +0.000 A 
ATOM      2  C   UNL     1       1.835   5.562  20.570  0.00  0.00    +0.000 A 
ATOM      3  C   UNL     1       2.200   4.243  20.257  0.00  0.00    +0.000 A 
ATOM      4 BR   UNL     1       1.630   2.827  21.373  0.00  0.00    +0.000 Br
ATOM      5  C   UNL     1       2.987   3.998  19.120  0.00  0.00    +0.000 A 
ATOM      6  N   UNL     1       3.490   2.836  18.588  0.00  0.00    +0.000 NA
ATOM      7  N   UNL     1       4.197   3.147  17.507  0.00  0.00    +0.000 NA
ATOM      8  N   UNL     1       4.138   4.483  17.352  0.00  0.00    +0.000 N 
ATOM      9  C   UNL     1       3.381   5.073  18.333  0.00  0.00    +0.000 A 
ATOM     10  C   UNL     1       3.024   6.395  18.618  0.00  0.00    +0.000 A 
ENDROOT
BRANCH   1  12
ATOM     11  C   UNL     1       1.231   8.238  21.171  0.00  0.00    +0.000 C 
ATOM     12  O   UNL     1       1.931   7.942  19.969  0.00  0.00    +0.000 OA
ENDBRANCH   1  12
BRANCH   8  13
ATOM     13  C   UNL     1       4.945   5.138  16.341  0.00  0.00    +0.000 C 
BRANCH  13  14
ATOM     14  C   UNL     1       5.856   4.201  15.605  0.00  0.00    +0.000 C 
ATOM     15  C   UNL     1       5.872   4.072  14.100  0.00  0.00    +0.000 C 
ATOM     16  C   UNL     1       6.998   4.775  14.801  0.00  0.00    +0.000 C 
ENDBRANCH  13  14
ENDBRANCH   8  13
TORSDOF 3
ENDMDL
MODEL 2
REMARK VINA RESULT:      -6.4      3.285      5.615
REMARK  Name = 
REMARK  4 active torsions:
REMARK  status: ('A' for Active; 'I' for Inactive)
REMARK    1  A    between atoms: C_1  and  O_2
REMARK    2  A    between atoms: O_2  and  C_3
REMARK    3  A    between atoms: N_10  and  C_11
REMARK    4  A    between atoms: C_11  and  C_12
REMARK                            x       y       z     vdW  Elec       q    Type
REMARK                         _______ _______ _______ _____ _____    ______ ____
ROOT
ATOM      1  C   UNL     1       7.040   6.103  17.812  0.00  0.00    +0.000 A 
ATOM      2  C   UNL     1       7.099   5.679  16.482  0.00  0.00    +0.000 A 
ATOM      3  C   UNL     1       6.173   4.748  15.988  0.00  0.00    +0.000 A 
ATOM      4 BR   UNL     1       6.274   4.200  14.180  0.00  0.00    +0.000 Br
ATOM      5  C   UNL     1       5.182   4.241  16.844  0.00  0.00    +0.000 A 
ATOM      6  N   UNL     1       4.161   3.346  16.635  0.00  0.00    +0.000 NA
ATOM      7  N   UNL     1       3.483   3.218  17.770  0.00  0.00    +0.000 NA
ATOM      8  N   UNL     1       4.067   4.014  18.686  0.00  0.00    +0.000 N 
ATOM      9  C   UNL     1       5.149   4.676  18.163  0.00  0.00    +0.000 A 
ATOM     10  C   UNL     1       6.066   5.596  18.683  0.00  0.00    +0.000 A 
ENDROOT
BRANCH   1  12
ATOM     11  C   UNL     1       7.974   8.283  17.811  0.00  0.00    +0.000 C 
ATOM     12  O   UNL     1       7.908   6.988  18.397  0.00  0.00    +0.000 OA
ENDBRANCH   1  12
BRANCH   8  13
ATOM     13  C   UNL     1       3.454   4.204  19.986  0.00  0.00    +0.000 C 
BRANCH  13  14
ATOM     14  C   UNL     1       2.479   3.124  20.351  0.00  0.00    +0.000 C 
ATOM     15  C   UNL     1       1.849   3.003  21.718  0.00  0.00    +0.000 C 
ATOM     16  C   UNL     1       1.029   3.489  20.558  0.00  0.00    +0.000 C 
ENDBRANCH  13  14
ENDBRANCH   8  13
TORSDOF 3
ENDMDL
MODEL 3
REMARK VINA RESULT:      -6.4      3.779      5.859
REMARK  Name = 
REMARK  4 active torsions:
REMARK  status: ('A' for Active; 'I' for Inactive)
REMARK    1  A    between atoms: C_1  and  O_2
REMARK    2  A    between atoms: O_2  and  C_3
REMARK    3  A    between atoms: N_10  and  C_11
REMARK    4  A    between atoms: C_11  and  C_12
REMARK                            x       y       z     vdW  Elec       q    Type
REMARK                         _______ _______ _______ _____ _____    ______ ____
ROOT
ATOM      1  C   UNL     1       6.405   4.369  15.255  0.00  0.00    +0.000 A 
ATOM      2  C   UNL     1       7.039   5.509  15.756  0.00  0.00    +0.000 A 
ATOM      3  C   UNL     1       6.762   5.968  17.053  0.00  0.00    +0.000 A 
ATOM      4 BR   UNL     1       7.642   7.509  17.706  0.00  0.00    +0.000 Br
ATOM      5  C   UNL     1       5.837   5.270  17.848  0.00  0.00    +0.000 A 
ATOM      6  N   UNL     1       5.389   5.480  19.129  0.00  0.00    +0.000 NA
ATOM      7  N   UNL     1       4.525   4.517  19.429  0.00  0.00    +0.000 NA
ATOM      8  N   UNL     1       4.422   3.712  18.354  0.00  0.00    +0.000 N 
ATOM      9  C   UNL     1       5.219   4.143  17.323  0.00  0.00    +0.000 A 
ATOM     10  C   UNL     1       5.470   3.670  16.030  0.00  0.00    +0.000 A 
ENDROOT
BRANCH   1  12
ATOM     11  C   UNL     1       5.427   3.763  13.181  0.00  0.00    +0.000 C 
ATOM     12  O   UNL     1       6.588   3.853  13.998  0.00  0.00    +0.000 OA
ENDBRANCH   1  12
BRANCH   8  13
ATOM     13  C   UNL     1       3.666   2.478  18.435  0.00  0.00    +0.000 C 
BRANCH  13  14
ATOM     14  C   UNL     1       2.301   2.572  17.818  0.00  0.00    +0.000 C 
ATOM     15  C   UNL     1       1.027   2.610  18.627  0.00  0.00    +0.000 C 
ATOM     16  C   UNL     1       1.524   3.859  17.960  0.00  0.00    +0.000 C 
ENDBRANCH  13  14
ENDBRANCH   8  13
TORSDOF 3
ENDMDL
MODEL 4
REMARK VINA RESULT:      -6.4      2.949      3.801
REMARK  Name = 
REMARK  4 active torsions:
REMARK  status: ('A' for Active; 'I' for Inactive)
REMARK    1  A    between atoms: C_1  and  O_2
REMARK    2  A    between atoms: O_2  and  C_3
REMARK    3  A    between atoms: N_10  and  C_11
REMARK    4  A    between atoms: C_11  and  C_12
REMARK                            x       y       z     vdW  Elec       q    Type
REMARK                         _______ _______ _______ _____ _____    ______ ____
ROOT
ATOM      1  C   UNL     1       2.800   3.486  17.638  0.00  0.00    +0.000 A 
ATOM      2  C   UNL     1       2.394   4.708  18.180  0.00  0.00    +0.000 A 
ATOM      3  C   UNL     1       3.117   5.882  17.914  0.00  0.00    +0.000 A 
ATOM      4 BR   UNL     1       2.538   7.522  18.656  0.00  0.00    +0.000 Br
ATOM      5  C   UNL     1       4.257   5.819  17.096  0.00  0.00    +0.000 A 
ATOM      6  N   UNL     1       5.131   6.787  16.668  0.00  0.00    +0.000 NA
ATOM      7  N   UNL     1       6.037   6.211  15.886  0.00  0.00    +0.000 NA
ATOM      8  N   UNL     1       5.746   4.898  15.823  0.00  0.00    +0.000 N 
ATOM      9  C   UNL     1       4.640   4.590  16.574  0.00  0.00    +0.000 A 
ATOM     10  C   UNL     1       3.943   3.404  16.831  0.00  0.00    +0.000 A 
ENDROOT
BRANCH   1  12
ATOM     11  C   UNL     1       1.133   2.280  18.818  0.00  0.00    +0.000 C 
ATOM     12  O   UNL     1       2.180   2.283  17.854  0.00  0.00    +0.000 OA
ENDBRANCH   1  12
BRANCH   8  13
ATOM     13  C   UNL     1       6.472   4.031  14.916  0.00  0.00    +0.000 C 
BRANCH  13  14
ATOM     14  C   UNL     1       6.211   4.329  13.469  0.00  0.00    +0.000 C 
ATOM     15  C   UNL     1       6.511   3.354  12.355  0.00  0.00    +0.000 C 
ATOM     16  C   UNL     1       5.089   3.604  12.765  0.00  0.00    +0.000 C 
ENDBRANCH  13  14
ENDBRANCH   8  13
TORSDOF 3
ENDMDL
MODEL 5
REMARK VINA RESULT:      -6.3      3.637      4.396
REMARK  Name = 
REMARK  4 active torsions:
REMARK  status: ('A' for Active; 'I' for Inactive)
REMARK    1  A    between atoms: C_1  and  O_2
REMARK    2  A    between atoms: O_2  and  C_3
REMARK    3  A    between atoms: N_10  and  C_11
REMARK    4  A    between atoms: C_11  and  C_12
REMARK                            x       y       z     vdW  Elec       q    Type
REMARK                         _______ _______ _______ _____ _____    ______ ____
ROOT
ATOM      1  C   UNL     1       4.486   3.768  18.186  0.00  0.00    +0.000 A 
ATOM      2  C   UNL     1       5.450   4.394  18.981  0.00  0.00    +0.000 A 
ATOM      3  C   UNL     1       6.545   5.047  18.393  0.00  0.00    +0.000 A 
ATOM      4 BR   UNL     1       7.828   5.892  19.495  0.00  0.00    +0.000 Br
ATOM      5  C   UNL     1       6.667   5.065  16.994  0.00  0.00    +0.000 A 
ATOM      6  N   UNL     1       7.607   5.623  16.164  0.00  0.00    +0.000 NA
ATOM      7  N   UNL     1       7.252   5.374  14.908  0.00  0.00    +0.000 NA
ATOM      8  N   UNL     1       6.108   4.664  14.941  0.00  0.00    +0.000 N 
ATOM      9  C   UNL     1       5.696   4.430  16.229  0.00  0.00    +0.000 A 
ATOM     10  C   UNL     1       4.600   3.765  16.790  0.00  0.00    +0.000 A 
ENDROOT
BRANCH   1  12
ATOM     11  C   UNL     1       3.420   2.744  20.041  0.00  0.00    +0.000 C 
ATOM     12  O   UNL     1       3.395   3.087  18.661  0.00  0.00    +0.000 OA
ENDBRANCH   1  12
BRANCH   8  13
ATOM     13  C   UNL     1       5.392   4.375  13.714  0.00  0.00    +0.000 C 
BRANCH  13  14
ATOM     14  C   UNL     1       5.956   3.213  12.952  0.00  0.00    +0.000 C 
ATOM     15  C   UNL     1       5.441   2.778  11.601  0.00  0.00    +0.000 C 
ATOM     16  C   UNL     1       6.763   3.482  11.704  0.00  0.00    +0.000 C 
ENDBRANCH  13  14
ENDBRANCH   8  13
TORSDOF 3
ENDMDL
MODEL 6
REMARK VINA RESULT:      -6.3      2.596      4.668
REMARK  Name = 
REMARK  4 active torsions:
REMARK  status: ('A' for Active; 'I' for Inactive)
REMARK    1  A    between atoms: C_1  and  O_2
REMARK    2  A    between atoms: O_2  and  C_3
REMARK    3  A    between atoms: N_10  and  C_11
REMARK    4  A    between atoms: C_11  and  C_12
REMARK                            x       y       z     vdW  Elec       q    Type
REMARK                         _______ _______ _______ _____ _____    ______ ____
ROOT
ATOM      1  C   UNL     1       3.389   7.145  17.593  0.00  0.00    +0.000 A 
ATOM      2  C   UNL     1       4.578   6.795  16.948  0.00  0.00    +0.000 A 
ATOM      3  C   UNL     1       4.968   5.450  16.851  0.00  0.00    +0.000 A 
ATOM      4 BR   UNL     1       6.579   5.008  15.965  0.00  0.00    +0.000 Br
ATOM      5  C   UNL     1       4.153   4.454  17.411  0.00  0.00    +0.000 A 
ATOM      6  N   UNL     1       4.277   3.087  17.457  0.00  0.00    +0.000 NA
ATOM      7  N   UNL     1       3.217   2.595  18.088  0.00  0.00    +0.000 NA
ATOM      8  N   UNL     1       2.435   3.633  18.442  0.00  0.00    +0.000 N 
ATOM      9  C   UNL     1       2.978   4.830  18.051  0.00  0.00    +0.000 A 
ATOM     10  C   UNL     1       2.570   6.164  18.168  0.00  0.00    +0.000 A 
ENDROOT
BRANCH   1  12
ATOM     11  C   UNL     1       1.822   8.587  18.638  0.00  0.00    +0.000 C 
ATOM     12  O   UNL     1       2.930   8.425  17.760  0.00  0.00    +0.000 OA
ENDBRANCH   1  12
BRANCH   8  13
ATOM     13  C   UNL     1       1.123   3.398  19.013  0.00  0.00    +0.000 C 
BRANCH  13  14
ATOM     14  C   UNL     1       1.051   3.691  20.483  0.00  0.00    +0.000 C 
ATOM     15  C   UNL     1       1.361   2.667  21.549  0.00  0.00    +0.000 C 
ATOM     16  C   UNL     1       2.334   3.776  21.274  0.00  0.00    +0.000 C 
ENDBRANCH  13  14
ENDBRANCH   8  13
TORSDOF 3
ENDMDL
MODEL 7
REMARK VINA RESULT:      -6.2      1.451      1.791
REMARK  Name = 
REMARK  4 active torsions:
REMARK  status: ('A' for Active; 'I' for Inactive)
REMARK    1  A    between atoms: C_1  and  O_2
REMARK    2  A    between atoms: O_2  and  C_3
REMARK    3  A    between atoms: N_10  and  C_11
REMARK    4  A    between atoms: C_11  and  C_12
REMARK                            x       y       z     vdW  Elec       q    Type
REMARK                         _______ _______ _______ _____ _____    ______ ____
ROOT
ATOM      1  C   UNL     1       2.255   6.882  19.794  0.00  0.00    +0.000 A 
ATOM      2  C   UNL     1       1.933   5.742  20.536  0.00  0.00    +0.000 A 
ATOM      3  C   UNL     1       2.521   4.504  20.233  0.00  0.00    +0.000 A 
ATOM      4 BR   UNL     1       2.070   2.982  21.261  0.00  0.00    +0.000 Br
ATOM      5  C   UNL     1       3.439   4.417  19.174  0.00  0.00    +0.000 A 
ATOM      6  N   UNL     1       4.160   3.363  18.672  0.00  0.00    +0.000 NA
ATOM      7  N   UNL     1       4.909   3.812  17.671  0.00  0.00    +0.000 NA
ATOM      8  N   UNL     1       4.663   5.129  17.537  0.00  0.00    +0.000 N 
ATOM      9  C   UNL     1       3.738   5.565  18.451  0.00  0.00    +0.000 A 
ATOM     10  C   UNL     1       3.159   6.810  18.726  0.00  0.00    +0.000 A 
ENDROOT
BRANCH   1  12
ATOM     11  C   UNL     1       1.050   8.335  21.230  0.00  0.00    +0.000 C 
ATOM     12  O   UNL     1       1.722   8.129  19.993  0.00  0.00    +0.000 OA
ENDBRANCH   1  12
BRANCH   8  13
ATOM     13  C   UNL     1       5.453   5.931  16.622  0.00  0.00    +0.000 C 
BRANCH  13  14
ATOM     14  C   UNL     1       6.903   6.012  16.998  0.00  0.00    +0.000 C 
ATOM     15  C   UNL     1       7.560   7.278  17.495  0.00  0.00    +0.000 C 
ATOM     16  C   UNL     1       7.271   6.160  18.455  0.00  0.00    +0.000 C 
ENDBRANCH  13  14
ENDBRANCH   8  13
TORSDOF 3
ENDMDL
MODEL 8
REMARK VINA RESULT:      -6.1      3.036      4.759
REMARK  Name = 
REMARK  4 active torsions:
REMARK  status: ('A' for Active; 'I' for Inactive)
REMARK    1  A    between atoms: C_1  and  O_2
REMARK    2  A    between atoms: O_2  and  C_3
REMARK    3  A    between atoms: N_10  and  C_11
REMARK    4  A    between atoms: C_11  and  C_12
REMARK                            x       y       z     vdW  Elec       q    Type
REMARK                         _______ _______ _______ _____ _____    ______ ____
ROOT
ATOM      1  C   UNL     1       3.458   7.190  17.564  0.00  0.00    +0.000 A 
ATOM      2  C   UNL     1       4.844   7.355  17.503  0.00  0.00    +0.000 A 
ATOM      3  C   UNL     1       5.704   6.345  17.963  0.00  0.00    +0.000 A 
ATOM      4 BR   UNL     1       7.576   6.595  17.859  0.00  0.00    +0.000 Br
ATOM      5  C   UNL     1       5.159   5.163  18.489  0.00  0.00    +0.000 A 
ATOM      6  N   UNL     1       5.747   4.029  18.992  0.00  0.00    +0.000 NA
ATOM      7  N   UNL     1       4.784   3.184  19.344  0.00  0.00    +0.000 NA
ATOM      8  N   UNL     1       3.605   3.774  19.073  0.00  0.00    +0.000 N 
ATOM      9  C   UNL     1       3.778   5.027  18.542  0.00  0.00    +0.000 A 
ATOM     10  C   UNL     1       2.899   6.022  18.098  0.00  0.00    +0.000 A 
ENDROOT
BRANCH   1  12
ATOM     11  C   UNL     1       1.871   8.834  18.199  0.00  0.00    +0.000 C 
ATOM     12  O   UNL     1       2.535   8.120  17.163  0.00  0.00    +0.000 OA
ENDBRANCH   1  12
BRANCH   8  13
ATOM     13  C   UNL     1       2.367   3.030  19.206  0.00  0.00    +0.000 C 
BRANCH  13  14
ATOM     14  C   UNL     1       1.542   3.451  20.386  0.00  0.00    +0.000 C 
ATOM     15  C   UNL     1       1.365   2.599  21.620  0.00  0.00    +0.000 C 
ATOM     16  C   UNL     1       2.242   3.816  21.673  0.00  0.00    +0.000 C 
ENDBRANCH  13  14
ENDBRANCH   8  13
TORSDOF 3
ENDMDL
MODEL 9
REMARK VINA RESULT:      -6.1      3.399      4.605
REMARK  Name = 
REMARK  4 active torsions:
REMARK  status: ('A' for Active; 'I' for Inactive)
REMARK    1  A    between atoms: C_1  and  O_2
REMARK    2  A    between atoms: O_2  and  C_3
REMARK    3  A    between atoms: N_10  and  C_11
REMARK    4  A    between atoms: C_11  and  C_12
REMARK                            x       y       z     vdW  Elec       q    Type
REMARK                         _______ _______ _______ _____ _____    ______ ____
ROOT
ATOM      1  C   UNL     1       4.522   5.125  17.940  0.00  0.00    +0.000 A 
ATOM      2  C   UNL     1       5.472   6.109  18.227  0.00  0.00    +0.000 A 
ATOM      3  C   UNL     1       6.526   6.365  17.336  0.00  0.00    +0.000 A 
ATOM      4 BR   UNL     1       7.791   7.709  17.748  0.00  0.00    +0.000 Br
ATOM      5  C   UNL     1       6.621   5.620  16.149  0.00  0.00    +0.000 A 
ATOM      6  N   UNL     1       7.520   5.660  15.112  0.00  0.00    +0.000 NA
ATOM      7  N   UNL     1       7.154   4.757  14.210  0.00  0.00    +0.000 NA
ATOM      8  N   UNL     1       6.044   4.149  14.669  0.00  0.00    +0.000 N 
ATOM      9  C   UNL     1       5.666   4.645  15.891  0.00  0.00    +0.000 A 
ATOM     10  C   UNL     1       4.611   4.364  16.767  0.00  0.00    +0.000 A 
ENDROOT
BRANCH   1  12
ATOM     11  C   UNL     1       2.172   4.920  18.187  0.00  0.00    +0.000 C 
ATOM     12  O   UNL     1       3.471   4.783  18.751  0.00  0.00    +0.000 OA
ENDBRANCH   1  12
BRANCH   8  13
ATOM     13  C   UNL     1       5.318   3.219  13.826  0.00  0.00    +0.000 C 
BRANCH  13  14
ATOM     14  C   UNL     1       5.618   3.377  12.365  0.00  0.00    +0.000 C 
ATOM     15  C   UNL     1       5.605   2.227  11.387  0.00  0.00    +0.000 C 
ATOM     16  C   UNL     1       4.492   3.234  11.370  0.00  0.00    +0.000 C 
ENDBRANCH  13  14
ENDBRANCH   8  13
TORSDOF 3
ENDMDL
