MODEL 1
REMARK VINA RESULT:      -7.4      0.000      0.000
REMARK  Name = 
REMARK  4 active torsions:
REMARK  status: ('A' for Active; 'I' for Inactive)
REMARK    1  A    between atoms: C_1  and  C_2
REMARK    2  A    between atoms: C_10  and  C_11
REMARK    3  A    between atoms: N_15  and  C_16
REMARK    4  A    between atoms: C_16  and  C_17
REMARK                            x       y       z     vdW  Elec       q    Type
REMARK                         _______ _______ _______ _____ _____    ______ ____
ROOT
ATOM      1  C   UNL     1       5.257   5.191  18.439  0.00  0.00    +0.000 A 
ATOM      2  C   UNL     1       6.357   5.291  19.264  0.00  0.00    +0.000 A 
ATOM      3  S   UNL     1       7.791   5.059  18.364  0.00  0.00    +0.000 S 
ATOM      4  C   UNL     1       6.855   4.891  16.929  0.00  0.00    +0.000 A 
ATOM      5  N   UNL     1       7.490   4.703  15.748  0.00  0.00    +0.000 N 
ATOM      6  N   UNL     1       5.553   4.944  17.108  0.00  0.00    +0.000 NA
ATOM      7  H   UNL     1       8.500   4.804  15.794  0.00  0.00    +0.000 HD
ENDROOT
BRANCH   1  17
ATOM      8  C   UNL     1       3.098   7.604  17.933  0.00  0.00    +0.000 C 
ATOM      9  C   UNL     1       2.963   6.359  18.724  0.00  0.00    +0.000 A 
ATOM     10  N   UNL     1       1.758   6.095  19.334  0.00  0.00    +0.000 NA
ATOM     11  C   UNL     1       1.878   4.913  19.898  0.00  0.00    +0.000 A 
ATOM     12  N   UNL     1       0.950   4.234  20.636  0.00  0.00    +0.000 NA
ATOM     13  C   UNL     1       1.336   3.100  21.133  0.00  0.00    +0.000 A 
ATOM     14  C   UNL     1       2.677   2.475  20.978  0.00  0.00    +0.000 A 
ATOM     15  C   UNL     1       3.542   3.169  20.225  0.00  0.00    +0.000 A 
ATOM     16  N   UNL     1       3.151   4.386  19.670  0.00  0.00    +0.000 N 
ATOM     17  C   UNL     1       3.850   5.311  18.922  0.00  0.00    +0.000 A 
ENDBRANCH   1  17
BRANCH   5  18
ATOM     18  C   UNL     1       6.951   5.345  14.560  0.00  0.00    +0.000 C 
BRANCH  18  19
ATOM     19  C   UNL     1       6.522   4.393  13.492  0.00  0.00    +0.000 A 
ATOM     20  C   UNL     1       5.390   3.629  13.300  0.00  0.00    +0.000 A 
ATOM     21  C   UNL     1       5.581   2.928  12.086  0.00  0.00    +0.000 A 
ATOM     22  C   UNL     1       6.813   3.314  11.608  0.00  0.00    +0.000 A 
ATOM     23  O   UNL     1       7.388   4.209  12.450  0.00  0.00    +0.000 OA
ENDBRANCH  18  19
ENDBRANCH   5  18
TORSDOF 3
ENDMDL
MODEL 2
REMARK VINA RESULT:      -7.3      3.813      7.877
REMARK  Name = 
REMARK  4 active torsions:
REMARK  status: ('A' for Active; 'I' for Inactive)
REMARK    1  A    between atoms: C_1  and  C_2
REMARK    2  A    between atoms: C_10  and  C_11
REMARK    3  A    between atoms: N_15  and  C_16
REMARK    4  A    between atoms: C_16  and  C_17
REMARK                            x       y       z     vdW  Elec       q    Type
REMARK                         _______ _______ _______ _____ _____    ______ ____
ROOT
ATOM      1  C   UNL     1       4.421   4.866  18.732  0.00  0.00    +0.000 A 
ATOM      2  C   UNL     1       3.719   3.694  18.916  0.00  0.00    +0.000 A 
ATOM      3  S   UNL     1       2.364   3.971  19.920  0.00  0.00    +0.000 S 
ATOM      4  C   UNL     1       2.774   5.642  20.001  0.00  0.00    +0.000 A 
ATOM      5  N   UNL     1       1.972   6.483  20.696  0.00  0.00    +0.000 N 
ATOM      6  N   UNL     1       3.882   5.970  19.372  0.00  0.00    +0.000 NA
ATOM      7  H   UNL     1       1.104   6.065  21.018  0.00  0.00    +0.000 HD
ENDROOT
BRANCH   1  17
ATOM      8  C   UNL     1       7.461   5.575  19.730  0.00  0.00    +0.000 C 
ATOM      9  C   UNL     1       6.949   5.294  18.368  0.00  0.00    +0.000 A 
ATOM     10  N   UNL     1       7.842   5.273  17.323  0.00  0.00    +0.000 NA
ATOM     11  C   UNL     1       7.156   4.932  16.254  0.00  0.00    +0.000 A 
ATOM     12  N   UNL     1       7.606   4.796  14.971  0.00  0.00    +0.000 NA
ATOM     13  C   UNL     1       6.710   4.500  14.081  0.00  0.00    +0.000 A 
ATOM     14  C   UNL     1       5.256   4.296  14.321  0.00  0.00    +0.000 A 
ATOM     15  C   UNL     1       4.871   4.415  15.599  0.00  0.00    +0.000 A 
ATOM     16  N   UNL     1       5.813   4.723  16.578  0.00  0.00    +0.000 N 
ATOM     17  C   UNL     1       5.677   4.958  17.931  0.00  0.00    +0.000 A 
ENDBRANCH   1  17
BRANCH   5  18
ATOM     18  C   UNL     1       1.750   7.821  20.173  0.00  0.00    +0.000 C 
BRANCH  18  19
ATOM     19  C   UNL     1       0.985   8.717  21.091  0.00  0.00    +0.000 A 
ATOM     20  C   UNL     1       1.091   9.015  22.433  0.00  0.00    +0.000 A 
ATOM     21  C   UNL     1       0.063   9.946  22.720  0.00  0.00    +0.000 A 
ATOM     22  C   UNL     1      -0.600  10.164  21.533  0.00  0.00    +0.000 A 
ATOM     23  O   UNL     1      -0.043   9.428  20.537  0.00  0.00    +0.000 OA
ENDBRANCH  18  19
ENDBRANCH   5  18
TORSDOF 3
ENDMDL
MODEL 3
REMARK VINA RESULT:      -7.0      4.752      7.975
REMARK  Name = 
REMARK  4 active torsions:
REMARK  status: ('A' for Active; 'I' for Inactive)
REMARK    1  A    between atoms: C_1  and  C_2
REMARK    2  A    between atoms: C_10  and  C_11
REMARK    3  A    between atoms: N_15  and  C_16
REMARK    4  A    between atoms: C_16  and  C_17
REMARK                            x       y       z     vdW  Elec       q    Type
REMARK                         _______ _______ _______ _____ _____    ______ ____
ROOT
ATOM      1  C   UNL     1       3.048   6.604  18.743  0.00  0.00    +0.000 A 
ATOM      2  C   UNL     1       3.360   7.418  17.676  0.00  0.00    +0.000 A 
ATOM      3  S   UNL     1       2.518   8.900  17.800  0.00  0.00    +0.000 S 
ATOM      4  C   UNL     1       1.833   8.379  19.291  0.00  0.00    +0.000 A 
ATOM      5  N   UNL     1       1.017   9.219  19.970  0.00  0.00    +0.000 N 
ATOM      6  N   UNL     1       2.160   7.156  19.652  0.00  0.00    +0.000 NA
ATOM      7  H   UNL     1       0.974  10.161  19.590  0.00  0.00    +0.000 HD
ENDROOT
BRANCH   1  17
ATOM      8  C   UNL     1       6.144   5.651  19.241  0.00  0.00    +0.000 C 
ATOM      9  C   UNL     1       4.913   4.840  19.092  0.00  0.00    +0.000 A 
ATOM     10  N   UNL     1       5.008   3.473  19.209  0.00  0.00    +0.000 NA
ATOM     11  C   UNL     1       3.782   3.006  19.113  0.00  0.00    +0.000 A 
ATOM     12  N   UNL     1       3.372   1.703  19.151  0.00  0.00    +0.000 NA
ATOM     13  C   UNL     1       2.103   1.500  18.977  0.00  0.00    +0.000 A 
ATOM     14  C   UNL     1       1.063   2.538  18.744  0.00  0.00    +0.000 A 
ATOM     15  C   UNL     1       1.514   3.800  18.740  0.00  0.00    +0.000 A 
ATOM     16  N   UNL     1       2.871   4.049  18.934  0.00  0.00    +0.000 N 
ATOM     17  C   UNL     1       3.592   5.225  18.916  0.00  0.00    +0.000 A 
ENDBRANCH   1  17
BRANCH   5  18
ATOM     18  C   UNL     1       1.094   9.240  21.421  0.00  0.00    +0.000 C 
BRANCH  18  19
ATOM     19  C   UNL     1       0.161  10.210  22.069  0.00  0.00    +0.000 A 
ATOM     20  C   UNL     1      -0.823  10.085  23.028  0.00  0.00    +0.000 A 
ATOM     21  C   UNL     1      -1.359  11.381  23.223  0.00  0.00    +0.000 A 
ATOM     22  C   UNL     1      -0.664  12.216  22.378  0.00  0.00    +0.000 A 
ATOM     23  O   UNL     1       0.266  11.517  21.679  0.00  0.00    +0.000 OA
ENDBRANCH  18  19
ENDBRANCH   5  18
TORSDOF 3
ENDMDL
MODEL 4
REMARK VINA RESULT:      -7.0      2.968      4.753
REMARK  Name = 
REMARK  4 active torsions:
REMARK  status: ('A' for Active; 'I' for Inactive)
REMARK    1  A    between atoms: C_1  and  C_2
REMARK    2  A    between atoms: C_10  and  C_11
REMARK    3  A    between atoms: N_15  and  C_16
REMARK    4  A    between atoms: C_16  and  C_17
REMARK                            x       y       z     vdW  Elec       q    Type
REMARK                         _______ _______ _______ _____ _____    ______ ____
ROOT
ATOM      1  C   UNL     1       3.277   5.095  18.300  0.00  0.00    +0.000 A 
ATOM      2  C   UNL     1       2.680   4.018  17.683  0.00  0.00    +0.000 A 
ATOM      3  S   UNL     1       3.806   3.217  16.678  0.00  0.00    +0.000 S 
ATOM      4  C   UNL     1       5.026   4.327  17.171  0.00  0.00    +0.000 A 
ATOM      5  N   UNL     1       6.285   4.176  16.694  0.00  0.00    +0.000 N 
ATOM      6  N   UNL     1       4.615   5.274  17.986  0.00  0.00    +0.000 NA
ATOM      7  H   UNL     1       6.434   3.321  16.166  0.00  0.00    +0.000 HD
ENDROOT
BRANCH   1  17
ATOM      8  C   UNL     1       2.132   4.541  21.320  0.00  0.00    +0.000 C 
ATOM      9  C   UNL     1       2.048   5.760  20.481  0.00  0.00    +0.000 A 
ATOM     10  N   UNL     1       1.444   6.878  21.006  0.00  0.00    +0.000 NA
ATOM     11  C   UNL     1       1.569   7.825  20.103  0.00  0.00    +0.000 A 
ATOM     12  N   UNL     1       1.110   9.112  20.162  0.00  0.00    +0.000 NA
ATOM     13  C   UNL     1       1.314   9.839  19.108  0.00  0.00    +0.000 A 
ATOM     14  C   UNL     1       1.995   9.412  17.856  0.00  0.00    +0.000 A 
ATOM     15  C   UNL     1       2.448   8.151  17.859  0.00  0.00    +0.000 A 
ATOM     16  N   UNL     1       2.250   7.349  18.981  0.00  0.00    +0.000 N 
ATOM     17  C   UNL     1       2.556   6.025  19.219  0.00  0.00    +0.000 A 
ENDBRANCH   1  17
BRANCH   5  18
ATOM     18  C   UNL     1       7.401   4.447  17.585  0.00  0.00    +0.000 C 
BRANCH  18  19
ATOM     19  C   UNL     1       7.669   5.899  17.806  0.00  0.00    +0.000 A 
ATOM     20  C   UNL     1       8.099   6.630  18.894  0.00  0.00    +0.000 A 
ATOM     21  C   UNL     1       8.157   7.980  18.473  0.00  0.00    +0.000 A 
ATOM     22  C   UNL     1       7.768   7.988  17.153  0.00  0.00    +0.000 A 
ATOM     23  O   UNL     1       7.476   6.729  16.737  0.00  0.00    +0.000 OA
ENDBRANCH  18  19
ENDBRANCH   5  18
TORSDOF 3
ENDMDL
MODEL 5
REMARK VINA RESULT:      -6.9      3.464      4.883
REMARK  Name = 
REMARK  4 active torsions:
REMARK  status: ('A' for Active; 'I' for Inactive)
REMARK    1  A    between atoms: C_1  and  C_2
REMARK    2  A    between atoms: C_10  and  C_11
REMARK    3  A    between atoms: N_15  and  C_16
REMARK    4  A    between atoms: C_16  and  C_17
REMARK                            x       y       z     vdW  Elec       q    Type
REMARK                         _______ _______ _______ _____ _____    ______ ____
ROOT
ATOM      1  C   UNL     1       4.512   5.905  18.025  0.00  0.00    +0.000 A 
ATOM      2  C   UNL     1       4.557   5.254  16.811  0.00  0.00    +0.000 A 
ATOM      3  S   UNL     1       5.842   5.863  15.863  0.00  0.00    +0.000 S 
ATOM      4  C   UNL     1       6.284   6.917  17.151  0.00  0.00    +0.000 A 
ATOM      5  N   UNL     1       7.367   7.716  17.005  0.00  0.00    +0.000 N 
ATOM      6  N   UNL     1       5.494   6.867  18.202  0.00  0.00    +0.000 NA
ATOM      7  H   UNL     1       7.915   7.532  16.169  0.00  0.00    +0.000 HD
ENDROOT
BRANCH   1  17
ATOM      8  C   UNL     1       2.119   7.851  19.132  0.00  0.00    +0.000 C 
ATOM      9  C   UNL     1       2.500   6.482  19.550  0.00  0.00    +0.000 A 
ATOM     10  N   UNL     1       1.750   5.859  20.520  0.00  0.00    +0.000 NA
ATOM     11  C   UNL     1       2.244   4.647  20.650  0.00  0.00    +0.000 A 
ATOM     12  N   UNL     1       1.842   3.660  21.507  0.00  0.00    +0.000 NA
ATOM     13  C   UNL     1       2.534   2.564  21.479  0.00  0.00    +0.000 A 
ATOM     14  C   UNL     1       3.709   2.280  20.611  0.00  0.00    +0.000 A 
ATOM     15  C   UNL     1       4.046   3.270  19.773  0.00  0.00    +0.000 A 
ATOM     16  N   UNL     1       3.315   4.456  19.775  0.00  0.00    +0.000 N 
ATOM     17  C   UNL     1       3.484   5.631  19.071  0.00  0.00    +0.000 A 
ENDBRANCH   1  17
BRANCH   5  18
ATOM     18  C   UNL     1       8.223   7.943  18.157  0.00  0.00    +0.000 C 
BRANCH  18  19
ATOM     19  C   UNL     1       8.593   9.374  18.373  0.00  0.00    +0.000 A 
ATOM     20  C   UNL     1       9.372  10.022  19.309  0.00  0.00    +0.000 A 
ATOM     21  C   UNL     1       9.333  11.398  18.978  0.00  0.00    +0.000 A 
ATOM     22  C   UNL     1       8.541  11.502  17.857  0.00  0.00    +0.000 A 
ATOM     23  O   UNL     1       8.093  10.278  17.478  0.00  0.00    +0.000 OA
ENDBRANCH  18  19
ENDBRANCH   5  18
TORSDOF 3
ENDMDL
MODEL 6
REMARK VINA RESULT:      -6.9      5.115      7.752
REMARK  Name = 
REMARK  4 active torsions:
REMARK  status: ('A' for Active; 'I' for Inactive)
REMARK    1  A    between atoms: C_1  and  C_2
REMARK    2  A    between atoms: C_10  and  C_11
REMARK    3  A    between atoms: N_15  and  C_16
REMARK    4  A    between atoms: C_16  and  C_17
REMARK                            x       y       z     vdW  Elec       q    Type
REMARK                         _______ _______ _______ _____ _____    ______ ____
ROOT
ATOM      1  C   UNL     1       0.987   9.497  18.942  0.00  0.00    +0.000 A 
ATOM      2  C   UNL     1       1.740   9.439  17.789  0.00  0.00    +0.000 A 
ATOM      3  S   UNL     1       2.820   8.116  17.858  0.00  0.00    +0.000 S 
ATOM      4  C   UNL     1       2.177   7.679  19.395  0.00  0.00    +0.000 A 
ATOM      5  N   UNL     1       2.651   6.573  20.016  0.00  0.00    +0.000 N 
ATOM      6  N   UNL     1       1.258   8.496  19.862  0.00  0.00    +0.000 NA
ATOM      7  H   UNL     1       3.278   6.009  19.449  0.00  0.00    +0.000 HD
ENDROOT
BRANCH   1  17
ATOM      8  C   UNL     1       1.250  12.188  20.794  0.00  0.00    +0.000 C 
ATOM      9  C   UNL     1       0.092  11.672  20.027  0.00  0.00    +0.000 A 
ATOM     10  N   UNL     1      -1.070  12.407  20.018  0.00  0.00    +0.000 NA
ATOM     11  C   UNL     1      -1.901  11.778  19.217  0.00  0.00    +0.000 A 
ATOM     12  N   UNL     1      -3.188  12.117  18.903  0.00  0.00    +0.000 NA
ATOM     13  C   UNL     1      -3.820  11.294  18.125  0.00  0.00    +0.000 A 
ATOM     14  C   UNL     1      -3.284  10.032  17.547  0.00  0.00    +0.000 A 
ATOM     15  C   UNL     1      -2.011   9.759  17.865  0.00  0.00    +0.000 A 
ATOM     16  N   UNL     1      -1.305  10.630  18.691  0.00  0.00    +0.000 N 
ATOM     17  C   UNL     1      -0.028  10.557  19.212  0.00  0.00    +0.000 A 
ENDBRANCH   1  17
BRANCH   5  18
ATOM     18  C   UNL     1       1.718   5.740  20.757  0.00  0.00    +0.000 C 
BRANCH  18  19
ATOM     19  C   UNL     1       1.502   4.387  20.164  0.00  0.00    +0.000 A 
ATOM     20  C   UNL     1       1.325   3.131  20.705  0.00  0.00    +0.000 A 
ATOM     21  C   UNL     1       1.169   2.243  19.614  0.00  0.00    +0.000 A 
ATOM     22  C   UNL     1       1.252   3.013  18.476  0.00  0.00    +0.000 A 
ATOM     23  O   UNL     1       1.447   4.317  18.799  0.00  0.00    +0.000 OA
ENDBRANCH  18  19
ENDBRANCH   5  18
TORSDOF 3
ENDMDL
MODEL 7
REMARK VINA RESULT:      -6.8      3.874      5.254
REMARK  Name = 
REMARK  4 active torsions:
REMARK  status: ('A' for Active; 'I' for Inactive)
REMARK    1  A    between atoms: C_1  and  C_2
REMARK    2  A    between atoms: C_10  and  C_11
REMARK    3  A    between atoms: N_15  and  C_16
REMARK    4  A    between atoms: C_16  and  C_17
REMARK                            x       y       z     vdW  Elec       q    Type
REMARK                         _______ _______ _______ _____ _____    ______ ____
ROOT
ATOM      1  C   UNL     1       5.462   5.738  18.460  0.00  0.00    +0.000 A 
ATOM      2  C   UNL     1       6.302   5.008  19.273  0.00  0.00    +0.000 A 
ATOM      3  S   UNL     1       7.887   5.645  19.204  0.00  0.00    +0.000 S 
ATOM      4  C   UNL     1       7.338   6.879  18.136  0.00  0.00    +0.000 A 
ATOM      5  N   UNL     1       8.216   7.817  17.708  0.00  0.00    +0.000 N 
ATOM      6  N   UNL     1       6.068   6.795  17.800  0.00  0.00    +0.000 NA
ATOM      7  H   UNL     1       9.123   7.782  18.164  0.00  0.00    +0.000 HD
ENDROOT
BRANCH   1  17
ATOM      8  C   UNL     1       2.955   7.774  17.898  0.00  0.00    +0.000 C 
ATOM      9  C   UNL     1       2.964   6.301  18.068  0.00  0.00    +0.000 A 
ATOM     10  N   UNL     1       1.777   5.618  17.943  0.00  0.00    +0.000 NA
ATOM     11  C   UNL     1       2.069   4.342  18.060  0.00  0.00    +0.000 A 
ATOM     12  N   UNL     1       1.215   3.275  18.023  0.00  0.00    +0.000 NA
ATOM     13  C   UNL     1       1.749   2.110  18.221  0.00  0.00    +0.000 A 
ATOM     14  C   UNL     1       3.187   1.827  18.478  0.00  0.00    +0.000 A 
ATOM     15  C   UNL     1       3.985   2.903  18.479  0.00  0.00    +0.000 A 
ATOM     16  N   UNL     1       3.440   4.167  18.261  0.00  0.00    +0.000 N 
ATOM     17  C   UNL     1       4.016   5.421  18.270  0.00  0.00    +0.000 A 
ENDBRANCH   1  17
BRANCH   5  18
ATOM     18  C   UNL     1       7.752   9.187  17.561  0.00  0.00    +0.000 C 
BRANCH  18  19
ATOM     19  C   UNL     1       8.579  10.194  18.291  0.00  0.00    +0.000 A 
ATOM     20  C   UNL     1       9.373  10.133  19.417  0.00  0.00    +0.000 A 
ATOM     21  C   UNL     1       9.898  11.434  19.608  0.00  0.00    +0.000 A 
ATOM     22  C   UNL     1       9.398  12.204  18.582  0.00  0.00    +0.000 A 
ATOM     23  O   UNL     1       8.602  11.459  17.774  0.00  0.00    +0.000 OA
ENDBRANCH  18  19
ENDBRANCH   5  18
TORSDOF 3
ENDMDL
MODEL 8
REMARK VINA RESULT:      -6.8      1.402      2.504
REMARK  Name = 
REMARK  4 active torsions:
REMARK  status: ('A' for Active; 'I' for Inactive)
REMARK    1  A    between atoms: C_1  and  C_2
REMARK    2  A    between atoms: C_10  and  C_11
REMARK    3  A    between atoms: N_15  and  C_16
REMARK    4  A    between atoms: C_16  and  C_17
REMARK                            x       y       z     vdW  Elec       q    Type
REMARK                         _______ _______ _______ _____ _____    ______ ____
ROOT
ATOM      1  C   UNL     1       5.159   4.126  17.951  0.00  0.00    +0.000 A 
ATOM      2  C   UNL     1       6.311   4.573  18.561  0.00  0.00    +0.000 A 
ATOM      3  S   UNL     1       7.550   4.775  17.401  0.00  0.00    +0.000 S 
ATOM      4  C   UNL     1       6.455   4.302  16.159  0.00  0.00    +0.000 A 
ATOM      5  N   UNL     1       6.881   4.296  14.873  0.00  0.00    +0.000 N 
ATOM      6  N   UNL     1       5.258   3.956  16.580  0.00  0.00    +0.000 NA
ATOM      7  H   UNL     1       7.802   4.702  14.734  0.00  0.00    +0.000 HD
ENDROOT
BRANCH   1  17
ATOM      8  C   UNL     1       3.721   1.226  18.468  0.00  0.00    +0.000 C 
ATOM      9  C   UNL     1       3.290   2.586  18.870  0.00  0.00    +0.000 A 
ATOM     10  N   UNL     1       2.138   2.717  19.609  0.00  0.00    +0.000 NA
ATOM     11  C   UNL     1       2.023   3.996  19.893  0.00  0.00    +0.000 A 
ATOM     12  N   UNL     1       1.028   4.618  20.594  0.00  0.00    +0.000 NA
ATOM     13  C   UNL     1       1.118   5.908  20.691  0.00  0.00    +0.000 A 
ATOM     14  C   UNL     1       2.191   6.766  20.119  0.00  0.00    +0.000 A 
ATOM     15  C   UNL     1       3.155   6.105  19.463  0.00  0.00    +0.000 A 
ATOM     16  N   UNL     1       3.088   4.718  19.351  0.00  0.00    +0.000 N 
ATOM     17  C   UNL     1       3.900   3.818  18.691  0.00  0.00    +0.000 A 
ENDBRANCH   1  17
BRANCH   5  18
ATOM     18  C   UNL     1       5.957   4.720  13.834  0.00  0.00    +0.000 C 
BRANCH  18  19
ATOM     19  C   UNL     1       5.712   3.692  12.778  0.00  0.00    +0.000 A 
ATOM     20  C   UNL     1       6.482   2.683  12.239  0.00  0.00    +0.000 A 
ATOM     21  C   UNL     1       5.679   2.045  11.263  0.00  0.00    +0.000 A 
ATOM     22  C   UNL     1       4.468   2.698  11.274  0.00  0.00    +0.000 A 
ATOM     23  O   UNL     1       4.475   3.695  12.195  0.00  0.00    +0.000 OA
ENDBRANCH  18  19
ENDBRANCH   5  18
TORSDOF 3
ENDMDL
MODEL 9
REMARK VINA RESULT:      -6.8      4.991      8.265
REMARK  Name = 
REMARK  4 active torsions:
REMARK  status: ('A' for Active; 'I' for Inactive)
REMARK    1  A    between atoms: C_1  and  C_2
REMARK    2  A    between atoms: C_10  and  C_11
REMARK    3  A    between atoms: N_15  and  C_16
REMARK    4  A    between atoms: C_16  and  C_17
REMARK                            x       y       z     vdW  Elec       q    Type
REMARK                         _______ _______ _______ _____ _____    ______ ____
ROOT
ATOM      1  C   UNL     1       2.715   7.159  18.943  0.00  0.00    +0.000 A 
ATOM      2  C   UNL     1       2.879   7.872  17.775  0.00  0.00    +0.000 A 
ATOM      3  S   UNL     1       1.959   9.311  17.831  0.00  0.00    +0.000 S 
ATOM      4  C   UNL     1       1.444   8.913  19.426  0.00  0.00    +0.000 A 
ATOM      5  N   UNL     1       0.640   9.774  20.092  0.00  0.00    +0.000 N 
ATOM      6  N   UNL     1       1.878   7.754  19.873  0.00  0.00    +0.000 NA
ATOM      7  H   UNL     1       0.504  10.667  19.627  0.00  0.00    +0.000 HD
ENDROOT
BRANCH   1  17
ATOM      8  C   UNL     1       5.712   6.122  18.114  0.00  0.00    +0.000 C 
ATOM      9  C   UNL     1       4.617   5.405  18.809  0.00  0.00    +0.000 A 
ATOM     10  N   UNL     1       4.841   4.116  19.233  0.00  0.00    +0.000 NA
ATOM     11  C   UNL     1       3.757   3.743  19.877  0.00  0.00    +0.000 A 
ATOM     12  N   UNL     1       3.499   2.536  20.464  0.00  0.00    +0.000 NA
ATOM     13  C   UNL     1       2.322   2.398  20.992  0.00  0.00    +0.000 A 
ATOM     14  C   UNL     1       1.239   3.418  21.019  0.00  0.00    +0.000 A 
ATOM     15  C   UNL     1       1.552   4.592  20.452  0.00  0.00    +0.000 A 
ATOM     16  N   UNL     1       2.812   4.771  19.886  0.00  0.00    +0.000 N 
ATOM     17  C   UNL     1       3.358   5.836  19.200  0.00  0.00    +0.000 A 
ENDBRANCH   1  17
BRANCH   5  18
ATOM     18  C   UNL     1       0.844   9.951  21.521  0.00  0.00    +0.000 C 
BRANCH  18  19
ATOM     19  C   UNL     1      -0.077  10.942  22.152  0.00  0.00    +0.000 A 
ATOM     20  C   UNL     1      -1.146  10.828  23.017  0.00  0.00    +0.000 A 
ATOM     21  C   UNL     1      -1.614  12.143  23.252  0.00  0.00    +0.000 A 
ATOM     22  C   UNL     1      -0.797  12.978  22.523  0.00  0.00    +0.000 A 
ATOM     23  O   UNL     1       0.143  12.259  21.858  0.00  0.00    +0.000 OA
ENDBRANCH  18  19
ENDBRANCH   5  18
TORSDOF 3
ENDMDL
