MODEL 1
REMARK VINA RESULT:     -10.4      0.000      0.000
REMARK  Name = 
REMARK  4 active torsions:
REMARK  status: ('A' for Active; 'I' for Inactive)
REMARK    1  A    between atoms: C_6  and  N_7
REMARK    2  A    between atoms: N_11  and  C_12
REMARK    3  A    between atoms: C_20  and  C_21
REMARK    4  A    between atoms: C_25  and  C_26
REMARK                            x       y       z     vdW  Elec       q    Type
REMARK                         _______ _______ _______ _____ _____    ______ ____
ROOT
ATOM      1  N   UNL     1       4.658   3.238  18.869  0.00  0.00    +0.000 N 
ATOM      2  C   UNL     1       4.581   4.428  18.151  0.00  0.00    +0.000 A 
ATOM      3  N   UNL     1       5.259   4.469  17.014  0.00  0.00    +0.000 NA
ATOM      4  C   UNL     1       5.135   5.580  16.302  0.00  0.00    +0.000 A 
ATOM      5  N   UNL     1       5.808   5.729  15.102  0.00  0.00    +0.000 N 
ATOM      6  N   UNL     1       4.368   6.606  16.641  0.00  0.00    +0.000 NA
ATOM      7  C   UNL     1       3.726   6.480  17.807  0.00  0.00    +0.000 A 
ATOM      8  N   UNL     1       3.809   5.405  18.590  0.00  0.00    +0.000 NA
ATOM      9  H   UNL     1       5.013   2.525  18.240  0.00  0.00    +0.000 HD
ATOM     10  H   UNL     1       5.363   6.479  14.585  0.00  0.00    +0.000 HD
ENDROOT
BRANCH   1  16
ATOM     11  F   UNL     1       0.104   2.244  18.684  0.00  0.00    +0.000 F 
ATOM     12  C   UNL     1       1.231   2.969  18.790  0.00  0.00    +0.000 C 
ATOM     13  F   UNL     1       1.286   3.800  17.721  0.00  0.00    +0.000 F 
ATOM     14  C   UNL     1       1.267   3.776  20.064  0.00  0.00    +0.000 C 
ATOM     15  C   UNL     1       2.735   4.150  20.151  0.00  0.00    +0.000 C 
ATOM     16  C   UNL     1       3.482   2.898  19.659  0.00  0.00    +0.000 C 
ATOM     17  C   UNL     1       2.469   2.098  18.824  0.00  0.00    +0.000 C 
ENDBRANCH   1  16
BRANCH   5  18
ATOM     18  C   UNL     1       6.202   4.543  14.364  0.00  0.00    +0.000 C 
ATOM     19  C   UNL     1       5.095   4.025  13.444  0.00  0.00    +0.000 C 
ATOM     20  C   UNL     1       5.848   3.242  12.382  0.00  0.00    +0.000 C 
ATOM     21  C   UNL     1       7.128   4.028  12.183  0.00  0.00    +0.000 C 
ATOM     22  F   UNL     1       7.013   4.828  11.096  0.00  0.00    +0.000 F 
ATOM     23  F   UNL     1       8.168   3.197  11.957  0.00  0.00    +0.000 F 
ATOM     24  C   UNL     1       7.360   4.879  13.418  0.00  0.00    +0.000 C 
ENDBRANCH   5  18
BRANCH   7  25
ATOM     25  C   UNL     1       2.845   7.592  18.248  0.00  0.00    +0.000 A 
ATOM     26  C   UNL     1       2.631   8.725  17.458  0.00  0.00    +0.000 A 
ATOM     27  C   UNL     1       1.812   9.749  17.926  0.00  0.00    +0.000 A 
ATOM     28  C   UNL     1       1.216   9.631  19.176  0.00  0.00    +0.000 A 
ATOM     29  C   UNL     1       1.447   8.483  19.931  0.00  0.00    +0.000 A 
ATOM     30  N   UNL     1       2.245   7.474  19.470  0.00  0.00    +0.000 NA
BRANCH  29  31
ATOM     31  C   UNL     1       0.803   8.340  21.305  0.00  0.00    +0.000 C 
ATOM     32  F   UNL     1       1.689   8.506  22.334  0.00  0.00    +0.000 F 
ATOM     33  F   UNL     1      -0.184   9.253  21.532  0.00  0.00    +0.000 F 
ATOM     34  F   UNL     1       0.240   7.115  21.511  0.00  0.00    +0.000 F 
ENDBRANCH  29  31
ENDBRANCH   7  25
TORSDOF 4
ENDMDL
MODEL 2
REMARK VINA RESULT:      -9.3      1.143      1.463
REMARK  Name = 
REMARK  4 active torsions:
REMARK  status: ('A' for Active; 'I' for Inactive)
REMARK    1  A    between atoms: C_6  and  N_7
REMARK    2  A    between atoms: N_11  and  C_12
REMARK    3  A    between atoms: C_20  and  C_21
REMARK    4  A    between atoms: C_25  and  C_26
REMARK                            x       y       z     vdW  Elec       q    Type
REMARK                         _______ _______ _______ _____ _____    ______ ____
ROOT
ATOM      1  N   UNL     1       4.366   3.907  19.736  0.00  0.00    +0.000 N 
ATOM      2  C   UNL     1       4.262   5.072  18.984  0.00  0.00    +0.000 A 
ATOM      3  N   UNL     1       5.084   5.175  17.950  0.00  0.00    +0.000 NA
ATOM      4  C   UNL     1       4.942   6.258  17.199  0.00  0.00    +0.000 A 
ATOM      5  N   UNL     1       5.756   6.466  16.100  0.00  0.00    +0.000 N 
ATOM      6  N   UNL     1       4.029   7.197  17.402  0.00  0.00    +0.000 NA
ATOM      7  C   UNL     1       3.248   7.014  18.472  0.00  0.00    +0.000 A 
ATOM      8  N   UNL     1       3.336   5.964  19.287  0.00  0.00    +0.000 NA
ATOM      9  H   UNL     1       4.879   3.230  19.181  0.00  0.00    +0.000 HD
ATOM     10  H   UNL     1       5.310   7.156  15.506  0.00  0.00    +0.000 HD
ENDROOT
BRANCH   1  16
ATOM     11  F   UNL     1       0.059   2.294  18.951  0.00  0.00    +0.000 F 
ATOM     12  C   UNL     1       1.055   3.170  19.172  0.00  0.00    +0.000 C 
ATOM     13  F   UNL     1       1.169   3.948  18.069  0.00  0.00    +0.000 F 
ATOM     14  C   UNL     1       0.789   4.035  20.380  0.00  0.00    +0.000 C 
ATOM     15  C   UNL     1       2.167   4.609  20.656  0.00  0.00    +0.000 C 
ATOM     16  C   UNL     1       3.133   3.448  20.366  0.00  0.00    +0.000 C 
ATOM     17  C   UNL     1       2.373   2.478  19.449  0.00  0.00    +0.000 C 
ENDBRANCH   1  16
BRANCH   5  18
ATOM     18  C   UNL     1       6.374   5.322  15.453  0.00  0.00    +0.000 C 
ATOM     19  C   UNL     1       5.699   4.000  15.821  0.00  0.00    +0.000 C 
ATOM     20  C   UNL     1       6.044   3.086  14.658  0.00  0.00    +0.000 C 
ATOM     21  C   UNL     1       6.023   4.001  13.451  0.00  0.00    +0.000 C 
ATOM     22  F   UNL     1       4.836   3.889  12.808  0.00  0.00    +0.000 F 
ATOM     23  F   UNL     1       6.986   3.652  12.572  0.00  0.00    +0.000 F 
ATOM     24  C   UNL     1       6.207   5.428  13.934  0.00  0.00    +0.000 C 
ENDBRANCH   5  18
BRANCH   7  25
ATOM     25  C   UNL     1       2.201   8.028  18.758  0.00  0.00    +0.000 A 
ATOM     26  C   UNL     1       1.716   8.890  17.771  0.00  0.00    +0.000 A 
ATOM     27  C   UNL     1       0.747   9.837  18.096  0.00  0.00    +0.000 A 
ATOM     28  C   UNL     1       0.275   9.911  19.401  0.00  0.00    +0.000 A 
ATOM     29  C   UNL     1       0.776   9.029  20.355  0.00  0.00    +0.000 A 
ATOM     30  N   UNL     1       1.722   8.096  20.036  0.00  0.00    +0.000 NA
BRANCH  29  31
ATOM     31  C   UNL     1       0.270   9.101  21.791  0.00  0.00    +0.000 C 
ATOM     32  F   UNL     1      -0.700   8.176  22.066  0.00  0.00    +0.000 F 
ATOM     33  F   UNL     1       1.248   8.880  22.716  0.00  0.00    +0.000 F 
ATOM     34  F   UNL     1      -0.284  10.306  22.106  0.00  0.00    +0.000 F 
ENDBRANCH  29  31
ENDBRANCH   7  25
TORSDOF 4
ENDMDL
MODEL 3
REMARK VINA RESULT:      -9.3      0.991      1.388
REMARK  Name = 
REMARK  4 active torsions:
REMARK  status: ('A' for Active; 'I' for Inactive)
REMARK    1  A    between atoms: C_6  and  N_7
REMARK    2  A    between atoms: N_11  and  C_12
REMARK    3  A    between atoms: C_20  and  C_21
REMARK    4  A    between atoms: C_25  and  C_26
REMARK                            x       y       z     vdW  Elec       q    Type
REMARK                         _______ _______ _______ _____ _____    ______ ____
ROOT
ATOM      1  N   UNL     1       3.912   2.910  18.406  0.00  0.00    +0.000 N 
ATOM      2  C   UNL     1       4.109   4.173  17.859  0.00  0.00    +0.000 A 
ATOM      3  N   UNL     1       4.964   4.246  16.850  0.00  0.00    +0.000 NA
ATOM      4  C   UNL     1       5.104   5.440  16.291  0.00  0.00    +0.000 A 
ATOM      5  N   UNL     1       5.978   5.626  15.234  0.00  0.00    +0.000 N 
ATOM      6  N   UNL     1       4.432   6.522  16.655  0.00  0.00    +0.000 NA
ATOM      7  C   UNL     1       3.597   6.357  17.686  0.00  0.00    +0.000 A 
ATOM      8  N   UNL     1       3.410   5.197  18.314  0.00  0.00    +0.000 NA
ATOM      9  H   UNL     1       4.269   2.230  17.742  0.00  0.00    +0.000 HD
ATOM     10  H   UNL     1       5.726   6.490  14.768  0.00  0.00    +0.000 HD
ENDROOT
BRANCH   1  16
ATOM     11  F   UNL     1       0.350   4.793  20.757  0.00  0.00    +0.000 F 
ATOM     12  C   UNL     1       1.501   4.139  20.528  0.00  0.00    +0.000 C 
ATOM     13  F   UNL     1       2.501   4.860  21.091  0.00  0.00    +0.000 F 
ATOM     14  C   UNL     1       1.487   2.747  21.111  0.00  0.00    +0.000 C 
ATOM     15  C   UNL     1       2.658   2.101  20.393  0.00  0.00    +0.000 C 
ATOM     16  C   UNL     1       2.588   2.660  18.961  0.00  0.00    +0.000 C 
ATOM     17  C   UNL     1       1.772   3.958  19.049  0.00  0.00    +0.000 C 
ENDBRANCH   1  16
BRANCH   5  18
ATOM     18  C   UNL     1       6.330   4.491  14.402  0.00  0.00    +0.000 C 
ATOM     19  C   UNL     1       5.177   4.035  13.506  0.00  0.00    +0.000 C 
ATOM     20  C   UNL     1       5.873   3.322  12.360  0.00  0.00    +0.000 C 
ATOM     21  C   UNL     1       7.146   4.116  12.149  0.00  0.00    +0.000 C 
ATOM     22  F   UNL     1       6.982   4.986  11.123  0.00  0.00    +0.000 F 
ATOM     23  F   UNL     1       8.169   3.300  11.819  0.00  0.00    +0.000 F 
ATOM     24  C   UNL     1       7.442   4.885  13.424  0.00  0.00    +0.000 C 
ENDBRANCH   5  18
BRANCH   7  25
ATOM     25  C   UNL     1       2.809   7.530  18.146  0.00  0.00    +0.000 A 
ATOM     26  C   UNL     1       2.609   8.651  17.337  0.00  0.00    +0.000 A 
ATOM     27  C   UNL     1       1.879   9.733  17.823  0.00  0.00    +0.000 A 
ATOM     28  C   UNL     1       1.356   9.682  19.110  0.00  0.00    +0.000 A 
ATOM     29  C   UNL     1       1.569   8.543  19.883  0.00  0.00    +0.000 A 
ATOM     30  N   UNL     1       2.280   7.479  19.405  0.00  0.00    +0.000 NA
BRANCH  29  31
ATOM     31  C   UNL     1       1.005   8.474  21.297  0.00  0.00    +0.000 C 
ATOM     32  F   UNL     1      -0.345   8.687  21.349  0.00  0.00    +0.000 F 
ATOM     33  F   UNL     1       1.199   7.263  21.894  0.00  0.00    +0.000 F 
ATOM     34  F   UNL     1       1.547   9.401  22.138  0.00  0.00    +0.000 F 
ENDBRANCH  29  31
ENDBRANCH   7  25
TORSDOF 4
ENDMDL
MODEL 4
REMARK VINA RESULT:      -9.1      2.022      2.752
REMARK  Name = 
REMARK  4 active torsions:
REMARK  status: ('A' for Active; 'I' for Inactive)
REMARK    1  A    between atoms: C_6  and  N_7
REMARK    2  A    between atoms: N_11  and  C_12
REMARK    3  A    between atoms: C_20  and  C_21
REMARK    4  A    between atoms: C_25  and  C_26
REMARK                            x       y       z     vdW  Elec       q    Type
REMARK                         _______ _______ _______ _____ _____    ______ ____
ROOT
ATOM      1  N   UNL     1       3.482   4.322  19.323  0.00  0.00    +0.000 N 
ATOM      2  C   UNL     1       3.539   5.622  18.832  0.00  0.00    +0.000 A 
ATOM      3  N   UNL     1       4.525   5.886  17.989  0.00  0.00    +0.000 NA
ATOM      4  C   UNL     1       4.542   7.108  17.476  0.00  0.00    +0.000 A 
ATOM      5  N   UNL     1       5.535   7.488  16.591  0.00  0.00    +0.000 N 
ATOM      6  N   UNL     1       3.635   8.039  17.730  0.00  0.00    +0.000 NA
ATOM      7  C   UNL     1       2.680   7.688  18.597  0.00  0.00    +0.000 A 
ATOM      8  N   UNL     1       2.600   6.488  19.169  0.00  0.00    +0.000 NA
ATOM      9  H   UNL     1       4.062   3.744  18.723  0.00  0.00    +0.000 HD
ATOM     10  H   UNL     1       5.215   8.314  16.097  0.00  0.00    +0.000 HD
ENDROOT
BRANCH   1  16
ATOM     11  F   UNL     1       0.803   2.435  22.644  0.00  0.00    +0.000 F 
ATOM     12  C   UNL     1       1.646   2.514  21.600  0.00  0.00    +0.000 C 
ATOM     13  F   UNL     1       2.831   1.984  21.990  0.00  0.00    +0.000 F 
ATOM     14  C   UNL     1       1.127   1.767  20.396  0.00  0.00    +0.000 C 
ATOM     15  C   UNL     1       1.996   2.330  19.287  0.00  0.00    +0.000 C 
ATOM     16  C   UNL     1       2.149   3.821  19.635  0.00  0.00    +0.000 C 
ATOM     17  C   UNL     1       1.852   3.941  21.138  0.00  0.00    +0.000 C 
ENDBRANCH   1  16
BRANCH   5  18
ATOM     18  C   UNL     1       6.221   6.468  15.820  0.00  0.00    +0.000 C 
ATOM     19  C   UNL     1       7.161   5.615  16.674  0.00  0.00    +0.000 C 
ATOM     20  C   UNL     1       7.283   4.320  15.890  0.00  0.00    +0.000 C 
ATOM     21  C   UNL     1       5.907   4.123  15.287  0.00  0.00    +0.000 C 
ATOM     22  F   UNL     1       5.191   3.257  16.044  0.00  0.00    +0.000 F 
ATOM     23  F   UNL     1       6.000   3.589  14.051  0.00  0.00    +0.000 F 
ATOM     24  C   UNL     1       5.206   5.469  15.255  0.00  0.00    +0.000 C 
ENDBRANCH   5  18
BRANCH   7  25
ATOM     25  C   UNL     1       1.628   8.684  18.925  0.00  0.00    +0.000 A 
ATOM     26  C   UNL     1       1.115   9.563  17.967  0.00  0.00    +0.000 A 
ATOM     27  C   UNL     1       0.143  10.491  18.331  0.00  0.00    +0.000 A 
ATOM     28  C   UNL     1      -0.305  10.532  19.645  0.00  0.00    +0.000 A 
ATOM     29  C   UNL     1       0.224   9.635  20.570  0.00  0.00    +0.000 A 
ATOM     30  N   UNL     1       1.172   8.719  20.213  0.00  0.00    +0.000 NA
BRANCH  29  31
ATOM     31  C   UNL     1      -0.256   9.670  22.016  0.00  0.00    +0.000 C 
ATOM     32  F   UNL     1      -1.124  10.696  22.271  0.00  0.00    +0.000 F 
ATOM     33  F   UNL     1      -0.920   8.538  22.389  0.00  0.00    +0.000 F 
ATOM     34  F   UNL     1       0.757   9.827  22.915  0.00  0.00    +0.000 F 
ENDBRANCH  29  31
ENDBRANCH   7  25
TORSDOF 4
ENDMDL
MODEL 5
REMARK VINA RESULT:      -9.1      1.678      2.258
REMARK  Name = 
REMARK  4 active torsions:
REMARK  status: ('A' for Active; 'I' for Inactive)
REMARK    1  A    between atoms: C_6  and  N_7
REMARK    2  A    between atoms: N_11  and  C_12
REMARK    3  A    between atoms: C_20  and  C_21
REMARK    4  A    between atoms: C_25  and  C_26
REMARK                            x       y       z     vdW  Elec       q    Type
REMARK                         _______ _______ _______ _____ _____    ______ ____
ROOT
ATOM      1  N   UNL     1       4.240   4.364  19.757  0.00  0.00    +0.000 N 
ATOM      2  C   UNL     1       4.051   5.570  19.089  0.00  0.00    +0.000 A 
ATOM      3  N   UNL     1       4.877   5.815  18.082  0.00  0.00    +0.000 NA
ATOM      4  C   UNL     1       4.657   6.935  17.409  0.00  0.00    +0.000 A 
ATOM      5  N   UNL     1       5.467   7.289  16.344  0.00  0.00    +0.000 N 
ATOM      6  N   UNL     1       3.667   7.779  17.661  0.00  0.00    +0.000 NA
ATOM      7  C   UNL     1       2.889   7.455  18.698  0.00  0.00    +0.000 A 
ATOM      8  N   UNL     1       3.051   6.359  19.436  0.00  0.00    +0.000 NA
ATOM      9  H   UNL     1       4.815   3.773  19.165  0.00  0.00    +0.000 HD
ATOM     10  H   UNL     1       4.974   7.983  15.793  0.00  0.00    +0.000 HD
ENDROOT
BRANCH   1  16
ATOM     11  F   UNL     1       0.176   2.300  18.764  0.00  0.00    +0.000 F 
ATOM     12  C   UNL     1       1.058   3.276  19.040  0.00  0.00    +0.000 C 
ATOM     13  F   UNL     1       1.131   4.080  17.951  0.00  0.00    +0.000 F 
ATOM     14  C   UNL     1       0.647   4.086  20.244  0.00  0.00    +0.000 C 
ATOM     15  C   UNL     1       1.939   4.804  20.587  0.00  0.00    +0.000 C 
ATOM     16  C   UNL     1       3.040   3.762  20.326  0.00  0.00    +0.000 C 
ATOM     17  C   UNL     1       2.432   2.729  19.365  0.00  0.00    +0.000 C 
ENDBRANCH   1  16
BRANCH   5  18
ATOM     18  C   UNL     1       6.186   6.250  15.630  0.00  0.00    +0.000 C 
ATOM     19  C   UNL     1       7.153   5.477  16.528  0.00  0.00    +0.000 C 
ATOM     20  C   UNL     1       7.317   4.145  15.816  0.00  0.00    +0.000 C 
ATOM     21  C   UNL     1       5.949   3.871  15.226  0.00  0.00    +0.000 C 
ATOM     22  F   UNL     1       5.261   3.025  16.030  0.00  0.00    +0.000 F 
ATOM     23  F   UNL     1       6.059   3.273  14.021  0.00  0.00    +0.000 F 
ATOM     24  C   UNL     1       5.204   5.190  15.121  0.00  0.00    +0.000 C 
ENDBRANCH   5  18
BRANCH   7  25
ATOM     25  C   UNL     1       1.757   8.357  19.036  0.00  0.00    +0.000 A 
ATOM     26  C   UNL     1       1.083   9.096  18.060  0.00  0.00    +0.000 A 
ATOM     27  C   UNL     1       0.041   9.942  18.432  0.00  0.00    +0.000 A 
ATOM     28  C   UNL     1      -0.315  10.041  19.771  0.00  0.00    +0.000 A 
ATOM     29  C   UNL     1       0.376   9.283  20.714  0.00  0.00    +0.000 A 
ATOM     30  N   UNL     1       1.393   8.447  20.350  0.00  0.00    +0.000 NA
BRANCH  29  31
ATOM     31  C   UNL     1      -0.001   9.383  22.187  0.00  0.00    +0.000 C 
ATOM     32  F   UNL     1      -0.935   8.459  22.568  0.00  0.00    +0.000 F 
ATOM     33  F   UNL     1       1.057   9.189  23.026  0.00  0.00    +0.000 F 
ATOM     34  F   UNL     1      -0.534  10.592  22.525  0.00  0.00    +0.000 F 
ENDBRANCH  29  31
ENDBRANCH   7  25
TORSDOF 4
ENDMDL
MODEL 6
REMARK VINA RESULT:      -9.0      2.283      7.623
REMARK  Name = 
REMARK  4 active torsions:
REMARK  status: ('A' for Active; 'I' for Inactive)
REMARK    1  A    between atoms: C_6  and  N_7
REMARK    2  A    between atoms: N_11  and  C_12
REMARK    3  A    between atoms: C_20  and  C_21
REMARK    4  A    between atoms: C_25  and  C_26
REMARK                            x       y       z     vdW  Elec       q    Type
REMARK                         _______ _______ _______ _____ _____    ______ ____
ROOT
ATOM      1  N   UNL     1       1.524   5.556  20.175  0.00  0.00    +0.000 N 
ATOM      2  C   UNL     1       2.144   6.341  19.208  0.00  0.00    +0.000 A 
ATOM      3  N   UNL     1       1.587   7.518  18.965  0.00  0.00    +0.000 NA
ATOM      4  C   UNL     1       2.214   8.289  18.088  0.00  0.00    +0.000 A 
ATOM      5  N   UNL     1       1.711   9.534  17.757  0.00  0.00    +0.000 N 
ATOM      6  N   UNL     1       3.349   7.968  17.485  0.00  0.00    +0.000 NA
ATOM      7  C   UNL     1       3.835   6.759  17.785  0.00  0.00    +0.000 A 
ATOM      8  N   UNL     1       3.259   5.917  18.642  0.00  0.00    +0.000 NA
ATOM      9  H   UNL     1       0.904   6.160  20.707  0.00  0.00    +0.000 HD
ATOM     10  H   UNL     1       2.458  10.070  17.328  0.00  0.00    +0.000 HD
ENDROOT
BRANCH   1  16
ATOM     11  F   UNL     1       4.277   1.798  19.942  0.00  0.00    +0.000 F 
ATOM     12  C   UNL     1       3.170   2.538  20.121  0.00  0.00    +0.000 C 
ATOM     13  F   UNL     1       2.278   2.177  19.165  0.00  0.00    +0.000 F 
ATOM     14  C   UNL     1       2.564   2.329  21.487  0.00  0.00    +0.000 C 
ATOM     15  C   UNL     1       1.630   3.520  21.595  0.00  0.00    +0.000 C 
ATOM     16  C   UNL     1       2.402   4.676  20.935  0.00  0.00    +0.000 C 
ATOM     17  C   UNL     1       3.452   4.022  20.023  0.00  0.00    +0.000 C 
ENDBRANCH   1  16
BRANCH   5  18
ATOM     18  C   UNL     1       0.848  10.220  18.701  0.00  0.00    +0.000 C 
ATOM     19  C   UNL     1       1.226  11.691  18.885  0.00  0.00    +0.000 C 
ATOM     20  C   UNL     1      -0.062  12.334  19.370  0.00  0.00    +0.000 C 
ATOM     21  C   UNL     1      -1.149  11.593  18.620  0.00  0.00    +0.000 C 
ATOM     22  F   UNL     1      -1.538  12.312  17.540  0.00  0.00    +0.000 F 
ATOM     23  F   UNL     1      -2.238  11.426  19.400  0.00  0.00    +0.000 F 
ATOM     24  C   UNL     1      -0.586  10.258  18.165  0.00  0.00    +0.000 C 
ENDBRANCH   5  18
BRANCH   7  25
ATOM     25  C   UNL     1       5.108   6.336  17.146  0.00  0.00    +0.000 A 
ATOM     26  C   UNL     1       6.353   6.709  17.658  0.00  0.00    +0.000 A 
ATOM     27  C   UNL     1       7.517   6.302  17.009  0.00  0.00    +0.000 A 
ATOM     28  C   UNL     1       7.423   5.527  15.860  0.00  0.00    +0.000 A 
ATOM     29  C   UNL     1       6.164   5.167  15.385  0.00  0.00    +0.000 A 
ATOM     30  N   UNL     1       5.022   5.561  16.024  0.00  0.00    +0.000 NA
BRANCH  29  31
ATOM     31  C   UNL     1       6.045   4.320  14.124  0.00  0.00    +0.000 C 
ATOM     32  F   UNL     1       6.314   2.996  14.337  0.00  0.00    +0.000 F 
ATOM     33  F   UNL     1       4.797   4.349  13.574  0.00  0.00    +0.000 F 
ATOM     34  F   UNL     1       6.903   4.704  13.136  0.00  0.00    +0.000 F 
ENDBRANCH  29  31
ENDBRANCH   7  25
TORSDOF 4
ENDMDL
MODEL 7
REMARK VINA RESULT:      -9.0      1.588      2.058
REMARK  Name = 
REMARK  4 active torsions:
REMARK  status: ('A' for Active; 'I' for Inactive)
REMARK    1  A    between atoms: C_6  and  N_7
REMARK    2  A    between atoms: N_11  and  C_12
REMARK    3  A    between atoms: C_20  and  C_21
REMARK    4  A    between atoms: C_25  and  C_26
REMARK                            x       y       z     vdW  Elec       q    Type
REMARK                         _______ _______ _______ _____ _____    ______ ____
ROOT
ATOM      1  N   UNL     1       4.563   2.298  18.779  0.00  0.00    +0.000 N 
ATOM      2  C   UNL     1       4.473   3.592  18.277  0.00  0.00    +0.000 A 
ATOM      3  N   UNL     1       5.088   3.817  17.126  0.00  0.00    +0.000 NA
ATOM      4  C   UNL     1       4.950   5.035  16.620  0.00  0.00    +0.000 A 
ATOM      5  N   UNL     1       5.559   5.375  15.426  0.00  0.00    +0.000 N 
ATOM      6  N   UNL     1       4.225   5.997  17.171  0.00  0.00    +0.000 NA
ATOM      7  C   UNL     1       3.646   5.684  18.334  0.00  0.00    +0.000 A 
ATOM      8  N   UNL     1       3.748   4.491  18.919  0.00  0.00    +0.000 NA
ATOM      9  H   UNL     1       4.867   1.697  18.019  0.00  0.00    +0.000 HD
ATOM     10  H   UNL     1       5.103   6.208  15.068  0.00  0.00    +0.000 HD
ENDROOT
BRANCH   1  16
ATOM     11  F   UNL     1      -0.092   2.052  18.954  0.00  0.00    +0.000 F 
ATOM     12  C   UNL     1       1.151   2.529  19.137  0.00  0.00    +0.000 C 
ATOM     13  F   UNL     1       1.253   3.686  18.438  0.00  0.00    +0.000 F 
ATOM     14  C   UNL     1       1.451   2.787  20.593  0.00  0.00    +0.000 C 
ATOM     15  C   UNL     1       2.963   2.905  20.580  0.00  0.00    +0.000 C 
ATOM     16  C   UNL     1       3.425   1.843  19.567  0.00  0.00    +0.000 C 
ATOM     17  C   UNL     1       2.212   1.555  18.669  0.00  0.00    +0.000 C 
ENDBRANCH   1  16
BRANCH   5  18
ATOM     18  C   UNL     1       5.885   4.328  14.476  0.00  0.00    +0.000 C 
ATOM     19  C   UNL     1       4.834   4.180  13.375  0.00  0.00    +0.000 C 
ATOM     20  C   UNL     1       5.600   3.537  12.231  0.00  0.00    +0.000 C 
ATOM     21  C   UNL     1       6.981   4.154  12.320  0.00  0.00    +0.000 C 
ATOM     22  F   UNL     1       7.089   5.173  11.434  0.00  0.00    +0.000 F 
ATOM     23  F   UNL     1       7.930   3.247  12.002  0.00  0.00    +0.000 F 
ATOM     24  C   UNL     1       7.175   4.684  13.729  0.00  0.00    +0.000 C 
ENDBRANCH   5  18
BRANCH   7  25
ATOM     25  C   UNL     1       2.816   6.716  19.007  0.00  0.00    +0.000 A 
ATOM     26  C   UNL     1       2.282   6.521  20.283  0.00  0.00    +0.000 A 
ATOM     27  C   UNL     1       1.494   7.514  20.861  0.00  0.00    +0.000 A 
ATOM     28  C   UNL     1       1.249   8.688  20.159  0.00  0.00    +0.000 A 
ATOM     29  C   UNL     1       1.807   8.849  18.893  0.00  0.00    +0.000 A 
ATOM     30  N   UNL     1       2.585   7.879  18.327  0.00  0.00    +0.000 NA
BRANCH  29  31
ATOM     31  C   UNL     1       1.544  10.130  18.110  0.00  0.00    +0.000 C 
ATOM     32  F   UNL     1       0.410  10.073  17.348  0.00  0.00    +0.000 F 
ATOM     33  F   UNL     1       1.384  11.224  18.909  0.00  0.00    +0.000 F 
ATOM     34  F   UNL     1       2.545  10.442  17.238  0.00  0.00    +0.000 F 
ENDBRANCH  29  31
ENDBRANCH   7  25
TORSDOF 4
ENDMDL
MODEL 8
REMARK VINA RESULT:      -8.9      2.948      3.801
REMARK  Name = 
REMARK  4 active torsions:
REMARK  status: ('A' for Active; 'I' for Inactive)
REMARK    1  A    between atoms: C_6  and  N_7
REMARK    2  A    between atoms: N_11  and  C_12
REMARK    3  A    between atoms: C_20  and  C_21
REMARK    4  A    between atoms: C_25  and  C_26
REMARK                            x       y       z     vdW  Elec       q    Type
REMARK                         _______ _______ _______ _____ _____    ______ ____
ROOT
ATOM      1  N   UNL     1       3.354   5.347  20.036  0.00  0.00    +0.000 N 
ATOM      2  C   UNL     1       3.287   6.430  19.165  0.00  0.00    +0.000 A 
ATOM      3  N   UNL     1       4.188   6.455  18.194  0.00  0.00    +0.000 NA
ATOM      4  C   UNL     1       4.084   7.455  17.330  0.00  0.00    +0.000 A 
ATOM      5  N   UNL     1       4.980   7.577  16.283  0.00  0.00    +0.000 N 
ATOM      6  N   UNL     1       3.140   8.382  17.367  0.00  0.00    +0.000 NA
ATOM      7  C   UNL     1       2.279   8.283  18.385  0.00  0.00    +0.000 A 
ATOM      8  N   UNL     1       2.322   7.320  19.304  0.00  0.00    +0.000 NA
ATOM      9  H   UNL     1       3.924   4.633  19.593  0.00  0.00    +0.000 HD
ATOM     10  H   UNL     1       4.570   8.194  15.590  0.00  0.00    +0.000 HD
ENDROOT
BRANCH   1  16
ATOM     11  F   UNL     1       1.185   1.928  22.353  0.00  0.00    +0.000 F 
ATOM     12  C   UNL     1       1.645   2.653  21.319  0.00  0.00    +0.000 C 
ATOM     13  F   UNL     1       2.541   1.887  20.649  0.00  0.00    +0.000 F 
ATOM     14  C   UNL     1       0.537   3.074  20.386  0.00  0.00    +0.000 C 
ATOM     15  C   UNL     1       1.210   4.173  19.584  0.00  0.00    +0.000 C 
ATOM     16  C   UNL     1       2.084   4.917  20.609  0.00  0.00    +0.000 C 
ATOM     17  C   UNL     1       2.307   3.937  21.771  0.00  0.00    +0.000 C 
ENDBRANCH   1  16
BRANCH   5  18
ATOM     18  C   UNL     1       5.672   6.394  15.804  0.00  0.00    +0.000 C 
ATOM     19  C   UNL     1       6.901   6.048  16.647  0.00  0.00    +0.000 C 
ATOM     20  C   UNL     1       7.095   4.561  16.402  0.00  0.00    +0.000 C 
ATOM     21  C   UNL     1       5.685   4.018  16.287  0.00  0.00    +0.000 C 
ATOM     22  F   UNL     1       5.302   3.477  17.469  0.00  0.00    +0.000 F 
ATOM     23  F   UNL     1       5.625   3.037  15.362  0.00  0.00    +0.000 F 
ATOM     24  C   UNL     1       4.761   5.169  15.933  0.00  0.00    +0.000 C 
ENDBRANCH   5  18
BRANCH   7  25
ATOM     25  C   UNL     1       1.191   9.290  18.486  0.00  0.00    +0.000 A 
ATOM     26  C   UNL     1       1.228  10.328  19.421  0.00  0.00    +0.000 A 
ATOM     27  C   UNL     1       0.173  11.234  19.488  0.00  0.00    +0.000 A 
ATOM     28  C   UNL     1      -0.904  11.095  18.621  0.00  0.00    +0.000 A 
ATOM     29  C   UNL     1      -0.901  10.053  17.697  0.00  0.00    +0.000 A 
ATOM     30  N   UNL     1       0.136   9.167  17.626  0.00  0.00    +0.000 NA
BRANCH  29  31
ATOM     31  C   UNL     1      -2.077   9.886  16.742  0.00  0.00    +0.000 C 
ATOM     32  F   UNL     1      -2.379  11.029  16.055  0.00  0.00    +0.000 F 
ATOM     33  F   UNL     1      -1.860   8.939  15.784  0.00  0.00    +0.000 F 
ATOM     34  F   UNL     1      -3.233   9.529  17.370  0.00  0.00    +0.000 F 
ENDBRANCH  29  31
ENDBRANCH   7  25
TORSDOF 4
ENDMDL
MODEL 9
REMARK VINA RESULT:      -8.8      2.041      2.736
REMARK  Name = 
REMARK  4 active torsions:
REMARK  status: ('A' for Active; 'I' for Inactive)
REMARK    1  A    between atoms: C_6  and  N_7
REMARK    2  A    between atoms: N_11  and  C_12
REMARK    3  A    between atoms: C_20  and  C_21
REMARK    4  A    between atoms: C_25  and  C_26
REMARK                            x       y       z     vdW  Elec       q    Type
REMARK                         _______ _______ _______ _____ _____    ______ ____
ROOT
ATOM      1  N   UNL     1       4.418   3.766  19.531  0.00  0.00    +0.000 N 
ATOM      2  C   UNL     1       4.172   5.067  19.105  0.00  0.00    +0.000 A 
ATOM      3  N   UNL     1       4.891   5.491  18.077  0.00  0.00    +0.000 NA
ATOM      4  C   UNL     1       4.611   6.709  17.634  0.00  0.00    +0.000 A 
ATOM      5  N   UNL     1       5.310   7.250  16.569  0.00  0.00    +0.000 N 
ATOM      6  N   UNL     1       3.660   7.487  18.129  0.00  0.00    +0.000 NA
ATOM      7  C   UNL     1       2.990   6.980  19.169  0.00  0.00    +0.000 A 
ATOM      8  N   UNL     1       3.219   5.774  19.686  0.00  0.00    +0.000 NA
ATOM      9  H   UNL     1       4.925   3.293  18.789  0.00  0.00    +0.000 HD
ATOM     10  H   UNL     1       4.768   8.024  16.201  0.00  0.00    +0.000 HD
ENDROOT
BRANCH   1  16
ATOM     11  F   UNL     1       0.132   2.125  18.692  0.00  0.00    +0.000 F 
ATOM     12  C   UNL     1       1.104   2.975  19.066  0.00  0.00    +0.000 C 
ATOM     13  F   UNL     1       1.068   4.035  18.223  0.00  0.00    +0.000 F 
ATOM     14  C   UNL     1       0.925   3.449  20.487  0.00  0.00    +0.000 C 
ATOM     15  C   UNL     1       2.295   4.023  20.796  0.00  0.00    +0.000 C 
ATOM     16  C   UNL     1       3.279   3.062  20.108  0.00  0.00    +0.000 C 
ATOM     17  C   UNL     1       2.474   2.332  19.022  0.00  0.00    +0.000 C 
ENDBRANCH   1  16
BRANCH   5  18
ATOM     18  C   UNL     1       5.943   6.359  15.615  0.00  0.00    +0.000 C 
ATOM     19  C   UNL     1       7.173   5.654  16.192  0.00  0.00    +0.000 C 
ATOM     20  C   UNL     1       7.301   4.403  15.340  0.00  0.00    +0.000 C 
ATOM     21  C   UNL     1       5.869   4.000  15.057  0.00  0.00    +0.000 C 
ATOM     22  F   UNL     1       5.486   3.024  15.915  0.00  0.00    +0.000 F 
ATOM     23  F   UNL     1       5.751   3.501  13.809  0.00  0.00    +0.000 F 
ATOM     24  C   UNL     1       4.986   5.220  15.250  0.00  0.00    +0.000 C 
ENDBRANCH   5  18
BRANCH   7  25
ATOM     25  C   UNL     1       1.906   7.799  19.773  0.00  0.00    +0.000 A 
ATOM     26  C   UNL     1       1.286   7.437  20.972  0.00  0.00    +0.000 A 
ATOM     27  C   UNL     1       0.262   8.229  21.485  0.00  0.00    +0.000 A 
ATOM     28  C   UNL     1      -0.130   9.371  20.797  0.00  0.00    +0.000 A 
ATOM     29  C   UNL     1       0.518   9.703  19.610  0.00  0.00    +0.000 A 
ATOM     30  N   UNL     1       1.527   8.931  19.108  0.00  0.00    +0.000 NA
BRANCH  29  31
ATOM     31  C   UNL     1       0.096  10.950  18.842  0.00  0.00    +0.000 C 
ATOM     32  F   UNL     1      -0.516  11.886  19.630  0.00  0.00    +0.000 F 
ATOM     33  F   UNL     1       1.144  11.602  18.261  0.00  0.00    +0.000 F 
ATOM     34  F   UNL     1      -0.791  10.691  17.840  0.00  0.00    +0.000 F 
ENDBRANCH  29  31
ENDBRANCH   7  25
TORSDOF 4
ENDMDL
