MODEL 1
REMARK VINA RESULT:      -9.2      0.000      0.000
REMARK  Name = 
REMARK  9 active torsions:
REMARK  status: ('A' for Active; 'I' for Inactive)
REMARK    1  A    between atoms: C_1  and  C_2
REMARK    2  A    between atoms: C_2  and  O_3
REMARK    3  A    between atoms: N_7  and  S_8
REMARK    4  A    between atoms: S_8  and  C_11
REMARK    5  A    between atoms: C_14  and  O_15
REMARK    6  A    between atoms: O_15  and  C_16
REMARK    7  A    between atoms: C_16  and  C_17
REMARK    8  A    between atoms: C_29  and  C_30
REMARK    9  A    between atoms: N_32  and  O_33
REMARK                            x       y       z     vdW  Elec       q    Type
REMARK                         _______ _______ _______ _____ _____    ______ ____
ROOT
ATOM      1  S   UNL     1       2.815   5.585  19.003  0.00  0.00    +0.000 S 
ATOM      2  O   UNL     1       1.858   4.851  18.199  0.00  0.00    +0.000 OA
ATOM      3  O   UNL     1       3.036   5.214  20.388  0.00  0.00    +0.000 OA
ENDROOT
BRANCH   1   9
ATOM      4  C   UNL     1       5.734   5.396  15.367  0.00  0.00    +0.000 C 
ATOM      5  C   UNL     1       5.789   4.292  16.437  0.00  0.00    +0.000 C 
ATOM      6  C   UNL     1       7.009   4.490  17.344  0.00  0.00    +0.000 C 
ATOM      7  C   UNL     1       6.860   5.737  18.208  0.00  0.00    +0.000 C 
ATOM      8  C   UNL     1       5.549   5.798  18.997  0.00  0.00    +0.000 C 
ATOM      9  N   UNL     1       4.349   5.413  18.212  0.00  0.00    +0.000 NA
ATOM     10  C   UNL     1       4.499   4.224  17.310  0.00  0.00    +0.000 C 
BRANCH  10  11
ATOM     11  C   UNL     1       4.484   2.928  18.126  0.00  0.00    +0.000 C 
ATOM     12  O   UNL     1       3.914   1.895  17.766  0.00  0.00    +0.000 OA
ATOM     13  N   UNL     1       5.153   2.969  19.331  0.00  0.00    +0.000 N 
ATOM     14  H   UNL     1       5.087   3.846  19.874  0.00  0.00    +0.000 HD
BRANCH  13  15
ATOM     15  O   UNL     1       5.021   1.763  20.069  0.00  0.00    +0.000 OA
ATOM     16  H   UNL     1       4.718   1.124  19.379  0.00  0.00    +0.000 HD
ENDBRANCH  13  15
ENDBRANCH  10  11
BRANCH   5  17
ATOM     17  O   UNL     1       5.946   3.055  15.714  0.00  0.00    +0.000 OA
ATOM     18  H   UNL     1       5.550   2.341  16.251  0.00  0.00    +0.000 HD
ENDBRANCH   5  17
ENDBRANCH   1   9
BRANCH   1  19
ATOM     19  C   UNL     1       2.258   7.314  19.004  0.00  0.00    +0.000 A 
ATOM     20  C   UNL     1       2.259   8.079  17.835  0.00  0.00    +0.000 A 
ATOM     21  C   UNL     1       1.761   9.422  17.841  0.00  0.00    +0.000 A 
ATOM     22  C   UNL     1       1.183  10.022  18.982  0.00  0.00    +0.000 A 
ATOM     23  C   UNL     1       1.123   9.222  20.119  0.00  0.00    +0.000 A 
ATOM     24  C   UNL     1       1.645   7.884  20.132  0.00  0.00    +0.000 A 
BRANCH  22  25
ATOM     25  O   UNL     1       0.886  11.376  18.928  0.00  0.00    +0.000 OA
BRANCH  25  26
ATOM     26  C   UNL     1      -0.450  11.924  18.599  0.00  0.00    +0.000 C 
BRANCH  26  27
ATOM     27  C   UNL     1      -1.041  13.012  19.641  0.00  0.00    +0.000 A 
ATOM     28  C   UNL     1      -0.010  13.869  19.959  0.00  0.00    +0.000 A 
ATOM     29  C   UNL     1       0.669  13.518  21.106  0.00  0.00    +0.000 A 
ATOM     30  N   UNL     1       0.220  12.615  22.012  0.00  0.00    +0.000 NA
ATOM     31  C   UNL     1      -1.073  12.302  21.946  0.00  0.00    +0.000 A 
ATOM     32  C   UNL     1      -1.687  11.922  23.138  0.00  0.00    +0.000 A 
ATOM     33  C   UNL     1      -3.041  12.144  23.362  0.00  0.00    +0.000 A 
ATOM     34  C   UNL     1      -3.787  12.715  22.341  0.00  0.00    +0.000 A 
ATOM     35  C   UNL     1      -3.202  12.908  21.064  0.00  0.00    +0.000 A 
ATOM     36  C   UNL     1      -1.820  12.620  20.799  0.00  0.00    +0.000 A 
ENDBRANCH  26  27
ENDBRANCH  25  26
ENDBRANCH  22  25
ENDBRANCH   1  19
TORSDOF 8
ENDMDL
MODEL 2
REMARK VINA RESULT:      -9.2      0.597      1.093
REMARK  Name = 
REMARK  9 active torsions:
REMARK  status: ('A' for Active; 'I' for Inactive)
REMARK    1  A    between atoms: C_1  and  C_2
REMARK    2  A    between atoms: C_2  and  O_3
REMARK    3  A    between atoms: N_7  and  S_8
REMARK    4  A    between atoms: S_8  and  C_11
REMARK    5  A    between atoms: C_14  and  O_15
REMARK    6  A    between atoms: O_15  and  C_16
REMARK    7  A    between atoms: C_16  and  C_17
REMARK    8  A    between atoms: C_29  and  C_30
REMARK    9  A    between atoms: N_32  and  O_33
REMARK                            x       y       z     vdW  Elec       q    Type
REMARK                         _______ _______ _______ _____ _____    ______ ____
ROOT
ATOM      1  S   UNL     1       2.790   5.580  19.024  0.00  0.00    +0.000 S 
ATOM      2  O   UNL     1       1.854   4.773  18.267  0.00  0.00    +0.000 OA
ATOM      3  O   UNL     1       3.045   5.278  20.419  0.00  0.00    +0.000 OA
ENDROOT
BRANCH   1   9
ATOM      4  C   UNL     1       5.658   5.309  15.353  0.00  0.00    +0.000 C 
ATOM      5  C   UNL     1       5.788   4.280  16.490  0.00  0.00    +0.000 C 
ATOM      6  C   UNL     1       7.010   4.598  17.359  0.00  0.00    +0.000 C 
ATOM      7  C   UNL     1       6.808   5.889  18.145  0.00  0.00    +0.000 C 
ATOM      8  C   UNL     1       5.508   5.933  18.953  0.00  0.00    +0.000 C 
ATOM      9  N   UNL     1       4.319   5.436  18.217  0.00  0.00    +0.000 NA
ATOM     10  C   UNL     1       4.517   4.201  17.389  0.00  0.00    +0.000 C 
BRANCH  10  11
ATOM     11  C   UNL     1       4.583   2.961  18.285  0.00  0.00    +0.000 C 
ATOM     12  O   UNL     1       5.055   2.959  19.424  0.00  0.00    +0.000 OA
ATOM     13  N   UNL     1       4.079   1.799  17.738  0.00  0.00    +0.000 N 
ATOM     14  H   UNL     1       4.254   1.640  16.733  0.00  0.00    +0.000 HD
BRANCH  13  15
ATOM     15  O   UNL     1       4.255   0.677  18.591  0.00  0.00    +0.000 OA
ATOM     16  H   UNL     1       3.460   0.127  18.385  0.00  0.00    +0.000 HD
ENDBRANCH  13  15
ENDBRANCH  10  11
BRANCH   5  17
ATOM     17  O   UNL     1       5.999   3.009  15.843  0.00  0.00    +0.000 OA
ATOM     18  H   UNL     1       6.462   3.176  14.999  0.00  0.00    +0.000 HD
ENDBRANCH   5  17
ENDBRANCH   1   9
BRANCH   1  19
ATOM     19  C   UNL     1       2.161   7.283  18.960  0.00  0.00    +0.000 A 
ATOM     20  C   UNL     1       1.656   7.914  20.098  0.00  0.00    +0.000 A 
ATOM     21  C   UNL     1       1.218   9.277  20.044  0.00  0.00    +0.000 A 
ATOM     22  C   UNL     1       1.333  10.075  18.884  0.00  0.00    +0.000 A 
ATOM     23  C   UNL     1       1.906   9.453  17.778  0.00  0.00    +0.000 A 
ATOM     24  C   UNL     1       2.322   8.079  17.814  0.00  0.00    +0.000 A 
BRANCH  22  25
ATOM     25  O   UNL     1       0.729  11.324  18.887  0.00  0.00    +0.000 OA
BRANCH  25  26
ATOM     26  C   UNL     1      -0.735  11.542  18.850  0.00  0.00    +0.000 C 
BRANCH  26  27
ATOM     27  C   UNL     1      -1.290  12.753  19.769  0.00  0.00    +0.000 A 
ATOM     28  C   UNL     1      -0.212  13.552  20.080  0.00  0.00    +0.000 A 
ATOM     29  C   UNL     1       0.376  13.244  21.288  0.00  0.00    +0.000 A 
ATOM     30  N   UNL     1      -0.191  12.455  22.233  0.00  0.00    +0.000 NA
ATOM     31  C   UNL     1      -1.500  12.237  22.116  0.00  0.00    +0.000 A 
ATOM     32  C   UNL     1      -2.204  12.003  23.296  0.00  0.00    +0.000 A 
ATOM     33  C   UNL     1      -3.545  12.345  23.422  0.00  0.00    +0.000 A 
ATOM     34  C   UNL     1      -4.189  12.887  22.319  0.00  0.00    +0.000 A 
ATOM     35  C   UNL     1      -3.524  12.930  21.067  0.00  0.00    +0.000 A 
ATOM     36  C   UNL     1      -2.158  12.516  20.907  0.00  0.00    +0.000 A 
ENDBRANCH  26  27
ENDBRANCH  25  26
ENDBRANCH  22  25
ENDBRANCH   1  19
TORSDOF 8
ENDMDL
MODEL 3
REMARK VINA RESULT:      -9.2      2.163      3.022
REMARK  Name = 
REMARK  9 active torsions:
REMARK  status: ('A' for Active; 'I' for Inactive)
REMARK    1  A    between atoms: C_1  and  C_2
REMARK    2  A    between atoms: C_2  and  O_3
REMARK    3  A    between atoms: N_7  and  S_8
REMARK    4  A    between atoms: S_8  and  C_11
REMARK    5  A    between atoms: C_14  and  O_15
REMARK    6  A    between atoms: O_15  and  C_16
REMARK    7  A    between atoms: C_16  and  C_17
REMARK    8  A    between atoms: C_29  and  C_30
REMARK    9  A    between atoms: N_32  and  O_33
REMARK                            x       y       z     vdW  Elec       q    Type
REMARK                         _______ _______ _______ _____ _____    ______ ____
ROOT
ATOM      1  S   UNL     1       2.672   5.556  19.149  0.00  0.00    +0.000 S 
ATOM      2  O   UNL     1       1.764   4.736  18.371  0.00  0.00    +0.000 OA
ATOM      3  O   UNL     1       2.922   5.239  20.542  0.00  0.00    +0.000 OA
ENDROOT
BRANCH   1   9
ATOM      4  C   UNL     1       5.596   5.615  15.513  0.00  0.00    +0.000 C 
ATOM      5  C   UNL     1       5.686   4.469  16.535  0.00  0.00    +0.000 C 
ATOM      6  C   UNL     1       6.899   4.666  17.452  0.00  0.00    +0.000 C 
ATOM      7  C   UNL     1       6.710   5.869  18.368  0.00  0.00    +0.000 C 
ATOM      8  C   UNL     1       5.397   5.855  19.157  0.00  0.00    +0.000 C 
ATOM      9  N   UNL     1       4.211   5.466  18.354  0.00  0.00    +0.000 NA
ATOM     10  C   UNL     1       4.398   4.322  17.402  0.00  0.00    +0.000 C 
BRANCH  10  11
ATOM     11  C   UNL     1       4.424   2.993  18.161  0.00  0.00    +0.000 C 
ATOM     12  O   UNL     1       3.893   1.957  17.754  0.00  0.00    +0.000 OA
ATOM     13  N   UNL     1       5.084   3.006  19.372  0.00  0.00    +0.000 N 
ATOM     14  H   UNL     1       4.984   3.855  19.952  0.00  0.00    +0.000 HD
BRANCH  13  15
ATOM     15  O   UNL     1       4.990   1.765  20.057  0.00  0.00    +0.000 OA
ATOM     16  H   UNL     1       4.119   1.418  19.749  0.00  0.00    +0.000 HD
ENDBRANCH  13  15
ENDBRANCH  10  11
BRANCH   5  17
ATOM     17  O   UNL     1       5.882   3.269  15.760  0.00  0.00    +0.000 OA
ATOM     18  H   UNL     1       6.567   3.456  15.088  0.00  0.00    +0.000 HD
ENDBRANCH   5  17
ENDBRANCH   1   9
BRANCH   1  19
ATOM     19  C   UNL     1       1.998   7.243  19.105  0.00  0.00    +0.000 A 
ATOM     20  C   UNL     1       1.545   7.874  20.265  0.00  0.00    +0.000 A 
ATOM     21  C   UNL     1       1.071   9.225  20.223  0.00  0.00    +0.000 A 
ATOM     22  C   UNL     1       1.098  10.013  19.051  0.00  0.00    +0.000 A 
ATOM     23  C   UNL     1       1.619   9.393  17.919  0.00  0.00    +0.000 A 
ATOM     24  C   UNL     1       2.071   8.029  17.944  0.00  0.00    +0.000 A 
BRANCH  22  25
ATOM     25  O   UNL     1       0.464  11.247  19.077  0.00  0.00    +0.000 OA
BRANCH  25  26
ATOM     26  C   UNL     1      -0.678  11.616  18.210  0.00  0.00    +0.000 C 
BRANCH  26  27
ATOM     27  C   UNL     1      -2.089  10.909  18.565  0.00  0.00    +0.000 A 
ATOM     28  C   UNL     1      -2.094   9.679  17.945  0.00  0.00    +0.000 A 
ATOM     29  C   UNL     1      -2.699   9.684  16.707  0.00  0.00    +0.000 A 
ATOM     30  N   UNL     1      -3.480  10.691  16.244  0.00  0.00    +0.000 NA
ATOM     31  C   UNL     1      -3.935  11.554  17.152  0.00  0.00    +0.000 A 
ATOM     32  C   UNL     1      -5.156  12.167  16.876  0.00  0.00    +0.000 A 
ATOM     33  C   UNL     1      -6.009  12.579  17.893  0.00  0.00    +0.000 A 
ATOM     34  C   UNL     1      -5.593  12.408  19.205  0.00  0.00    +0.000 A 
ATOM     35  C   UNL     1      -4.269  11.974  19.473  0.00  0.00    +0.000 A 
ATOM     36  C   UNL     1      -3.353  11.609  18.429  0.00  0.00    +0.000 A 
ENDBRANCH  26  27
ENDBRANCH  25  26
ENDBRANCH  22  25
ENDBRANCH   1  19
TORSDOF 8
ENDMDL
MODEL 4
REMARK VINA RESULT:      -9.1      1.429      1.893
REMARK  Name = 
REMARK  9 active torsions:
REMARK  status: ('A' for Active; 'I' for Inactive)
REMARK    1  A    between atoms: C_1  and  C_2
REMARK    2  A    between atoms: C_2  and  O_3
REMARK    3  A    between atoms: N_7  and  S_8
REMARK    4  A    between atoms: S_8  and  C_11
REMARK    5  A    between atoms: C_14  and  O_15
REMARK    6  A    between atoms: O_15  and  C_16
REMARK    7  A    between atoms: C_16  and  C_17
REMARK    8  A    between atoms: C_29  and  C_30
REMARK    9  A    between atoms: N_32  and  O_33
REMARK                            x       y       z     vdW  Elec       q    Type
REMARK                         _______ _______ _______ _____ _____    ______ ____
ROOT
ATOM      1  S   UNL     1       2.628   5.323  19.252  0.00  0.00    +0.000 S 
ATOM      2  O   UNL     1       1.664   4.784  18.314  0.00  0.00    +0.000 OA
ATOM      3  O   UNL     1       2.835   4.674  20.532  0.00  0.00    +0.000 OA
ENDROOT
BRANCH   1   9
ATOM      4  C   UNL     1       5.525   5.552  15.601  0.00  0.00    +0.000 C 
ATOM      5  C   UNL     1       5.646   4.377  16.588  0.00  0.00    +0.000 C 
ATOM      6  C   UNL     1       6.861   4.572  17.502  0.00  0.00    +0.000 C 
ATOM      7  C   UNL     1       6.653   5.743  18.455  0.00  0.00    +0.000 C 
ATOM      8  C   UNL     1       5.347   5.678  19.252  0.00  0.00    +0.000 C 
ATOM      9  N   UNL     1       4.163   5.289  18.445  0.00  0.00    +0.000 NA
ATOM     10  C   UNL     1       4.367   4.178  17.458  0.00  0.00    +0.000 C 
BRANCH  10  11
ATOM     11  C   UNL     1       4.425   2.827  18.176  0.00  0.00    +0.000 C 
ATOM     12  O   UNL     1       3.883   1.802  17.758  0.00  0.00    +0.000 OA
ATOM     13  N   UNL     1       5.129   2.808  19.362  0.00  0.00    +0.000 N 
ATOM     14  H   UNL     1       5.047   3.639  19.970  0.00  0.00    +0.000 HD
BRANCH  13  15
ATOM     15  O   UNL     1       5.065   1.547  20.013  0.00  0.00    +0.000 OA
ATOM     16  H   UNL     1       5.570   0.964  19.396  0.00  0.00    +0.000 HD
ENDBRANCH  13  15
ENDBRANCH  10  11
BRANCH   5  17
ATOM     17  O   UNL     1       5.861   3.206  15.775  0.00  0.00    +0.000 OA
ATOM     18  H   UNL     1       6.001   2.447  16.374  0.00  0.00    +0.000 HD
ENDBRANCH   5  17
ENDBRANCH   1   9
BRANCH   1  19
ATOM     19  C   UNL     1       2.099   7.025  19.604  0.00  0.00    +0.000 A 
ATOM     20  C   UNL     1       2.083   8.002  18.606  0.00  0.00    +0.000 A 
ATOM     21  C   UNL     1       1.608   9.323  18.886  0.00  0.00    +0.000 A 
ATOM     22  C   UNL     1       1.069   9.698  20.137  0.00  0.00    +0.000 A 
ATOM     23  C   UNL     1       1.024   8.693  21.099  0.00  0.00    +0.000 A 
ATOM     24  C   UNL     1       1.524   7.372  20.837  0.00  0.00    +0.000 A 
BRANCH  22  25
ATOM     25  O   UNL     1       0.793  11.039  20.355  0.00  0.00    +0.000 OA
BRANCH  25  26
ATOM     26  C   UNL     1       1.189  12.132  19.438  0.00  0.00    +0.000 C 
BRANCH  26  27
ATOM     27  C   UNL     1      -0.005  12.787  18.564  0.00  0.00    +0.000 A 
ATOM     28  C   UNL     1       0.050  14.149  18.760  0.00  0.00    +0.000 A 
ATOM     29  C   UNL     1      -0.781  14.600  19.763  0.00  0.00    +0.000 A 
ATOM     30  N   UNL     1      -1.777  13.866  20.315  0.00  0.00    +0.000 NA
ATOM     31  C   UNL     1      -2.167  12.788  19.635  0.00  0.00    +0.000 A 
ATOM     32  C   UNL     1      -3.495  12.395  19.792  0.00  0.00    +0.000 A 
ATOM     33  C   UNL     1      -4.182  11.736  18.780  0.00  0.00    +0.000 A 
ATOM     34  C   UNL     1      -3.496  11.432  17.613  0.00  0.00    +0.000 A 
ATOM     35  C   UNL     1      -2.097  11.651  17.543  0.00  0.00    +0.000 A 
ATOM     36  C   UNL     1      -1.359  12.270  18.609  0.00  0.00    +0.000 A 
ENDBRANCH  26  27
ENDBRANCH  25  26
ENDBRANCH  22  25
ENDBRANCH   1  19
TORSDOF 8
ENDMDL
MODEL 5
REMARK VINA RESULT:      -9.0      2.043      3.485
REMARK  Name = 
REMARK  9 active torsions:
REMARK  status: ('A' for Active; 'I' for Inactive)
REMARK    1  A    between atoms: C_1  and  C_2
REMARK    2  A    between atoms: C_2  and  O_3
REMARK    3  A    between atoms: N_7  and  S_8
REMARK    4  A    between atoms: S_8  and  C_11
REMARK    5  A    between atoms: C_14  and  O_15
REMARK    6  A    between atoms: O_15  and  C_16
REMARK    7  A    between atoms: C_16  and  C_17
REMARK    8  A    between atoms: C_29  and  C_30
REMARK    9  A    between atoms: N_32  and  O_33
REMARK                            x       y       z     vdW  Elec       q    Type
REMARK                         _______ _______ _______ _____ _____    ______ ____
ROOT
ATOM      1  S   UNL     1       2.836   5.680  18.991  0.00  0.00    +0.000 S 
ATOM      2  O   UNL     1       1.880   4.954  18.178  0.00  0.00    +0.000 OA
ATOM      3  O   UNL     1       3.045   5.302  20.376  0.00  0.00    +0.000 OA
ENDROOT
BRANCH   1   9
ATOM      4  C   UNL     1       5.758   5.362  15.367  0.00  0.00    +0.000 C 
ATOM      5  C   UNL     1       5.843   4.322  16.499  0.00  0.00    +0.000 C 
ATOM      6  C   UNL     1       7.057   4.604  17.391  0.00  0.00    +0.000 C 
ATOM      7  C   UNL     1       6.875   5.893  18.183  0.00  0.00    +0.000 C 
ATOM      8  C   UNL     1       5.562   5.965  18.969  0.00  0.00    +0.000 C 
ATOM      9  N   UNL     1       4.373   5.504  18.209  0.00  0.00    +0.000 NA
ATOM     10  C   UNL     1       4.555   4.270  17.376  0.00  0.00    +0.000 C 
BRANCH  10  11
ATOM     11  C   UNL     1       4.574   3.022  18.264  0.00  0.00    +0.000 C 
ATOM     12  O   UNL     1       5.022   3.002  19.413  0.00  0.00    +0.000 OA
ATOM     13  N   UNL     1       4.058   1.875  17.699  0.00  0.00    +0.000 N 
ATOM     14  H   UNL     1       4.251   1.719  16.696  0.00  0.00    +0.000 HD
BRANCH  13  15
ATOM     15  O   UNL     1       4.190   0.743  18.546  0.00  0.00    +0.000 OA
ATOM     16  H   UNL     1       3.676   1.015  19.345  0.00  0.00    +0.000 HD
ENDBRANCH  13  15
ENDBRANCH  10  11
BRANCH   5  17
ATOM     17  O   UNL     1       6.032   3.050  15.847  0.00  0.00    +0.000 OA
ATOM     18  H   UNL     1       6.342   2.412  16.519  0.00  0.00    +0.000 HD
ENDBRANCH   5  17
ENDBRANCH   1   9
BRANCH   1  19
ATOM     19  C   UNL     1       2.287   7.412  18.996  0.00  0.00    +0.000 A 
ATOM     20  C   UNL     1       2.289   8.178  17.828  0.00  0.00    +0.000 A 
ATOM     21  C   UNL     1       1.798   9.524  17.837  0.00  0.00    +0.000 A 
ATOM     22  C   UNL     1       1.225  10.125  18.980  0.00  0.00    +0.000 A 
ATOM     23  C   UNL     1       1.163   9.324  20.117  0.00  0.00    +0.000 A 
ATOM     24  C   UNL     1       1.679   7.983  20.126  0.00  0.00    +0.000 A 
BRANCH  22  25
ATOM     25  O   UNL     1       0.935  11.481  18.929  0.00  0.00    +0.000 OA
BRANCH  25  26
ATOM     26  C   UNL     1       0.848  12.360  20.118  0.00  0.00    +0.000 C 
BRANCH  26  27
ATOM     27  C   UNL     1       2.040  13.442  20.282  0.00  0.00    +0.000 A 
ATOM     28  C   UNL     1       1.816  14.114  21.463  0.00  0.00    +0.000 A 
ATOM     29  C   UNL     1       1.115  15.290  21.308  0.00  0.00    +0.000 A 
ATOM     30  N   UNL     1       0.911  15.905  20.117  0.00  0.00    +0.000 NA
ATOM     31  C   UNL     1       1.695  15.522  19.111  0.00  0.00    +0.000 A 
ATOM     32  C   UNL     1       1.965  16.475  18.130  0.00  0.00    +0.000 A 
ATOM     33  C   UNL     1       3.151  16.456  17.405  0.00  0.00    +0.000 A 
ATOM     34  C   UNL     1       4.051  15.428  17.649  0.00  0.00    +0.000 A 
ATOM     35  C   UNL     1       3.679  14.354  18.496  0.00  0.00    +0.000 A 
ATOM     36  C   UNL     1       2.427  14.326  19.200  0.00  0.00    +0.000 A 
ENDBRANCH  26  27
ENDBRANCH  25  26
ENDBRANCH  22  25
ENDBRANCH   1  19
TORSDOF 8
ENDMDL
MODEL 6
REMARK VINA RESULT:      -9.0      5.302      8.247
REMARK  Name = 
REMARK  9 active torsions:
REMARK  status: ('A' for Active; 'I' for Inactive)
REMARK    1  A    between atoms: C_1  and  C_2
REMARK    2  A    between atoms: C_2  and  O_3
REMARK    3  A    between atoms: N_7  and  S_8
REMARK    4  A    between atoms: S_8  and  C_11
REMARK    5  A    between atoms: C_14  and  O_15
REMARK    6  A    between atoms: O_15  and  C_16
REMARK    7  A    between atoms: C_16  and  C_17
REMARK    8  A    between atoms: C_29  and  C_30
REMARK    9  A    between atoms: N_32  and  O_33
REMARK                            x       y       z     vdW  Elec       q    Type
REMARK                         _______ _______ _______ _____ _____    ______ ____
ROOT
ATOM      1  S   UNL     1       4.997   4.350  16.798  0.00  0.00    +0.000 S 
ATOM      2  O   UNL     1       5.603   3.054  17.031  0.00  0.00    +0.000 OA
ATOM      3  O   UNL     1       4.593   4.732  15.458  0.00  0.00    +0.000 OA
ENDROOT
BRANCH   1   9
ATOM      4  C   UNL     1       2.196   5.874  20.206  0.00  0.00    +0.000 C 
ATOM      5  C   UNL     1       2.445   4.363  20.052  0.00  0.00    +0.000 C 
ATOM      6  C   UNL     1       1.225   3.684  19.419  0.00  0.00    +0.000 C 
ATOM      7  C   UNL     1       1.048   4.107  17.966  0.00  0.00    +0.000 C 
ATOM      8  C   UNL     1       2.304   3.935  17.106  0.00  0.00    +0.000 C 
ATOM      9  N   UNL     1       3.555   4.393  17.762  0.00  0.00    +0.000 NA
ATOM     10  C   UNL     1       3.716   4.037  19.210  0.00  0.00    +0.000 C 
BRANCH  10  11
ATOM     11  C   UNL     1       4.081   2.557  19.360  0.00  0.00    +0.000 C 
ATOM     12  O   UNL     1       3.455   1.637  18.830  0.00  0.00    +0.000 OA
ATOM     13  N   UNL     1       5.176   2.287  20.154  0.00  0.00    +0.000 N 
ATOM     14  H   UNL     1       5.300   2.871  20.997  0.00  0.00    +0.000 HD
BRANCH  13  15
ATOM     15  O   UNL     1       5.400   0.894  20.317  0.00  0.00    +0.000 OA
ATOM     16  H   UNL     1       6.218   0.746  19.785  0.00  0.00    +0.000 HD
ENDBRANCH  13  15
ENDBRANCH  10  11
BRANCH   5  17
ATOM     17  O   UNL     1       2.613   3.858  21.392  0.00  0.00    +0.000 OA
ATOM     18  H   UNL     1       1.752   3.504  21.688  0.00  0.00    +0.000 HD
ENDBRANCH   5  17
ENDBRANCH   1   9
BRANCH   1  19
ATOM     19  C   UNL     1       6.207   5.585  17.356  0.00  0.00    +0.000 A 
ATOM     20  C   UNL     1       6.179   6.897  16.878  0.00  0.00    +0.000 A 
ATOM     21  C   UNL     1       7.103   7.873  17.372  0.00  0.00    +0.000 A 
ATOM     22  C   UNL     1       8.033   7.601  18.401  0.00  0.00    +0.000 A 
ATOM     23  C   UNL     1       7.999   6.308  18.918  0.00  0.00    +0.000 A 
ATOM     24  C   UNL     1       7.095   5.314  18.410  0.00  0.00    +0.000 A 
BRANCH  22  25
ATOM     25  O   UNL     1       8.991   8.562  18.689  0.00  0.00    +0.000 OA
BRANCH  25  26
ATOM     26  C   UNL     1       8.687   9.902  19.241  0.00  0.00    +0.000 C 
BRANCH  26  27
ATOM     27  C   UNL     1       9.962  10.868  19.485  0.00  0.00    +0.000 A 
ATOM     28  C   UNL     1       9.833  11.396  20.750  0.00  0.00    +0.000 A 
ATOM     29  C   UNL     1       9.217  12.629  20.777  0.00  0.00    +0.000 A 
ATOM     30  N   UNL     1       9.016  13.405  19.684  0.00  0.00    +0.000 NA
ATOM     31  C   UNL     1       9.732  13.101  18.602  0.00  0.00    +0.000 A 
ATOM     32  C   UNL     1      10.036  14.151  17.737  0.00  0.00    +0.000 A 
ATOM     33  C   UNL     1      11.189  14.143  16.962  0.00  0.00    +0.000 A 
ATOM     34  C   UNL     1      12.018  13.032  17.032  0.00  0.00    +0.000 A 
ATOM     35  C   UNL     1      11.598  11.886  17.754  0.00  0.00    +0.000 A 
ATOM     36  C   UNL     1      10.374  11.855  18.506  0.00  0.00    +0.000 A 
ENDBRANCH  26  27
ENDBRANCH  25  26
ENDBRANCH  22  25
ENDBRANCH   1  19
TORSDOF 8
ENDMDL
MODEL 7
REMARK VINA RESULT:      -9.0      5.425      8.392
REMARK  Name = 
REMARK  9 active torsions:
REMARK  status: ('A' for Active; 'I' for Inactive)
REMARK    1  A    between atoms: C_1  and  C_2
REMARK    2  A    between atoms: C_2  and  O_3
REMARK    3  A    between atoms: N_7  and  S_8
REMARK    4  A    between atoms: S_8  and  C_11
REMARK    5  A    between atoms: C_14  and  O_15
REMARK    6  A    between atoms: O_15  and  C_16
REMARK    7  A    between atoms: C_16  and  C_17
REMARK    8  A    between atoms: C_29  and  C_30
REMARK    9  A    between atoms: N_32  and  O_33
REMARK                            x       y       z     vdW  Elec       q    Type
REMARK                         _______ _______ _______ _____ _____    ______ ____
ROOT
ATOM      1  S   UNL     1       5.752   4.500  18.344  0.00  0.00    +0.000 S 
ATOM      2  O   UNL     1       6.280   3.828  19.515  0.00  0.00    +0.000 OA
ATOM      3  O   UNL     1       5.858   3.875  17.040  0.00  0.00    +0.000 OA
ENDROOT
BRANCH   1   9
ATOM      4  C   UNL     1       1.959   5.505  20.869  0.00  0.00    +0.000 C 
ATOM      5  C   UNL     1       1.984   4.220  20.023  0.00  0.00    +0.000 C 
ATOM      6  C   UNL     1       1.131   4.396  18.761  0.00  0.00    +0.000 C 
ATOM      7  C   UNL     1       1.764   5.398  17.802  0.00  0.00    +0.000 C 
ATOM      8  C   UNL     1       3.227   5.102  17.462  0.00  0.00    +0.000 C 
ATOM      9  N   UNL     1       4.057   4.721  18.633  0.00  0.00    +0.000 NA
ATOM     10  C   UNL     1       3.425   3.784  19.619  0.00  0.00    +0.000 C 
BRANCH  10  11
ATOM     11  C   UNL     1       3.407   2.357  19.064  0.00  0.00    +0.000 C 
ATOM     12  O   UNL     1       2.426   1.841  18.523  0.00  0.00    +0.000 OA
ATOM     13  N   UNL     1       4.577   1.641  19.209  0.00  0.00    +0.000 N 
ATOM     14  H   UNL     1       5.104   1.778  20.087  0.00  0.00    +0.000 HD
BRANCH  13  15
ATOM     15  O   UNL     1       4.456   0.302  18.752  0.00  0.00    +0.000 OA
ATOM     16  H   UNL     1       3.914   0.405  17.933  0.00  0.00    +0.000 HD
ENDBRANCH  13  15
ENDBRANCH  10  11
BRANCH   5  17
ATOM     17  O   UNL     1       1.386   3.199  20.847  0.00  0.00    +0.000 OA
ATOM     18  H   UNL     1       0.455   3.096  20.568  0.00  0.00    +0.000 HD
ENDBRANCH   5  17
ENDBRANCH   1   9
BRANCH   1  19
ATOM     19  C   UNL     1       6.622   6.092  18.237  0.00  0.00    +0.000 A 
ATOM     20  C   UNL     1       7.810   6.319  18.936  0.00  0.00    +0.000 A 
ATOM     21  C   UNL     1       8.514   7.558  18.795  0.00  0.00    +0.000 A 
ATOM     22  C   UNL     1       8.105   8.578  17.907  0.00  0.00    +0.000 A 
ATOM     23  C   UNL     1       6.959   8.307  17.164  0.00  0.00    +0.000 A 
ATOM     24  C   UNL     1       6.230   7.079  17.318  0.00  0.00    +0.000 A 
BRANCH  22  25
ATOM     25  O   UNL     1       8.759   9.800  17.968  0.00  0.00    +0.000 OA
BRANCH  25  26
ATOM     26  C   UNL     1       9.030  10.538  19.223  0.00  0.00    +0.000 C 
BRANCH  26  27
ATOM     27  C   UNL     1      10.396  11.405  19.249  0.00  0.00    +0.000 A 
ATOM     28  C   UNL     1      10.660  11.706  20.566  0.00  0.00    +0.000 A 
ATOM     29  C   UNL     1      10.174  12.934  20.963  0.00  0.00    +0.000 A 
ATOM     30  N   UNL     1       9.745  13.896  20.111  0.00  0.00    +0.000 NA
ATOM     31  C   UNL     1      10.111  13.765  18.836  0.00  0.00    +0.000 A 
ATOM     32  C   UNL     1      10.250  14.941  18.101  0.00  0.00    +0.000 A 
ATOM     33  C   UNL     1      11.144  15.034  17.041  0.00  0.00    +0.000 A 
ATOM     34  C   UNL     1      11.869  13.902  16.695  0.00  0.00    +0.000 A 
ATOM     35  C   UNL     1      11.573  12.661  17.313  0.00  0.00    +0.000 A 
ATOM     36  C   UNL     1      10.602  12.537  18.364  0.00  0.00    +0.000 A 
ENDBRANCH  26  27
ENDBRANCH  25  26
ENDBRANCH  22  25
ENDBRANCH   1  19
TORSDOF 8
ENDMDL
MODEL 8
REMARK VINA RESULT:      -8.9      1.200      1.510
REMARK  Name = 
REMARK  9 active torsions:
REMARK  status: ('A' for Active; 'I' for Inactive)
REMARK    1  A    between atoms: C_1  and  C_2
REMARK    2  A    between atoms: C_2  and  O_3
REMARK    3  A    between atoms: N_7  and  S_8
REMARK    4  A    between atoms: S_8  and  C_11
REMARK    5  A    between atoms: C_14  and  O_15
REMARK    6  A    between atoms: O_15  and  C_16
REMARK    7  A    between atoms: C_16  and  C_17
REMARK    8  A    between atoms: C_29  and  C_30
REMARK    9  A    between atoms: N_32  and  O_33
REMARK                            x       y       z     vdW  Elec       q    Type
REMARK                         _______ _______ _______ _____ _____    ______ ____
ROOT
ATOM      1  S   UNL     1       2.710   5.468  19.277  0.00  0.00    +0.000 S 
ATOM      2  O   UNL     1       1.753   4.813  18.408  0.00  0.00    +0.000 OA
ATOM      3  O   UNL     1       2.946   4.955  20.613  0.00  0.00    +0.000 OA
ENDROOT
BRANCH   1   9
ATOM      4  C   UNL     1       5.575   5.480  15.593  0.00  0.00    +0.000 C 
ATOM      5  C   UNL     1       5.716   4.376  16.656  0.00  0.00    +0.000 C 
ATOM      6  C   UNL     1       6.936   4.644  17.544  0.00  0.00    +0.000 C 
ATOM      7  C   UNL     1       6.724   5.874  18.419  0.00  0.00    +0.000 C 
ATOM      8  C   UNL     1       5.425   5.850  19.229  0.00  0.00    +0.000 C 
ATOM      9  N   UNL     1       4.239   5.395  18.461  0.00  0.00    +0.000 NA
ATOM     10  C   UNL     1       4.447   4.223  17.549  0.00  0.00    +0.000 C 
BRANCH  10  11
ATOM     11  C   UNL     1       4.525   2.924  18.356  0.00  0.00    +0.000 C 
ATOM     12  O   UNL     1       5.009   2.845  19.487  0.00  0.00    +0.000 OA
ATOM     13  N   UNL     1       4.021   1.800  17.735  0.00  0.00    +0.000 N 
ATOM     14  H   UNL     1       4.186   1.712  16.719  0.00  0.00    +0.000 HD
BRANCH  13  15
ATOM     15  O   UNL     1       4.208   0.622  18.506  0.00  0.00    +0.000 OA
ATOM     16  H   UNL     1       3.375   0.120  18.331  0.00  0.00    +0.000 HD
ENDBRANCH  13  15
ENDBRANCH  10  11
BRANCH   5  17
ATOM     17  O   UNL     1       5.937   3.155  15.922  0.00  0.00    +0.000 OA
ATOM     18  H   UNL     1       6.895   2.964  15.940  0.00  0.00    +0.000 HD
ENDBRANCH   5  17
ENDBRANCH   1   9
BRANCH   1  19
ATOM     19  C   UNL     1       2.137   7.182  19.464  0.00  0.00    +0.000 A 
ATOM     20  C   UNL     1       2.118   8.064  18.382  0.00  0.00    +0.000 A 
ATOM     21  C   UNL     1       1.608   9.394  18.533  0.00  0.00    +0.000 A 
ATOM     22  C   UNL     1       1.038   9.866  19.737  0.00  0.00    +0.000 A 
ATOM     23  C   UNL     1       0.998   8.951  20.785  0.00  0.00    +0.000 A 
ATOM     24  C   UNL     1       1.532   7.625  20.652  0.00  0.00    +0.000 A 
BRANCH  22  25
ATOM     25  O   UNL     1       0.728  11.215  19.828  0.00  0.00    +0.000 OA
BRANCH  25  26
ATOM     26  C   UNL     1       0.291  11.887  21.073  0.00  0.00    +0.000 C 
BRANCH  26  27
ATOM     27  C   UNL     1      -1.278  12.277  21.149  0.00  0.00    +0.000 A 
ATOM     28  C   UNL     1      -1.549  13.080  20.063  0.00  0.00    +0.000 A 
ATOM     29  C   UNL     1      -1.463  14.428  20.335  0.00  0.00    +0.000 A 
ATOM     30  N   UNL     1      -1.416  14.954  21.584  0.00  0.00    +0.000 NA
ATOM     31  C   UNL     1      -1.793  14.151  22.578  0.00  0.00    +0.000 A 
ATOM     32  C   UNL     1      -2.346  14.764  23.702  0.00  0.00    +0.000 A 
ATOM     33  C   UNL     1      -3.281  14.114  24.498  0.00  0.00    +0.000 A 
ATOM     34  C   UNL     1      -3.621  12.808  24.175  0.00  0.00    +0.000 A 
ATOM     35  C   UNL     1      -2.906  12.126  23.159  0.00  0.00    +0.000 A 
ATOM     36  C   UNL     1      -1.888  12.765  22.372  0.00  0.00    +0.000 A 
ENDBRANCH  26  27
ENDBRANCH  25  26
ENDBRANCH  22  25
ENDBRANCH   1  19
TORSDOF 8
ENDMDL
MODEL 9
REMARK VINA RESULT:      -8.9      2.149      3.530
REMARK  Name = 
REMARK  9 active torsions:
REMARK  status: ('A' for Active; 'I' for Inactive)
REMARK    1  A    between atoms: C_1  and  C_2
REMARK    2  A    between atoms: C_2  and  O_3
REMARK    3  A    between atoms: N_7  and  S_8
REMARK    4  A    between atoms: S_8  and  C_11
REMARK    5  A    between atoms: C_14  and  O_15
REMARK    6  A    between atoms: O_15  and  C_16
REMARK    7  A    between atoms: C_16  and  C_17
REMARK    8  A    between atoms: C_29  and  C_30
REMARK    9  A    between atoms: N_32  and  O_33
REMARK                            x       y       z     vdW  Elec       q    Type
REMARK                         _______ _______ _______ _____ _____    ______ ____
ROOT
ATOM      1  S   UNL     1       2.625   5.359  19.292  0.00  0.00    +0.000 S 
ATOM      2  O   UNL     1       1.694   4.644  18.442  0.00  0.00    +0.000 OA
ATOM      3  O   UNL     1       2.888   4.888  20.638  0.00  0.00    +0.000 OA
ENDROOT
BRANCH   1   9
ATOM      4  C   UNL     1       5.473   5.425  15.596  0.00  0.00    +0.000 C 
ATOM      5  C   UNL     1       5.662   4.345  16.676  0.00  0.00    +0.000 C 
ATOM      6  C   UNL     1       6.874   4.676  17.554  0.00  0.00    +0.000 C 
ATOM      7  C   UNL     1       6.616   5.911  18.409  0.00  0.00    +0.000 C 
ATOM      8  C   UNL     1       5.322   5.849  19.226  0.00  0.00    +0.000 C 
ATOM      9  N   UNL     1       4.152   5.334  18.470  0.00  0.00    +0.000 NA
ATOM     10  C   UNL     1       4.404   4.156  17.576  0.00  0.00    +0.000 C 
BRANCH  10  11
ATOM     11  C   UNL     1       4.537   2.875  18.404  0.00  0.00    +0.000 C 
ATOM     12  O   UNL     1       5.069   2.826  19.516  0.00  0.00    +0.000 OA
ATOM     13  N   UNL     1       4.025   1.732  17.827  0.00  0.00    +0.000 N 
ATOM     14  H   UNL     1       4.149   1.625  16.807  0.00  0.00    +0.000 HD
BRANCH  13  15
ATOM     15  O   UNL     1       4.263   0.572  18.612  0.00  0.00    +0.000 OA
ATOM     16  H   UNL     1       3.528   0.606  19.271  0.00  0.00    +0.000 HD
ENDBRANCH  13  15
ENDBRANCH  10  11
BRANCH   5  17
ATOM     17  O   UNL     1       5.929   3.122  15.961  0.00  0.00    +0.000 OA
ATOM     18  H   UNL     1       6.646   2.651  16.429  0.00  0.00    +0.000 HD
ENDBRANCH   5  17
ENDBRANCH   1   9
BRANCH   1  19
ATOM     19  C   UNL     1       1.979   7.051  19.443  0.00  0.00    +0.000 A 
ATOM     20  C   UNL     1       1.532   7.551  20.668  0.00  0.00    +0.000 A 
ATOM     21  C   UNL     1       1.080   8.905  20.782  0.00  0.00    +0.000 A 
ATOM     22  C   UNL     1       1.123   9.823  19.709  0.00  0.00    +0.000 A 
ATOM     23  C   UNL     1       1.639   9.330  18.514  0.00  0.00    +0.000 A 
ATOM     24  C   UNL     1       2.069   7.965  18.381  0.00  0.00    +0.000 A 
BRANCH  22  25
ATOM     25  O   UNL     1       0.510  11.056  19.877  0.00  0.00    +0.000 OA
BRANCH  25  26
ATOM     26  C   UNL     1       0.687  12.207  18.962  0.00  0.00    +0.000 C 
BRANCH  26  27
ATOM     27  C   UNL     1       1.869  13.240  19.352  0.00  0.00    +0.000 A 
ATOM     28  C   UNL     1       1.774  13.472  20.706  0.00  0.00    +0.000 A 
ATOM     29  C   UNL     1       1.038  14.593  21.026  0.00  0.00    +0.000 A 
ATOM     30  N   UNL     1       0.684  15.552  20.137  0.00  0.00    +0.000 NA
ATOM     31  C   UNL     1       1.350  15.567  18.984  0.00  0.00    +0.000 A 
ATOM     32  C   UNL     1       1.485  16.803  18.354  0.00  0.00    +0.000 A 
ATOM     33  C   UNL     1       2.577  17.091  17.544  0.00  0.00    +0.000 A 
ATOM     34  C   UNL     1       3.518  16.094  17.335  0.00  0.00    +0.000 A 
ATOM     35  C   UNL     1       3.269  14.781  17.810  0.00  0.00    +0.000 A 
ATOM     36  C   UNL     1       2.109  14.452  18.592  0.00  0.00    +0.000 A 
ENDBRANCH  26  27
ENDBRANCH  25  26
ENDBRANCH  22  25
ENDBRANCH   1  19
TORSDOF 8
ENDMDL
