MODEL 1
REMARK VINA RESULT:      -7.6      0.000      0.000
REMARK  Name = 
REMARK  4 active torsions:
REMARK  status: ('A' for Active; 'I' for Inactive)
REMARK    1  A    between atoms: C_2  and  C_3
REMARK    2  A    between atoms: C_6  and  N_7
REMARK    3  A    between atoms: N_7  and  C_8
REMARK    4  A    between atoms: C_13  and  C_14
REMARK                            x       y       z     vdW  Elec       q    Type
REMARK                         _______ _______ _______ _____ _____    ______ ____
ROOT
ATOM      1  C   UNL     1       3.609   4.303  19.795  0.00  0.00    +0.000 A 
ATOM      2  C   UNL     1       2.581   5.234  20.052  0.00  0.00    +0.000 A 
ATOM      3  C   UNL     1       1.333   4.834  20.523  0.00  0.00    +0.000 A 
ATOM      4  C   UNL     1       1.063   3.483  20.696  0.00  0.00    +0.000 A 
ATOM      5  C   UNL     1       2.045   2.537  20.399  0.00  0.00    +0.000 A 
ATOM      6  C   UNL     1       3.320   2.933  19.955  0.00  0.00    +0.000 A 
ENDROOT
BRANCH   6   7
ATOM      7  C   UNL     1       4.305   1.837  19.732  0.00  0.00    +0.000 C 
ATOM      8  N   UNL     1       4.126   1.037  18.642  0.00  0.00    +0.000 N 
ATOM      9  O   UNL     1       5.271   1.680  20.470  0.00  0.00    +0.000 OA
ATOM     10  H   UNL     1       3.348   1.174  18.005  0.00  0.00    +0.000 HD
ATOM     11  H   UNL     1       4.824   0.338  18.435  0.00  0.00    +0.000 HD
ENDBRANCH   6   7
BRANCH   1  12
ATOM     12  N   UNL     1       4.858   4.759  19.283  0.00  0.00    +0.000 N 
ATOM     13  H   UNL     1       5.596   4.518  19.944  0.00  0.00    +0.000 HD
BRANCH  12  17
ATOM     14  C   UNL     1       6.120   4.356  15.272  0.00  0.00    +0.000 A 
ATOM     15  C   UNL     1       4.761   4.351  15.577  0.00  0.00    +0.000 A 
ATOM     16  C   UNL     1       4.350   4.500  16.899  0.00  0.00    +0.000 A 
ATOM     17  C   UNL     1       5.285   4.612  17.940  0.00  0.00    +0.000 A 
ATOM     18  C   UNL     1       6.647   4.644  17.619  0.00  0.00    +0.000 A 
ATOM     19  C   UNL     1       7.064   4.507  16.292  0.00  0.00    +0.000 A 
BRANCH  14  21
ATOM     20  C   UNL     1       6.904   4.112  12.780  0.00  0.00    +0.000 C 
ATOM     21  C   UNL     1       6.540   4.235  13.915  0.00  0.00    +0.000 C 
ENDBRANCH  14  21
ENDBRANCH  12  17
ENDBRANCH   1  12
TORSDOF 4
ENDMDL
MODEL 2
REMARK VINA RESULT:      -7.6      0.118      1.143
REMARK  Name = 
REMARK  4 active torsions:
REMARK  status: ('A' for Active; 'I' for Inactive)
REMARK    1  A    between atoms: C_2  and  C_3
REMARK    2  A    between atoms: C_6  and  N_7
REMARK    3  A    between atoms: N_7  and  C_8
REMARK    4  A    between atoms: C_13  and  C_14
REMARK                            x       y       z     vdW  Elec       q    Type
REMARK                         _______ _______ _______ _____ _____    ______ ____
ROOT
ATOM      1  C   UNL     1       3.699   4.335  19.771  0.00  0.00    +0.000 A 
ATOM      2  C   UNL     1       2.702   5.304  20.009  0.00  0.00    +0.000 A 
ATOM      3  C   UNL     1       1.448   4.955  20.506  0.00  0.00    +0.000 A 
ATOM      4  C   UNL     1       1.142   3.619  20.726  0.00  0.00    +0.000 A 
ATOM      5  C   UNL     1       2.092   2.635  20.448  0.00  0.00    +0.000 A 
ATOM      6  C   UNL     1       3.372   2.980  19.978  0.00  0.00    +0.000 A 
ENDROOT
BRANCH   6   7
ATOM      7  C   UNL     1       4.323   1.848  19.780  0.00  0.00    +0.000 C 
ATOM      8  N   UNL     1       4.125   1.038  18.700  0.00  0.00    +0.000 N 
ATOM      9  O   UNL     1       5.278   1.671  20.528  0.00  0.00    +0.000 OA
ATOM     10  H   UNL     1       3.357   1.191  18.055  0.00  0.00    +0.000 HD
ATOM     11  H   UNL     1       4.802   0.313  18.510  0.00  0.00    +0.000 HD
ENDBRANCH   6   7
BRANCH   1  12
ATOM     12  N   UNL     1       4.955   4.738  19.231  0.00  0.00    +0.000 N 
ATOM     13  H   UNL     1       5.699   4.437  19.861  0.00  0.00    +0.000 HD
BRANCH  12  17
ATOM     14  C   UNL     1       6.093   4.312  15.186  0.00  0.00    +0.000 A 
ATOM     15  C   UNL     1       7.064   4.502  16.165  0.00  0.00    +0.000 A 
ATOM     16  C   UNL     1       6.684   4.628  17.499  0.00  0.00    +0.000 A 
ATOM     17  C   UNL     1       5.331   4.607  17.871  0.00  0.00    +0.000 A 
ATOM     18  C   UNL     1       4.366   4.386  16.883  0.00  0.00    +0.000 A 
ATOM     19  C   UNL     1       4.743   4.248  15.544  0.00  0.00    +0.000 A 
BRANCH  14  21
ATOM     20  C   UNL     1       6.814   3.996  12.683  0.00  0.00    +0.000 C 
ATOM     21  C   UNL     1       6.483   4.153  13.824  0.00  0.00    +0.000 C 
ENDBRANCH  14  21
ENDBRANCH  12  17
ENDBRANCH   1  12
TORSDOF 4
ENDMDL
MODEL 3
REMARK VINA RESULT:      -7.3      2.336      3.162
REMARK  Name = 
REMARK  4 active torsions:
REMARK  status: ('A' for Active; 'I' for Inactive)
REMARK    1  A    between atoms: C_2  and  C_3
REMARK    2  A    between atoms: C_6  and  N_7
REMARK    3  A    between atoms: N_7  and  C_8
REMARK    4  A    between atoms: C_13  and  C_14
REMARK                            x       y       z     vdW  Elec       q    Type
REMARK                         _______ _______ _______ _____ _____    ______ ____
ROOT
ATOM      1  C   UNL     1       3.869   3.640  17.945  0.00  0.00    +0.000 A 
ATOM      2  C   UNL     1       2.870   4.477  17.406  0.00  0.00    +0.000 A 
ATOM      3  C   UNL     1       1.530   4.336  17.759  0.00  0.00    +0.000 A 
ATOM      4  C   UNL     1       1.148   3.316  18.620  0.00  0.00    +0.000 A 
ATOM      5  C   UNL     1       2.110   2.441  19.126  0.00  0.00    +0.000 A 
ATOM      6  C   UNL     1       3.470   2.596  18.803  0.00  0.00    +0.000 A 
ENDROOT
BRANCH   6   7
ATOM      7  C   UNL     1       4.411   1.642  19.456  0.00  0.00    +0.000 C 
ATOM      8  N   UNL     1       4.509   0.388  18.926  0.00  0.00    +0.000 N 
ATOM      9  O   UNL     1       5.109   1.975  20.406  0.00  0.00    +0.000 OA
ATOM     10  H   UNL     1       3.960   0.108  18.120  0.00  0.00    +0.000 HD
ATOM     11  H   UNL     1       5.195  -0.246  19.310  0.00  0.00    +0.000 HD
ENDBRANCH   6   7
BRANCH   1  12
ATOM     12  N   UNL     1       5.222   3.803  17.528  0.00  0.00    +0.000 N 
ATOM     13  H   UNL     1       5.340   3.373  16.611  0.00  0.00    +0.000 HD
BRANCH  12  17
ATOM     14  C   UNL     1       7.413   7.396  17.898  0.00  0.00    +0.000 A 
ATOM     15  C   UNL     1       6.358   7.314  16.992  0.00  0.00    +0.000 A 
ATOM     16  C   UNL     1       5.630   6.132  16.885  0.00  0.00    +0.000 A 
ATOM     17  C   UNL     1       5.967   5.003  17.646  0.00  0.00    +0.000 A 
ATOM     18  C   UNL     1       7.010   5.104  18.573  0.00  0.00    +0.000 A 
ATOM     19  C   UNL     1       7.737   6.292  18.693  0.00  0.00    +0.000 A 
BRANCH  14  21
ATOM     20  C   UNL     1       8.754   9.640  18.117  0.00  0.00    +0.000 C 
ATOM     21  C   UNL     1       8.139   8.615  18.030  0.00  0.00    +0.000 C 
ENDBRANCH  14  21
ENDBRANCH  12  17
ENDBRANCH   1  12
TORSDOF 4
ENDMDL
MODEL 4
REMARK VINA RESULT:      -7.3      2.342      3.311
REMARK  Name = 
REMARK  4 active torsions:
REMARK  status: ('A' for Active; 'I' for Inactive)
REMARK    1  A    between atoms: C_2  and  C_3
REMARK    2  A    between atoms: C_6  and  N_7
REMARK    3  A    between atoms: N_7  and  C_8
REMARK    4  A    between atoms: C_13  and  C_14
REMARK                            x       y       z     vdW  Elec       q    Type
REMARK                         _______ _______ _______ _____ _____    ______ ____
ROOT
ATOM      1  C   UNL     1       3.872   3.620  17.970  0.00  0.00    +0.000 A 
ATOM      2  C   UNL     1       2.868   4.444  17.419  0.00  0.00    +0.000 A 
ATOM      3  C   UNL     1       1.525   4.281  17.751  0.00  0.00    +0.000 A 
ATOM      4  C   UNL     1       1.146   3.252  18.603  0.00  0.00    +0.000 A 
ATOM      5  C   UNL     1       2.113   2.389  19.120  0.00  0.00    +0.000 A 
ATOM      6  C   UNL     1       3.476   2.566  18.817  0.00  0.00    +0.000 A 
ENDROOT
BRANCH   6   7
ATOM      7  C   UNL     1       4.421   1.623  19.480  0.00  0.00    +0.000 C 
ATOM      8  N   UNL     1       4.531   0.367  18.958  0.00  0.00    +0.000 N 
ATOM      9  O   UNL     1       5.113   1.967  20.431  0.00  0.00    +0.000 OA
ATOM     10  H   UNL     1       3.988   0.077  18.152  0.00  0.00    +0.000 HD
ATOM     11  H   UNL     1       5.220  -0.260  19.349  0.00  0.00    +0.000 HD
ENDBRANCH   6   7
BRANCH   1  12
ATOM     12  N   UNL     1       5.228   3.805  17.573  0.00  0.00    +0.000 N 
ATOM     13  H   UNL     1       5.370   3.368  16.662  0.00  0.00    +0.000 HD
BRANCH  12  17
ATOM     14  C   UNL     1       7.407   7.408  17.910  0.00  0.00    +0.000 A 
ATOM     15  C   UNL     1       7.751   6.310  18.695  0.00  0.00    +0.000 A 
ATOM     16  C   UNL     1       7.039   5.121  18.569  0.00  0.00    +0.000 A 
ATOM     17  C   UNL     1       5.948   5.019  17.692  0.00  0.00    +0.000 A 
ATOM     18  C   UNL     1       5.629   6.118  16.887  0.00  0.00    +0.000 A 
ATOM     19  C   UNL     1       6.348   7.311  17.002  0.00  0.00    +0.000 A 
BRANCH  14  21
ATOM     20  C   UNL     1       8.791   9.626  18.129  0.00  0.00    +0.000 C 
ATOM     21  C   UNL     1       8.155   8.616  18.017  0.00  0.00    +0.000 C 
ENDBRANCH  14  21
ENDBRANCH  12  17
ENDBRANCH   1  12
TORSDOF 4
ENDMDL
MODEL 5
REMARK VINA RESULT:      -7.2      1.791      2.767
REMARK  Name = 
REMARK  4 active torsions:
REMARK  status: ('A' for Active; 'I' for Inactive)
REMARK    1  A    between atoms: C_2  and  C_3
REMARK    2  A    between atoms: C_6  and  N_7
REMARK    3  A    between atoms: N_7  and  C_8
REMARK    4  A    between atoms: C_13  and  C_14
REMARK                            x       y       z     vdW  Elec       q    Type
REMARK                         _______ _______ _______ _____ _____    ______ ____
ROOT
ATOM      1  C   UNL     1       3.546   4.295  19.758  0.00  0.00    +0.000 A 
ATOM      2  C   UNL     1       3.416   2.945  20.147  0.00  0.00    +0.000 A 
ATOM      3  C   UNL     1       2.235   2.455  20.699  0.00  0.00    +0.000 A 
ATOM      4  C   UNL     1       1.171   3.317  20.929  0.00  0.00    +0.000 A 
ATOM      5  C   UNL     1       1.293   4.669  20.603  0.00  0.00    +0.000 A 
ATOM      6  C   UNL     1       2.469   5.167  20.013  0.00  0.00    +0.000 A 
ENDROOT
BRANCH   6   7
ATOM      7  C   UNL     1       2.456   6.613  19.649  0.00  0.00    +0.000 C 
ATOM      8  N   UNL     1       2.067   7.503  20.608  0.00  0.00    +0.000 N 
ATOM      9  O   UNL     1       2.824   7.003  18.547  0.00  0.00    +0.000 OA
ATOM     10  H   UNL     1       1.789   7.197  21.534  0.00  0.00    +0.000 HD
ATOM     11  H   UNL     1       2.124   8.489  20.402  0.00  0.00    +0.000 HD
ENDBRANCH   6   7
BRANCH   1  12
ATOM     12  N   UNL     1       4.785   4.756  19.228  0.00  0.00    +0.000 N 
ATOM     13  H   UNL     1       5.529   4.552  19.896  0.00  0.00    +0.000 HD
BRANCH  12  17
ATOM     14  C   UNL     1       6.045   4.235  15.230  0.00  0.00    +0.000 A 
ATOM     15  C   UNL     1       4.699   4.093  15.560  0.00  0.00    +0.000 A 
ATOM     16  C   UNL     1       4.288   4.280  16.876  0.00  0.00    +0.000 A 
ATOM     17  C   UNL     1       5.214   4.570  17.890  0.00  0.00    +0.000 A 
ATOM     18  C   UNL     1       6.559   4.739  17.543  0.00  0.00    +0.000 A 
ATOM     19  C   UNL     1       6.975   4.563  16.221  0.00  0.00    +0.000 A 
BRANCH  14  21
ATOM     20  C   UNL     1       6.834   3.948  12.744  0.00  0.00    +0.000 C 
ATOM     21  C   UNL     1       6.462   4.073  13.877  0.00  0.00    +0.000 C 
ENDBRANCH  14  21
ENDBRANCH  12  17
ENDBRANCH   1  12
TORSDOF 4
ENDMDL
MODEL 6
REMARK VINA RESULT:      -7.2      1.773      2.973
REMARK  Name = 
REMARK  4 active torsions:
REMARK  status: ('A' for Active; 'I' for Inactive)
REMARK    1  A    between atoms: C_2  and  C_3
REMARK    2  A    between atoms: C_6  and  N_7
REMARK    3  A    between atoms: N_7  and  C_8
REMARK    4  A    between atoms: C_13  and  C_14
REMARK                            x       y       z     vdW  Elec       q    Type
REMARK                         _______ _______ _______ _____ _____    ______ ____
ROOT
ATOM      1  C   UNL     1       3.544   4.239  19.757  0.00  0.00    +0.000 A 
ATOM      2  C   UNL     1       3.393   2.892  20.149  0.00  0.00    +0.000 A 
ATOM      3  C   UNL     1       2.200   2.417  20.689  0.00  0.00    +0.000 A 
ATOM      4  C   UNL     1       1.143   3.292  20.900  0.00  0.00    +0.000 A 
ATOM      5  C   UNL     1       1.284   4.641  20.570  0.00  0.00    +0.000 A 
ATOM      6  C   UNL     1       2.473   5.124  19.994  0.00  0.00    +0.000 A 
ENDROOT
BRANCH   6   7
ATOM      7  C   UNL     1       2.481   6.568  19.623  0.00  0.00    +0.000 C 
ATOM      8  N   UNL     1       2.121   7.469  20.583  0.00  0.00    +0.000 N 
ATOM      9  O   UNL     1       2.841   6.946  18.514  0.00  0.00    +0.000 OA
ATOM     10  H   UNL     1       1.851   7.172  21.514  0.00  0.00    +0.000 HD
ATOM     11  H   UNL     1       2.193   8.453  20.371  0.00  0.00    +0.000 HD
ENDBRANCH   6   7
BRANCH   1  12
ATOM     12  N   UNL     1       4.795   4.684  19.240  0.00  0.00    +0.000 N 
ATOM     13  H   UNL     1       5.536   4.416  19.888  0.00  0.00    +0.000 HD
BRANCH  12  17
ATOM     14  C   UNL     1       6.038   4.271  15.225  0.00  0.00    +0.000 A 
ATOM     15  C   UNL     1       6.967   4.595  16.211  0.00  0.00    +0.000 A 
ATOM     16  C   UNL     1       6.554   4.715  17.535  0.00  0.00    +0.000 A 
ATOM     17  C   UNL     1       5.206   4.557  17.890  0.00  0.00    +0.000 A 
ATOM     18  C   UNL     1       4.286   4.203  16.897  0.00  0.00    +0.000 A 
ATOM     19  C   UNL     1       4.697   4.070  15.568  0.00  0.00    +0.000 A 
BRANCH  14  21
ATOM     20  C   UNL     1       6.827   3.965  12.741  0.00  0.00    +0.000 C 
ATOM     21  C   UNL     1       6.466   4.117  13.874  0.00  0.00    +0.000 C 
ENDBRANCH  14  21
ENDBRANCH  12  17
ENDBRANCH   1  12
TORSDOF 4
ENDMDL
MODEL 7
REMARK VINA RESULT:      -7.1      3.518      5.780
REMARK  Name = 
REMARK  4 active torsions:
REMARK  status: ('A' for Active; 'I' for Inactive)
REMARK    1  A    between atoms: C_2  and  C_3
REMARK    2  A    between atoms: C_6  and  N_7
REMARK    3  A    between atoms: N_7  and  C_8
REMARK    4  A    between atoms: C_13  and  C_14
REMARK                            x       y       z     vdW  Elec       q    Type
REMARK                         _______ _______ _______ _____ _____    ______ ____
ROOT
ATOM      1  C   UNL     1       2.541   4.897  19.769  0.00  0.00    +0.000 A 
ATOM      2  C   UNL     1       1.297   4.411  20.225  0.00  0.00    +0.000 A 
ATOM      3  C   UNL     1       0.851   3.131  19.904  0.00  0.00    +0.000 A 
ATOM      4  C   UNL     1       1.615   2.323  19.073  0.00  0.00    +0.000 A 
ATOM      5  C   UNL     1       2.825   2.799  18.565  0.00  0.00    +0.000 A 
ATOM      6  C   UNL     1       3.300   4.078  18.910  0.00  0.00    +0.000 A 
ENDROOT
BRANCH   6   7
ATOM      7  C   UNL     1       4.635   4.450  18.360  0.00  0.00    +0.000 C 
ATOM      8  N   UNL     1       5.686   3.625  18.638  0.00  0.00    +0.000 N 
ATOM      9  O   UNL     1       4.785   5.434  17.645  0.00  0.00    +0.000 OA
ATOM     10  H   UNL     1       5.570   2.790  19.203  0.00  0.00    +0.000 HD
ATOM     11  H   UNL     1       6.580   3.822  18.212  0.00  0.00    +0.000 HD
ENDBRANCH   6   7
BRANCH   1  12
ATOM     12  N   UNL     1       2.938   6.225  20.097  0.00  0.00    +0.000 N 
ATOM     13  H   UNL     1       3.935   6.331  19.905  0.00  0.00    +0.000 HD
BRANCH  12  17
ATOM     14  C   UNL     1       0.797   9.732  19.118  0.00  0.00    +0.000 A 
ATOM     15  C   UNL     1       0.744   9.224  20.413  0.00  0.00    +0.000 A 
ATOM     16  C   UNL     1       1.464   8.076  20.734  0.00  0.00    +0.000 A 
ATOM     17  C   UNL     1       2.211   7.394  19.761  0.00  0.00    +0.000 A 
ATOM     18  C   UNL     1       2.281   7.930  18.471  0.00  0.00    +0.000 A 
ATOM     19  C   UNL     1       1.570   9.088  18.146  0.00  0.00    +0.000 A 
BRANCH  14  21
ATOM     20  C   UNL     1      -0.521  11.928  18.549  0.00  0.00    +0.000 C 
ATOM     21  C   UNL     1       0.085  10.924  18.796  0.00  0.00    +0.000 C 
ENDBRANCH  14  21
ENDBRANCH  12  17
ENDBRANCH   1  12
TORSDOF 4
ENDMDL
MODEL 8
REMARK VINA RESULT:      -7.0      3.610      5.830
REMARK  Name = 
REMARK  4 active torsions:
REMARK  status: ('A' for Active; 'I' for Inactive)
REMARK    1  A    between atoms: C_2  and  C_3
REMARK    2  A    between atoms: C_6  and  N_7
REMARK    3  A    between atoms: N_7  and  C_8
REMARK    4  A    between atoms: C_13  and  C_14
REMARK                            x       y       z     vdW  Elec       q    Type
REMARK                         _______ _______ _______ _____ _____    ______ ____
ROOT
ATOM      1  C   UNL     1       2.454   4.895  19.571  0.00  0.00    +0.000 A 
ATOM      2  C   UNL     1       1.332   4.394  20.263  0.00  0.00    +0.000 A 
ATOM      3  C   UNL     1       0.792   3.143  19.970  0.00  0.00    +0.000 A 
ATOM      4  C   UNL     1       1.329   2.385  18.939  0.00  0.00    +0.000 A 
ATOM      5  C   UNL     1       2.407   2.881  18.203  0.00  0.00    +0.000 A 
ATOM      6  C   UNL     1       2.980   4.128  18.513  0.00  0.00    +0.000 A 
ENDROOT
BRANCH   6   7
ATOM      7  C   UNL     1       4.167   4.521  17.701  0.00  0.00    +0.000 C 
ATOM      8  N   UNL     1       5.258   3.702  17.738  0.00  0.00    +0.000 N 
ATOM      9  O   UNL     1       4.158   5.517  16.987  0.00  0.00    +0.000 OA
ATOM     10  H   UNL     1       5.269   2.858  18.300  0.00  0.00    +0.000 HD
ATOM     11  H   UNL     1       6.042   3.915  17.138  0.00  0.00    +0.000 HD
ENDBRANCH   6   7
BRANCH   1  12
ATOM     12  N   UNL     1       2.949   6.194  19.884  0.00  0.00    +0.000 N 
ATOM     13  H   UNL     1       3.928   6.253  19.604  0.00  0.00    +0.000 HD
BRANCH  12  17
ATOM     14  C   UNL     1       0.861   9.786  19.124  0.00  0.00    +0.000 A 
ATOM     15  C   UNL     1       1.554   9.154  18.095  0.00  0.00    +0.000 A 
ATOM     16  C   UNL     1       2.228   7.962  18.348  0.00  0.00    +0.000 A 
ATOM     17  C   UNL     1       2.258   7.406  19.636  0.00  0.00    +0.000 A 
ATOM     18  C   UNL     1       1.534   8.034  20.656  0.00  0.00    +0.000 A 
ATOM     19  C   UNL     1       0.847   9.225  20.404  0.00  0.00    +0.000 A 
BRANCH  14  21
ATOM     20  C   UNL     1      -0.477  11.991  18.639  0.00  0.00    +0.000 C 
ATOM     21  C   UNL     1       0.146  10.990  18.858  0.00  0.00    +0.000 C 
ENDBRANCH  14  21
ENDBRANCH  12  17
ENDBRANCH   1  12
TORSDOF 4
ENDMDL
MODEL 9
REMARK VINA RESULT:      -7.0      2.051      2.788
REMARK  Name = 
REMARK  4 active torsions:
REMARK  status: ('A' for Active; 'I' for Inactive)
REMARK    1  A    between atoms: C_2  and  C_3
REMARK    2  A    between atoms: C_6  and  N_7
REMARK    3  A    between atoms: N_7  and  C_8
REMARK    4  A    between atoms: C_13  and  C_14
REMARK                            x       y       z     vdW  Elec       q    Type
REMARK                         _______ _______ _______ _____ _____    ______ ____
ROOT
ATOM      1  C   UNL     1       2.918   3.666  18.930  0.00  0.00    +0.000 A 
ATOM      2  C   UNL     1       1.760   4.451  19.119  0.00  0.00    +0.000 A 
ATOM      3  C   UNL     1       0.867   4.197  20.158  0.00  0.00    +0.000 A 
ATOM      4  C   UNL     1       1.081   3.115  21.002  0.00  0.00    +0.000 A 
ATOM      5  C   UNL     1       2.191   2.291  20.804  0.00  0.00    +0.000 A 
ATOM      6  C   UNL     1       3.116   2.559  19.779  0.00  0.00    +0.000 A 
ENDROOT
BRANCH   6   7
ATOM      7  C   UNL     1       4.295   1.649  19.708  0.00  0.00    +0.000 C 
ATOM      8  N   UNL     1       4.328   0.736  18.694  0.00  0.00    +0.000 N 
ATOM      9  O   UNL     1       5.227   1.739  20.498  0.00  0.00    +0.000 OA
ATOM     10  H   UNL     1       3.579   0.671  18.014  0.00  0.00    +0.000 HD
ATOM     11  H   UNL     1       5.153   0.163  18.587  0.00  0.00    +0.000 HD
ENDBRANCH   6   7
BRANCH   1  12
ATOM     12  N   UNL     1       3.783   3.945  17.834  0.00  0.00    +0.000 N 
ATOM     13  H   UNL     1       3.245   3.906  16.968  0.00  0.00    +0.000 HD
BRANCH  12  17
ATOM     14  C   UNL     1       6.683   7.015  17.733  0.00  0.00    +0.000 A 
ATOM     15  C   UNL     1       6.873   5.906  18.553  0.00  0.00    +0.000 A 
ATOM     16  C   UNL     1       5.921   4.890  18.571  0.00  0.00    +0.000 A 
ATOM     17  C   UNL     1       4.748   4.983  17.806  0.00  0.00    +0.000 A 
ATOM     18  C   UNL     1       4.581   6.088  16.964  0.00  0.00    +0.000 A 
ATOM     19  C   UNL     1       5.539   7.105  16.934  0.00  0.00    +0.000 A 
BRANCH  14  21
ATOM     20  C   UNL     1       8.488   8.918  17.646  0.00  0.00    +0.000 C 
ATOM     21  C   UNL     1       7.672   8.040  17.691  0.00  0.00    +0.000 C 
ENDBRANCH  14  21
ENDBRANCH  12  17
ENDBRANCH   1  12
TORSDOF 4
ENDMDL
