MODEL 1
REMARK VINA RESULT:      -8.4      0.000      0.000
REMARK  Name = 
REMARK  6 active torsions:
REMARK  status: ('A' for Active; 'I' for Inactive)
REMARK    1  A    between atoms: C_1  and  C_2
REMARK    2  A    between atoms: C_4  and  N_5
REMARK    3  A    between atoms: N_5  and  C_6
REMARK    4  A    between atoms: C_9  and  N_10
REMARK    5  A    between atoms: C_11  and  C_13
REMARK    6  A    between atoms: C_16  and  N_17
REMARK                            x       y       z     vdW  Elec       q    Type
REMARK                         _______ _______ _______ _____ _____    ______ ____
ROOT
ATOM      1  C   UNL     1       4.907   5.100  16.911  0.00  0.00    +0.000 A 
ATOM      2  C   UNL     1       3.748   4.528  17.438  0.00  0.00    +0.000 A 
ATOM      3  C   UNL     1       2.857   5.288  18.199  0.00  0.00    +0.000 A 
ATOM      4  C   UNL     1       3.116   6.633  18.472  0.00  0.00    +0.000 A 
ATOM      5  C   UNL     1       4.231   7.232  17.882  0.00  0.00    +0.000 A 
ATOM      6  C   UNL     1       5.120   6.469  17.113  0.00  0.00    +0.000 A 
ENDROOT
BRANCH   4   7
ATOM      7  N   UNL     1       2.306   7.409  19.329  0.00  0.00    +0.000 N 
ATOM      8  C   UNL     1       1.627   8.560  18.960  0.00  0.00    +0.000 C 
ATOM      9  O   UNL     1       1.581   9.032  17.827  0.00  0.00    +0.000 OA
ATOM     10  H   UNL     1       2.171   7.044  20.263  0.00  0.00    +0.000 HD
BRANCH   8  11
ATOM     11  C   UNL     1       0.892   9.293  20.027  0.00  0.00    +0.000 A 
ATOM     12  C   UNL     1       0.668   8.605  21.228  0.00  0.00    +0.000 A 
ATOM     13  C   UNL     1      -0.038   9.206  22.270  0.00  0.00    +0.000 A 
ATOM     14  C   UNL     1      -0.486  10.520  22.154  0.00  0.00    +0.000 A 
ATOM     15  C   UNL     1      -0.283  11.197  20.948  0.00  0.00    +0.000 A 
ATOM     16  C   UNL     1       0.424  10.603  19.894  0.00  0.00    +0.000 A 
BRANCH  14  17
ATOM     17  N   UNL     1      -1.323  11.061  23.136  0.00  0.00    +0.000 N 
ATOM     18  H   UNL     1      -0.902  11.095  24.060  0.00  0.00    +0.000 HD
ATOM     19  H   UNL     1      -1.754  11.942  22.877  0.00  0.00    +0.000 HD
ENDBRANCH  14  17
ENDBRANCH   8  11
ENDBRANCH   4   7
BRANCH   1  20
ATOM     20  N   UNL     1       5.868   4.273  16.302  0.00  0.00    +0.000 N 
ATOM     21  H   UNL     1       5.824   3.310  16.615  0.00  0.00    +0.000 HD
BRANCH  20  25
ATOM     22  C   UNL     1       5.571   2.813  11.648  0.00  0.00    +0.000 C 
ATOM     23  C   UNL     1       6.175   3.640  12.740  0.00  0.00    +0.000 A 
ATOM     24  C   UNL     1       5.690   3.578  14.027  0.00  0.00    +0.000 A 
ATOM     25  C   UNL     1       6.349   4.334  14.978  0.00  0.00    +0.000 A 
ATOM     26  N   UNL     1       7.396   5.113  14.664  0.00  0.00    +0.000 NA
ATOM     27  C   UNL     1       7.752   5.164  13.381  0.00  0.00    +0.000 A 
ATOM     28  N   UNL     1       8.784   6.013  13.039  0.00  0.00    +0.000 N 
ATOM     29  N   UNL     1       7.204   4.437  12.404  0.00  0.00    +0.000 NA
ATOM     30  H   UNL     1       9.361   6.192  13.847  0.00  0.00    +0.000 HD
ATOM     31  H   UNL     1       9.233   5.684  12.197  0.00  0.00    +0.000 HD
ENDBRANCH  20  25
ENDBRANCH   1  20
TORSDOF 5
ENDMDL
MODEL 2
REMARK VINA RESULT:      -8.4      5.178      8.180
REMARK  Name = 
REMARK  6 active torsions:
REMARK  status: ('A' for Active; 'I' for Inactive)
REMARK    1  A    between atoms: C_1  and  C_2
REMARK    2  A    between atoms: C_4  and  N_5
REMARK    3  A    between atoms: N_5  and  C_6
REMARK    4  A    between atoms: C_9  and  N_10
REMARK    5  A    between atoms: C_11  and  C_13
REMARK    6  A    between atoms: C_16  and  N_17
REMARK                            x       y       z     vdW  Elec       q    Type
REMARK                         _______ _______ _______ _____ _____    ______ ____
ROOT
ATOM      1  C   UNL     1       6.369   5.460  18.570  0.00  0.00    +0.000 A 
ATOM      2  C   UNL     1       5.907   6.283  17.541  0.00  0.00    +0.000 A 
ATOM      3  C   UNL     1       6.608   7.435  17.177  0.00  0.00    +0.000 A 
ATOM      4  C   UNL     1       7.775   7.804  17.848  0.00  0.00    +0.000 A 
ATOM      5  C   UNL     1       8.286   6.945  18.822  0.00  0.00    +0.000 A 
ATOM      6  C   UNL     1       7.586   5.786  19.182  0.00  0.00    +0.000 A 
ENDROOT
BRANCH   4   7
ATOM      7  N   UNL     1       8.454   9.016  17.593  0.00  0.00    +0.000 N 
ATOM      8  C   UNL     1       8.951   9.872  18.562  0.00  0.00    +0.000 C 
ATOM      9  O   UNL     1       8.930   9.670  19.775  0.00  0.00    +0.000 OA
ATOM     10  H   UNL     1       8.638   9.225  16.620  0.00  0.00    +0.000 HD
BRANCH   8  11
ATOM     11  C   UNL     1       9.561  11.150  18.101  0.00  0.00    +0.000 A 
ATOM     12  C   UNL     1       8.684  12.215  17.855  0.00  0.00    +0.000 A 
ATOM     13  C   UNL     1       9.166  13.440  17.393  0.00  0.00    +0.000 A 
ATOM     14  C   UNL     1      10.535  13.640  17.218  0.00  0.00    +0.000 A 
ATOM     15  C   UNL     1      11.405  12.569  17.441  0.00  0.00    +0.000 A 
ATOM     16  C   UNL     1      10.932  11.334  17.905  0.00  0.00    +0.000 A 
BRANCH  14  17
ATOM     17  N   UNL     1      10.995  14.812  16.610  0.00  0.00    +0.000 N 
ATOM     18  H   UNL     1      10.255  15.456  16.346  0.00  0.00    +0.000 HD
ATOM     19  H   UNL     1      11.746  15.275  17.114  0.00  0.00    +0.000 HD
ENDBRANCH  14  17
ENDBRANCH   8  11
ENDBRANCH   4   7
BRANCH   1  20
ATOM     20  N   UNL     1       5.554   4.410  19.030  0.00  0.00    +0.000 N 
ATOM     21  H   UNL     1       6.023   3.797  19.686  0.00  0.00    +0.000 HD
BRANCH  20  25
ATOM     22  C   UNL     1       1.172   2.262  18.767  0.00  0.00    +0.000 C 
ATOM     23  C   UNL     1       2.075   3.382  19.182  0.00  0.00    +0.000 A 
ATOM     24  C   UNL     1       3.427   3.336  18.926  0.00  0.00    +0.000 A 
ATOM     25  C   UNL     1       4.169   4.441  19.294  0.00  0.00    +0.000 A 
ATOM     26  N   UNL     1       3.610   5.502  19.896  0.00  0.00    +0.000 NA
ATOM     27  C   UNL     1       2.307   5.431  20.168  0.00  0.00    +0.000 A 
ATOM     28  N   UNL     1       1.738   6.488  20.846  0.00  0.00    +0.000 N 
ATOM     29  N   UNL     1       1.504   4.426  19.810  0.00  0.00    +0.000 NA
ATOM     30  H   UNL     1       2.296   7.318  20.715  0.00  0.00    +0.000 HD
ATOM     31  H   UNL     1       0.752   6.539  20.635  0.00  0.00    +0.000 HD
ENDBRANCH  20  25
ENDBRANCH   1  20
TORSDOF 5
ENDMDL
MODEL 3
REMARK VINA RESULT:      -8.3      5.184      7.980
REMARK  Name = 
REMARK  6 active torsions:
REMARK  status: ('A' for Active; 'I' for Inactive)
REMARK    1  A    between atoms: C_1  and  C_2
REMARK    2  A    between atoms: C_4  and  N_5
REMARK    3  A    between atoms: N_5  and  C_6
REMARK    4  A    between atoms: C_9  and  N_10
REMARK    5  A    between atoms: C_11  and  C_13
REMARK    6  A    between atoms: C_16  and  N_17
REMARK                            x       y       z     vdW  Elec       q    Type
REMARK                         _______ _______ _______ _____ _____    ______ ____
ROOT
ATOM      1  C   UNL     1       6.488   5.126  18.284  0.00  0.00    +0.000 A 
ATOM      2  C   UNL     1       5.996   5.869  17.208  0.00  0.00    +0.000 A 
ATOM      3  C   UNL     1       6.540   7.115  16.891  0.00  0.00    +0.000 A 
ATOM      4  C   UNL     1       7.574   7.660  17.655  0.00  0.00    +0.000 A 
ATOM      5  C   UNL     1       8.124   6.890  18.681  0.00  0.00    +0.000 A 
ATOM      6  C   UNL     1       7.581   5.636  18.995  0.00  0.00    +0.000 A 
ENDROOT
BRANCH   4   7
ATOM      7  N   UNL     1       8.077   8.962  17.442  0.00  0.00    +0.000 N 
ATOM      8  C   UNL     1       8.802   9.698  18.366  0.00  0.00    +0.000 C 
ATOM      9  O   UNL     1       9.165   9.301  19.471  0.00  0.00    +0.000 OA
ATOM     10  H   UNL     1       7.943   9.343  16.515  0.00  0.00    +0.000 HD
BRANCH   8  11
ATOM     11  C   UNL     1       9.174  11.090  17.993  0.00  0.00    +0.000 A 
ATOM     12  C   UNL     1      10.542  11.365  17.861  0.00  0.00    +0.000 A 
ATOM     13  C   UNL     1      10.981  12.650  17.542  0.00  0.00    +0.000 A 
ATOM     14  C   UNL     1      10.063  13.670  17.298  0.00  0.00    +0.000 A 
ATOM     15  C   UNL     1       8.700  13.400  17.454  0.00  0.00    +0.000 A 
ATOM     16  C   UNL     1       8.248  12.113  17.774  0.00  0.00    +0.000 A 
BRANCH  14  17
ATOM     17  N   UNL     1      10.510  14.985  17.133  0.00  0.00    +0.000 N 
ATOM     18  H   UNL     1       9.883  15.565  16.582  0.00  0.00    +0.000 HD
ATOM     19  H   UNL     1      10.797  15.439  17.994  0.00  0.00    +0.000 HD
ENDBRANCH  14  17
ENDBRANCH   8  11
ENDBRANCH   4   7
BRANCH   1  20
ATOM     20  N   UNL     1       5.807   3.963  18.686  0.00  0.00    +0.000 N 
ATOM     21  H   UNL     1       6.357   3.366  19.293  0.00  0.00    +0.000 HD
BRANCH  20  25
ATOM     22  C   UNL     1       1.732   5.722  20.732  0.00  0.00    +0.000 C 
ATOM     23  C   UNL     1       2.479   4.692  19.942  0.00  0.00    +0.000 A 
ATOM     24  C   UNL     1       3.817   4.849  19.659  0.00  0.00    +0.000 A 
ATOM     25  C   UNL     1       4.434   3.819  18.975  0.00  0.00    +0.000 A 
ATOM     26  N   UNL     1       3.761   2.727  18.580  0.00  0.00    +0.000 NA
ATOM     27  C   UNL     1       2.454   2.692  18.837  0.00  0.00    +0.000 A 
ATOM     28  N   UNL     1       1.742   1.605  18.376  0.00  0.00    +0.000 N 
ATOM     29  N   UNL     1       1.784   3.618  19.529  0.00  0.00    +0.000 NA
ATOM     30  H   UNL     1       2.364   0.823  18.238  0.00  0.00    +0.000 HD
ATOM     31  H   UNL     1       0.922   1.466  18.948  0.00  0.00    +0.000 HD
ENDBRANCH  20  25
ENDBRANCH   1  20
TORSDOF 5
ENDMDL
MODEL 4
REMARK VINA RESULT:      -8.3      0.856      1.142
REMARK  Name = 
REMARK  6 active torsions:
REMARK  status: ('A' for Active; 'I' for Inactive)
REMARK    1  A    between atoms: C_1  and  C_2
REMARK    2  A    between atoms: C_4  and  N_5
REMARK    3  A    between atoms: N_5  and  C_6
REMARK    4  A    between atoms: C_9  and  N_10
REMARK    5  A    between atoms: C_11  and  C_13
REMARK    6  A    between atoms: C_16  and  N_17
REMARK                            x       y       z     vdW  Elec       q    Type
REMARK                         _______ _______ _______ _____ _____    ______ ____
ROOT
ATOM      1  C   UNL     1       5.080   4.218  17.511  0.00  0.00    +0.000 A 
ATOM      2  C   UNL     1       5.597   4.914  18.606  0.00  0.00    +0.000 A 
ATOM      3  C   UNL     1       4.776   5.725  19.391  0.00  0.00    +0.000 A 
ATOM      4  C   UNL     1       3.422   5.879  19.088  0.00  0.00    +0.000 A 
ATOM      5  C   UNL     1       2.881   5.125  18.045  0.00  0.00    +0.000 A 
ATOM      6  C   UNL     1       3.704   4.306  17.262  0.00  0.00    +0.000 A 
ENDROOT
BRANCH   4   7
ATOM      7  N   UNL     1       2.580   6.776  19.782  0.00  0.00    +0.000 N 
ATOM      8  C   UNL     1       2.056   7.946  19.258  0.00  0.00    +0.000 C 
ATOM      9  O   UNL     1       2.194   8.338  18.101  0.00  0.00    +0.000 OA
ATOM     10  H   UNL     1       2.298   6.490  20.710  0.00  0.00    +0.000 HD
BRANCH   8  11
ATOM     11  C   UNL     1       1.258   8.809  20.172  0.00  0.00    +0.000 A 
ATOM     12  C   UNL     1       1.122   8.370  21.496  0.00  0.00    +0.000 A 
ATOM     13  C   UNL     1       0.367   9.102  22.413  0.00  0.00    +0.000 A 
ATOM     14  C   UNL     1      -0.221  10.310  22.040  0.00  0.00    +0.000 A 
ATOM     15  C   UNL     1      -0.105  10.734  20.713  0.00  0.00    +0.000 A 
ATOM     16  C   UNL     1       0.651  10.006  19.783  0.00  0.00    +0.000 A 
BRANCH  14  17
ATOM     17  N   UNL     1      -1.100  10.957  22.915  0.00  0.00    +0.000 N 
ATOM     18  H   UNL     1      -0.889  11.941  23.056  0.00  0.00    +0.000 HD
ATOM     19  H   UNL     1      -2.082  10.798  22.712  0.00  0.00    +0.000 HD
ENDBRANCH  14  17
ENDBRANCH   8  11
ENDBRANCH   4   7
BRANCH   1  20
ATOM     20  N   UNL     1       5.960   3.553  16.639  0.00  0.00    +0.000 N 
ATOM     21  H   UNL     1       5.947   2.546  16.747  0.00  0.00    +0.000 HD
BRANCH  20  25
ATOM     22  C   UNL     1       4.981   3.275  11.859  0.00  0.00    +0.000 C 
ATOM     23  C   UNL     1       5.786   3.774  13.018  0.00  0.00    +0.000 A 
ATOM     24  C   UNL     1       5.451   3.439  14.311  0.00  0.00    +0.000 A 
ATOM     25  C   UNL     1       6.287   3.897  15.311  0.00  0.00    +0.000 A 
ATOM     26  N   UNL     1       7.362   4.656  15.044  0.00  0.00    +0.000 NA
ATOM     27  C   UNL     1       7.569   4.990  13.770  0.00  0.00    +0.000 A 
ATOM     28  N   UNL     1       8.632   5.824  13.494  0.00  0.00    +0.000 N 
ATOM     29  N   UNL     1       6.843   4.557  12.737  0.00  0.00    +0.000 NA
ATOM     30  H   UNL     1       9.314   5.765  14.236  0.00  0.00    +0.000 HD
ATOM     31  H   UNL     1       8.946   5.677  12.546  0.00  0.00    +0.000 HD
ENDBRANCH  20  25
ENDBRANCH   1  20
TORSDOF 5
ENDMDL
MODEL 5
REMARK VINA RESULT:      -8.2      0.875      1.471
REMARK  Name = 
REMARK  6 active torsions:
REMARK  status: ('A' for Active; 'I' for Inactive)
REMARK    1  A    between atoms: C_1  and  C_2
REMARK    2  A    between atoms: C_4  and  N_5
REMARK    3  A    between atoms: N_5  and  C_6
REMARK    4  A    between atoms: C_9  and  N_10
REMARK    5  A    between atoms: C_11  and  C_13
REMARK    6  A    between atoms: C_16  and  N_17
REMARK                            x       y       z     vdW  Elec       q    Type
REMARK                         _______ _______ _______ _____ _____    ______ ____
ROOT
ATOM      1  C   UNL     1       5.483   4.371  17.343  0.00  0.00    +0.000 A 
ATOM      2  C   UNL     1       5.877   4.913  18.569  0.00  0.00    +0.000 A 
ATOM      3  C   UNL     1       4.974   5.629  19.357  0.00  0.00    +0.000 A 
ATOM      4  C   UNL     1       3.663   5.842  18.930  0.00  0.00    +0.000 A 
ATOM      5  C   UNL     1       3.239   5.236  17.746  0.00  0.00    +0.000 A 
ATOM      6  C   UNL     1       4.144   4.511  16.958  0.00  0.00    +0.000 A 
ENDROOT
BRANCH   4   7
ATOM      7  N   UNL     1       2.750   6.655  19.638  0.00  0.00    +0.000 N 
ATOM      8  C   UNL     1       2.242   7.863  19.187  0.00  0.00    +0.000 C 
ATOM      9  O   UNL     1       2.461   8.367  18.088  0.00  0.00    +0.000 OA
ATOM     10  H   UNL     1       2.402   6.276  20.509  0.00  0.00    +0.000 HD
BRANCH   8  11
ATOM     11  C   UNL     1       1.357   8.621  20.113  0.00  0.00    +0.000 A 
ATOM     12  C   UNL     1       0.759   9.783  19.606  0.00  0.00    +0.000 A 
ATOM     13  C   UNL     1      -0.062  10.571  20.413  0.00  0.00    +0.000 A 
ATOM     14  C   UNL     1      -0.344  10.186  21.723  0.00  0.00    +0.000 A 
ATOM     15  C   UNL     1       0.272   9.040  22.235  0.00  0.00    +0.000 A 
ATOM     16  C   UNL     1       1.099   8.242  21.433  0.00  0.00    +0.000 A 
BRANCH  14  17
ATOM     17  N   UNL     1      -1.039  11.055  22.570  0.00  0.00    +0.000 N 
ATOM     18  H   UNL     1      -0.448  11.522  23.252  0.00  0.00    +0.000 HD
ATOM     19  H   UNL     1      -1.656  11.701  22.089  0.00  0.00    +0.000 HD
ENDBRANCH  14  17
ENDBRANCH   8  11
ENDBRANCH   4   7
BRANCH   1  20
ATOM     20  N   UNL     1       6.454   3.811  16.494  0.00  0.00    +0.000 N 
ATOM     21  H   UNL     1       6.637   2.833  16.686  0.00  0.00    +0.000 HD
BRANCH  20  25
ATOM     22  C   UNL     1       5.226   3.155  11.810  0.00  0.00    +0.000 C 
ATOM     23  C   UNL     1       6.056   3.784  12.885  0.00  0.00    +0.000 A 
ATOM     24  C   UNL     1       5.822   3.509  14.214  0.00  0.00    +0.000 A 
ATOM     25  C   UNL     1       6.677   4.091  15.130  0.00  0.00    +0.000 A 
ATOM     26  N   UNL     1       7.674   4.906  14.752  0.00  0.00    +0.000 NA
ATOM     27  C   UNL     1       7.783   5.171  13.451  0.00  0.00    +0.000 A 
ATOM     28  N   UNL     1       8.761   6.060  13.060  0.00  0.00    +0.000 N 
ATOM     29  N   UNL     1       7.033   4.621  12.492  0.00  0.00    +0.000 NA
ATOM     30  H   UNL     1       9.487   6.098  13.760  0.00  0.00    +0.000 HD
ATOM     31  H   UNL     1       9.030   5.875  12.104  0.00  0.00    +0.000 HD
ENDBRANCH  20  25
ENDBRANCH   1  20
TORSDOF 5
ENDMDL
MODEL 6
REMARK VINA RESULT:      -8.2      3.806      5.397
REMARK  Name = 
REMARK  6 active torsions:
REMARK  status: ('A' for Active; 'I' for Inactive)
REMARK    1  A    between atoms: C_1  and  C_2
REMARK    2  A    between atoms: C_4  and  N_5
REMARK    3  A    between atoms: N_5  and  C_6
REMARK    4  A    between atoms: C_9  and  N_10
REMARK    5  A    between atoms: C_11  and  C_13
REMARK    6  A    between atoms: C_16  and  N_17
REMARK                            x       y       z     vdW  Elec       q    Type
REMARK                         _______ _______ _______ _____ _____    ______ ____
ROOT
ATOM      1  C   UNL     1       2.088   8.062  18.739  0.00  0.00    +0.000 A 
ATOM      2  C   UNL     1       1.515   9.192  18.153  0.00  0.00    +0.000 A 
ATOM      3  C   UNL     1       0.728  10.067  18.906  0.00  0.00    +0.000 A 
ATOM      4  C   UNL     1       0.475   9.821  20.256  0.00  0.00    +0.000 A 
ATOM      5  C   UNL     1       1.110   8.738  20.868  0.00  0.00    +0.000 A 
ATOM      6  C   UNL     1       1.904   7.865  20.114  0.00  0.00    +0.000 A 
ENDROOT
BRANCH   4   7
ATOM      7  N   UNL     1      -0.405  10.613  21.026  0.00  0.00    +0.000 N 
ATOM      8  C   UNL     1      -0.071  11.809  21.642  0.00  0.00    +0.000 C 
ATOM      9  O   UNL     1       1.013  12.381  21.554  0.00  0.00    +0.000 OA
ATOM     10  H   UNL     1      -1.365  10.298  21.065  0.00  0.00    +0.000 HD
BRANCH   8  11
ATOM     11  C   UNL     1      -1.110  12.458  22.486  0.00  0.00    +0.000 A 
ATOM     12  C   UNL     1      -0.846  13.765  22.920  0.00  0.00    +0.000 A 
ATOM     13  C   UNL     1      -1.753  14.438  23.739  0.00  0.00    +0.000 A 
ATOM     14  C   UNL     1      -2.961  13.841  24.097  0.00  0.00    +0.000 A 
ATOM     15  C   UNL     1      -3.211  12.530  23.683  0.00  0.00    +0.000 A 
ATOM     16  C   UNL     1      -2.308  11.843  22.860  0.00  0.00    +0.000 A 
BRANCH  14  17
ATOM     17  N   UNL     1      -3.790  14.457  25.039  0.00  0.00    +0.000 N 
ATOM     18  H   UNL     1      -4.467  15.097  24.634  0.00  0.00    +0.000 HD
ATOM     19  H   UNL     1      -4.215  13.816  25.702  0.00  0.00    +0.000 HD
ENDBRANCH  14  17
ENDBRANCH   8  11
ENDBRANCH   4   7
BRANCH   1  20
ATOM     20  N   UNL     1       2.724   7.111  17.923  0.00  0.00    +0.000 N 
ATOM     21  H   UNL     1       3.444   7.508  17.331  0.00  0.00    +0.000 HD
BRANCH  20  25
ATOM     22  C   UNL     1       1.257   2.490  18.542  0.00  0.00    +0.000 C 
ATOM     23  C   UNL     1       2.315   3.550  18.502  0.00  0.00    +0.000 A 
ATOM     24  C   UNL     1       2.001   4.853  18.188  0.00  0.00    +0.000 A 
ATOM     25  C   UNL     1       3.033   5.770  18.234  0.00  0.00    +0.000 A 
ATOM     26  N   UNL     1       4.289   5.410  18.544  0.00  0.00    +0.000 NA
ATOM     27  C   UNL     1       4.513   4.116  18.766  0.00  0.00    +0.000 A 
ATOM     28  N   UNL     1       5.812   3.727  19.019  0.00  0.00    +0.000 N 
ATOM     29  N   UNL     1       3.572   3.168  18.787  0.00  0.00    +0.000 NA
ATOM     30  H   UNL     1       6.342   4.513  19.365  0.00  0.00    +0.000 HD
ATOM     31  H   UNL     1       5.815   2.875  19.561  0.00  0.00    +0.000 HD
ENDBRANCH  20  25
ENDBRANCH   1  20
TORSDOF 5
ENDMDL
MODEL 7
REMARK VINA RESULT:      -8.0      3.412      5.005
REMARK  Name = 
REMARK  6 active torsions:
REMARK  status: ('A' for Active; 'I' for Inactive)
REMARK    1  A    between atoms: C_1  and  C_2
REMARK    2  A    between atoms: C_4  and  N_5
REMARK    3  A    between atoms: N_5  and  C_6
REMARK    4  A    between atoms: C_9  and  N_10
REMARK    5  A    between atoms: C_11  and  C_13
REMARK    6  A    between atoms: C_16  and  N_17
REMARK                            x       y       z     vdW  Elec       q    Type
REMARK                         _______ _______ _______ _____ _____    ______ ____
ROOT
ATOM      1  C   UNL     1       2.178   8.101  18.631  0.00  0.00    +0.000 A 
ATOM      2  C   UNL     1       1.956   7.783  19.973  0.00  0.00    +0.000 A 
ATOM      3  C   UNL     1       1.059   8.524  20.744  0.00  0.00    +0.000 A 
ATOM      4  C   UNL     1       0.379   9.615  20.201  0.00  0.00    +0.000 A 
ATOM      5  C   UNL     1       0.534   9.889  18.841  0.00  0.00    +0.000 A 
ATOM      6  C   UNL     1       1.430   9.141  18.065  0.00  0.00    +0.000 A 
ENDROOT
BRANCH   4   7
ATOM      7  N   UNL     1      -0.449  10.461  20.971  0.00  0.00    +0.000 N 
ATOM      8  C   UNL     1      -0.036  11.626  21.598  0.00  0.00    +0.000 C 
ATOM      9  O   UNL     1       1.086  12.121  21.523  0.00  0.00    +0.000 OA
ATOM     10  H   UNL     1      -1.429  10.215  21.000  0.00  0.00    +0.000 HD
BRANCH   8  11
ATOM     11  C   UNL     1      -1.034  12.341  22.441  0.00  0.00    +0.000 A 
ATOM     12  C   UNL     1      -0.730  13.662  22.796  0.00  0.00    +0.000 A 
ATOM     13  C   UNL     1      -1.594  14.397  23.608  0.00  0.00    +0.000 A 
ATOM     14  C   UNL     1      -2.802  13.846  24.035  0.00  0.00    +0.000 A 
ATOM     15  C   UNL     1      -3.092  12.520  23.699  0.00  0.00    +0.000 A 
ATOM     16  C   UNL     1      -2.231  11.773  22.885  0.00  0.00    +0.000 A 
BRANCH  14  17
ATOM     17  N   UNL     1      -3.587  14.528  24.970  0.00  0.00    +0.000 N 
ATOM     18  H   UNL     1      -3.526  14.150  25.911  0.00  0.00    +0.000 HD
ATOM     19  H   UNL     1      -3.474  15.537  24.952  0.00  0.00    +0.000 HD
ENDBRANCH  14  17
ENDBRANCH   8  11
ENDBRANCH   4   7
BRANCH   1  20
ATOM     20  N   UNL     1       3.212   7.454  17.932  0.00  0.00    +0.000 N 
ATOM     21  H   UNL     1       4.010   8.052  17.751  0.00  0.00    +0.000 HD
BRANCH  20  25
ATOM     22  C   UNL     1       2.102   2.694  17.908  0.00  0.00    +0.000 C 
ATOM     23  C   UNL     1       3.078   3.826  18.006  0.00  0.00    +0.000 A 
ATOM     24  C   UNL     1       2.663   5.133  17.883  0.00  0.00    +0.000 A 
ATOM     25  C   UNL     1       3.626   6.110  18.046  0.00  0.00    +0.000 A 
ATOM     26  N   UNL     1       4.911   5.806  18.287  0.00  0.00    +0.000 NA
ATOM     27  C   UNL     1       5.234   4.514  18.320  0.00  0.00    +0.000 A 
ATOM     28  N   UNL     1       6.564   4.194  18.500  0.00  0.00    +0.000 N 
ATOM     29  N   UNL     1       4.367   3.504  18.218  0.00  0.00    +0.000 NA
ATOM     30  H   UNL     1       7.042   4.961  18.947  0.00  0.00    +0.000 HD
ATOM     31  H   UNL     1       6.642   3.277  18.915  0.00  0.00    +0.000 HD
ENDBRANCH  20  25
ENDBRANCH   1  20
TORSDOF 5
ENDMDL
MODEL 8
REMARK VINA RESULT:      -7.9      2.138      3.389
REMARK  Name = 
REMARK  6 active torsions:
REMARK  status: ('A' for Active; 'I' for Inactive)
REMARK    1  A    between atoms: C_1  and  C_2
REMARK    2  A    between atoms: C_4  and  N_5
REMARK    3  A    between atoms: N_5  and  C_6
REMARK    4  A    between atoms: C_9  and  N_10
REMARK    5  A    between atoms: C_11  and  C_13
REMARK    6  A    between atoms: C_16  and  N_17
REMARK                            x       y       z     vdW  Elec       q    Type
REMARK                         _______ _______ _______ _____ _____    ______ ____
ROOT
ATOM      1  C   UNL     1       3.013   6.017  18.790  0.00  0.00    +0.000 A 
ATOM      2  C   UNL     1       2.988   7.216  18.075  0.00  0.00    +0.000 A 
ATOM      3  C   UNL     1       2.272   8.317  18.548  0.00  0.00    +0.000 A 
ATOM      4  C   UNL     1       1.544   8.240  19.737  0.00  0.00    +0.000 A 
ATOM      5  C   UNL     1       1.628   7.072  20.497  0.00  0.00    +0.000 A 
ATOM      6  C   UNL     1       2.353   5.970  20.024  0.00  0.00    +0.000 A 
ENDROOT
BRANCH   4   7
ATOM      7  N   UNL     1       0.714   9.287  20.195  0.00  0.00    +0.000 N 
ATOM      8  C   UNL     1       0.797   9.881  21.445  0.00  0.00    +0.000 C 
ATOM      9  O   UNL     1       1.638   9.627  22.304  0.00  0.00    +0.000 OA
ATOM     10  H   UNL     1       0.061   9.662  19.521  0.00  0.00    +0.000 HD
BRANCH   8  11
ATOM     11  C   UNL     1      -0.222  10.912  21.781  0.00  0.00    +0.000 A 
ATOM     12  C   UNL     1      -0.971  10.704  22.948  0.00  0.00    +0.000 A 
ATOM     13  C   UNL     1      -1.967  11.606  23.323  0.00  0.00    +0.000 A 
ATOM     14  C   UNL     1      -2.198  12.757  22.572  0.00  0.00    +0.000 A 
ATOM     15  C   UNL     1      -1.467  12.950  21.396  0.00  0.00    +0.000 A 
ATOM     16  C   UNL     1      -0.465  12.051  21.009  0.00  0.00    +0.000 A 
BRANCH  14  17
ATOM     17  N   UNL     1      -3.296  13.572  22.866  0.00  0.00    +0.000 N 
ATOM     18  H   UNL     1      -3.777  13.319  23.724  0.00  0.00    +0.000 HD
ATOM     19  H   UNL     1      -3.102  14.567  22.812  0.00  0.00    +0.000 HD
ENDBRANCH  14  17
ENDBRANCH   8  11
ENDBRANCH   4   7
BRANCH   1  20
ATOM     20  N   UNL     1       3.592   4.878  18.204  0.00  0.00    +0.000 N 
ATOM     21  H   UNL     1       2.934   4.321  17.672  0.00  0.00    +0.000 HD
BRANCH  20  25
ATOM     22  C   UNL     1       6.494   4.281  14.317  0.00  0.00    +0.000 C 
ATOM     23  C   UNL     1       6.270   4.484  15.784  0.00  0.00    +0.000 A 
ATOM     24  C   UNL     1       4.999   4.621  16.295  0.00  0.00    +0.000 A 
ATOM     25  C   UNL     1       4.889   4.745  17.666  0.00  0.00    +0.000 A 
ATOM     26  N   UNL     1       5.967   4.758  18.466  0.00  0.00    +0.000 NA
ATOM     27  C   UNL     1       7.161   4.690  17.878  0.00  0.00    +0.000 A 
ATOM     28  N   UNL     1       8.276   4.770  18.686  0.00  0.00    +0.000 N 
ATOM     29  N   UNL     1       7.362   4.523  16.568  0.00  0.00    +0.000 NA
ATOM     30  H   UNL     1       8.036   4.498  19.627  0.00  0.00    +0.000 HD
ATOM     31  H   UNL     1       9.055   4.307  18.241  0.00  0.00    +0.000 HD
ENDBRANCH  20  25
ENDBRANCH   1  20
TORSDOF 5
ENDMDL
MODEL 9
REMARK VINA RESULT:      -7.9      2.124      3.468
REMARK  Name = 
REMARK  6 active torsions:
REMARK  status: ('A' for Active; 'I' for Inactive)
REMARK    1  A    between atoms: C_1  and  C_2
REMARK    2  A    between atoms: C_4  and  N_5
REMARK    3  A    between atoms: N_5  and  C_6
REMARK    4  A    between atoms: C_9  and  N_10
REMARK    5  A    between atoms: C_11  and  C_13
REMARK    6  A    between atoms: C_16  and  N_17
REMARK                            x       y       z     vdW  Elec       q    Type
REMARK                         _______ _______ _______ _____ _____    ______ ____
ROOT
ATOM      1  C   UNL     1       2.948   5.845  18.853  0.00  0.00    +0.000 A 
ATOM      2  C   UNL     1       2.957   7.074  18.191  0.00  0.00    +0.000 A 
ATOM      3  C   UNL     1       2.279   8.176  18.717  0.00  0.00    +0.000 A 
ATOM      4  C   UNL     1       1.555   8.069  19.906  0.00  0.00    +0.000 A 
ATOM      5  C   UNL     1       1.608   6.867  20.615  0.00  0.00    +0.000 A 
ATOM      6  C   UNL     1       2.294   5.765  20.090  0.00  0.00    +0.000 A 
ENDROOT
BRANCH   4   7
ATOM      7  N   UNL     1       0.762   9.121  20.416  0.00  0.00    +0.000 N 
ATOM      8  C   UNL     1       0.912   9.699  21.666  0.00  0.00    +0.000 C 
ATOM      9  O   UNL     1       1.790   9.426  22.481  0.00  0.00    +0.000 OA
ATOM     10  H   UNL     1       0.081   9.511  19.779  0.00  0.00    +0.000 HD
BRANCH   8  11
ATOM     11  C   UNL     1      -0.077  10.739  22.063  0.00  0.00    +0.000 A 
ATOM     12  C   UNL     1       0.043  11.993  21.447  0.00  0.00    +0.000 A 
ATOM     13  C   UNL     1      -0.823  13.034  21.780  0.00  0.00    +0.000 A 
ATOM     14  C   UNL     1      -1.857  12.829  22.693  0.00  0.00    +0.000 A 
ATOM     15  C   UNL     1      -1.960  11.585  23.324  0.00  0.00    +0.000 A 
ATOM     16  C   UNL     1      -1.095  10.532  22.997  0.00  0.00    +0.000 A 
BRANCH  14  17
ATOM     17  N   UNL     1      -2.621  13.913  23.136  0.00  0.00    +0.000 N 
ATOM     18  H   UNL     1      -3.328  13.663  23.822  0.00  0.00    +0.000 HD
ATOM     19  H   UNL     1      -2.074  14.718  23.424  0.00  0.00    +0.000 HD
ENDBRANCH  14  17
ENDBRANCH   8  11
ENDBRANCH   4   7
BRANCH   1  20
ATOM     20  N   UNL     1       3.488   4.715  18.215  0.00  0.00    +0.000 N 
ATOM     21  H   UNL     1       2.802   4.184  17.690  0.00  0.00    +0.000 HD
BRANCH  20  25
ATOM     22  C   UNL     1       6.231   4.004  14.233  0.00  0.00    +0.000 C 
ATOM     23  C   UNL     1       6.067   4.262  15.699  0.00  0.00    +0.000 A 
ATOM     24  C   UNL     1       4.816   4.402  16.258  0.00  0.00    +0.000 A 
ATOM     25  C   UNL     1       4.763   4.579  17.627  0.00  0.00    +0.000 A 
ATOM     26  N   UNL     1       5.874   4.638  18.379  0.00  0.00    +0.000 NA
ATOM     27  C   UNL     1       7.043   4.562  17.743  0.00  0.00    +0.000 A 
ATOM     28  N   UNL     1       8.190   4.689  18.498  0.00  0.00    +0.000 N 
ATOM     29  N   UNL     1       7.190   4.347  16.433  0.00  0.00    +0.000 NA
ATOM     30  H   UNL     1       7.993   4.451  19.459  0.00  0.00    +0.000 HD
ATOM     31  H   UNL     1       8.956   4.220  18.038  0.00  0.00    +0.000 HD
ENDBRANCH  20  25
ENDBRANCH   1  20
TORSDOF 5
ENDMDL
