MODEL 1
REMARK VINA RESULT:      -7.8      0.000      0.000
REMARK  Name = 
REMARK  7 active torsions:
REMARK  status: ('A' for Active; 'I' for Inactive)
REMARK    1  A    between atoms: C_2  and  C_27
REMARK    2  A    between atoms: N_3  and  C_4
REMARK    3  A    between atoms: C_4  and  C_5
REMARK    4  A    between atoms: C_5  and  C_6
REMARK    5  A    between atoms: C_5  and  N_15
REMARK    6  A    between atoms: N_18  and  C_19
REMARK    7  A    between atoms: N_29  and  C_30
REMARK                            x       y       z     vdW  Elec       q    Type
REMARK                         _______ _______ _______ _____ _____    ______ ____
ROOT
ATOM      1  C   UNL     1      -0.553  11.797  18.986  0.00  0.00    +0.000 C 
ENDROOT
BRANCH   1   2
ATOM      2  C   UNL     1      -2.010  11.686  18.511  0.00  0.00    +0.000 A 
ATOM      3  C   UNL     1      -2.333  11.137  17.246  0.00  0.00    +0.000 A 
ATOM      4  C   UNL     1      -3.663  11.020  16.828  0.00  0.00    +0.000 A 
ATOM      5  C   UNL     1      -4.647  11.438  17.694  0.00  0.00    +0.000 A 
ATOM      6  C   UNL     1      -4.351  11.937  18.939  0.00  0.00    +0.000 A 
ATOM      7  C   UNL     1      -3.052  12.069  19.380  0.00  0.00    +0.000 A 
ATOM      8  O   UNL     1      -5.464  12.273  19.644  0.00  0.00    +0.000 OA
ATOM      9  C   UNL     1      -6.492  11.984  18.674  0.00  0.00    +0.000 C 
ATOM     10  O   UNL     1      -5.984  11.414  17.450  0.00  0.00    +0.000 OA
ENDBRANCH   1   2
BRANCH   1  11
ATOM     11  N   UNL     1      -0.347  13.039  19.782  0.00  0.00    +0.000 NA
ATOM     12  C   UNL     1       0.726  12.911  20.794  0.00  0.00    +0.000 C 
ATOM     13  C   UNL     1       2.184  12.845  20.298  0.00  0.00    +0.000 C 
ATOM     14  N   UNL     1       2.473  13.786  19.203  0.00  0.00    +0.000 N 
ATOM     15  C   UNL     1       1.406  14.091  18.240  0.00  0.00    +0.000 C 
ATOM     16  C   UNL     1       0.033  14.196  18.930  0.00  0.00    +0.000 C 
BRANCH  14  17
ATOM     17  C   UNL     1       3.655  14.506  19.269  0.00  0.00    +0.000 A 
ATOM     18  C   UNL     1       4.469  14.668  18.132  0.00  0.00    +0.000 A 
ATOM     19  C   UNL     1       5.729  15.260  18.207  0.00  0.00    +0.000 A 
ATOM     20  C   UNL     1       6.189  15.742  19.422  0.00  0.00    +0.000 A 
ATOM     21  C   UNL     1       5.387  15.648  20.551  0.00  0.00    +0.000 A 
ATOM     22  C   UNL     1       4.133  15.045  20.469  0.00  0.00    +0.000 A 
ENDBRANCH  14  17
ENDBRANCH   1  11
BRANCH   1  23
ATOM     23  C   UNL     1      -0.149  10.498  19.786  0.00  0.00    +0.000 C 
BRANCH  23  26
ATOM     24  O   UNL     1       1.443   8.519  20.984  0.00  0.00    +0.000 OA
ATOM     25  C   UNL     1       1.418   8.641  19.764  0.00  0.00    +0.000 C 
ATOM     26  N   UNL     1       0.708   9.558  19.058  0.00  0.00    +0.000 N 
ATOM     27  H   UNL     1       0.535   9.370  18.076  0.00  0.00    +0.000 HD
BRANCH  25  28
ATOM     28  C   UNL     1       2.244   7.640  18.935  0.00  0.00    +0.000 C 
ATOM     29  O   UNL     1       2.763   8.060  17.913  0.00  0.00    +0.000 OA
ATOM     30  N   UNL     1       2.227   6.368  19.460  0.00  0.00    +0.000 N 
ATOM     31  H   UNL     1       1.608   6.201  20.260  0.00  0.00    +0.000 HD
BRANCH  30  32
ATOM     32  C   UNL     1       2.908   5.268  18.902  0.00  0.00    +0.000 A 
ATOM     33  C   UNL     1       4.197   4.946  19.325  0.00  0.00    +0.000 A 
ATOM     34  C   UNL     1       4.897   3.894  18.750  0.00  0.00    +0.000 A 
ATOM     35  C   UNL     1       4.305   3.127  17.757  0.00  0.00    +0.000 A 
ATOM     36  C   UNL     1       3.006   3.421  17.332  0.00  0.00    +0.000 A 
ATOM     37  C   UNL     1       2.313   4.485  17.908  0.00  0.00    +0.000 A 
ATOM     38  F   UNL     1       1.083   4.782  17.450  0.00  0.00    +0.000 F 
ENDBRANCH  30  32
ENDBRANCH  25  28
ENDBRANCH  23  26
ENDBRANCH   1  23
TORSDOF 7
ENDMDL
MODEL 2
REMARK VINA RESULT:      -7.8      2.765      3.604
REMARK  Name = 
REMARK  7 active torsions:
REMARK  status: ('A' for Active; 'I' for Inactive)
REMARK    1  A    between atoms: C_2  and  C_27
REMARK    2  A    between atoms: N_3  and  C_4
REMARK    3  A    between atoms: C_4  and  C_5
REMARK    4  A    between atoms: C_5  and  C_6
REMARK    5  A    between atoms: C_5  and  N_15
REMARK    6  A    between atoms: N_18  and  C_19
REMARK    7  A    between atoms: N_29  and  C_30
REMARK                            x       y       z     vdW  Elec       q    Type
REMARK                         _______ _______ _______ _____ _____    ______ ____
ROOT
ATOM      1  C   UNL     1      -0.650  12.559  21.120  0.00  0.00    +0.000 C 
ENDROOT
BRANCH   1   2
ATOM      2  C   UNL     1      -2.099  12.598  21.630  0.00  0.00    +0.000 A 
ATOM      3  C   UNL     1      -3.192  12.718  20.735  0.00  0.00    +0.000 A 
ATOM      4  C   UNL     1      -4.510  12.731  21.204  0.00  0.00    +0.000 A 
ATOM      5  C   UNL     1      -4.711  12.606  22.560  0.00  0.00    +0.000 A 
ATOM      6  C   UNL     1      -3.663  12.449  23.434  0.00  0.00    +0.000 A 
ATOM      7  C   UNL     1      -2.353  12.436  23.006  0.00  0.00    +0.000 A 
ATOM      8  O   UNL     1      -4.076  12.322  24.724  0.00  0.00    +0.000 OA
ATOM      9  C   UNL     1      -5.502  12.477  24.565  0.00  0.00    +0.000 C 
ATOM     10  O   UNL     1      -5.915  12.615  23.189  0.00  0.00    +0.000 OA
ENDBRANCH   1   2
BRANCH   1  11
ATOM     11  N   UNL     1       0.096  13.773  21.552  0.00  0.00    +0.000 NA
ATOM     12  C   UNL     1       1.334  14.004  20.773  0.00  0.00    +0.000 C 
ATOM     13  C   UNL     1       1.192  14.466  19.309  0.00  0.00    +0.000 C 
ATOM     14  N   UNL     1       0.139  15.477  19.114  0.00  0.00    +0.000 N 
ATOM     15  C   UNL     1      -1.060  15.413  19.961  0.00  0.00    +0.000 C 
ATOM     16  C   UNL     1      -0.712  15.012  21.407  0.00  0.00    +0.000 C 
BRANCH  14  17
ATOM     17  C   UNL     1       0.432  16.564  18.307  0.00  0.00    +0.000 A 
ATOM     18  C   UNL     1      -0.593  17.352  17.751  0.00  0.00    +0.000 A 
ATOM     19  C   UNL     1      -0.329  18.356  16.821  0.00  0.00    +0.000 A 
ATOM     20  C   UNL     1       0.980  18.623  16.454  0.00  0.00    +0.000 A 
ATOM     21  C   UNL     1       2.019  17.902  17.026  0.00  0.00    +0.000 A 
ATOM     22  C   UNL     1       1.745  16.892  17.948  0.00  0.00    +0.000 A 
ENDBRANCH  14  17
ENDBRANCH   1  11
BRANCH   1  23
ATOM     23  C   UNL     1       0.049  11.226  21.592  0.00  0.00    +0.000 C 
BRANCH  23  26
ATOM     24  O   UNL     1       1.013   8.606  21.901  0.00  0.00    +0.000 OA
ATOM     25  C   UNL     1       1.054   9.157  20.807  0.00  0.00    +0.000 C 
ATOM     26  N   UNL     1       0.638  10.417  20.520  0.00  0.00    +0.000 N 
ATOM     27  H   UNL     1       0.446  10.644  19.550  0.00  0.00    +0.000 HD
BRANCH  25  28
ATOM     28  C   UNL     1       1.598   8.338  19.621  0.00  0.00    +0.000 C 
ATOM     29  O   UNL     1       1.453   8.811  18.505  0.00  0.00    +0.000 OA
ATOM     30  N   UNL     1       2.138   7.133  20.007  0.00  0.00    +0.000 N 
ATOM     31  H   UNL     1       2.034   6.868  20.991  0.00  0.00    +0.000 HD
BRANCH  30  32
ATOM     32  C   UNL     1       2.713   6.199  19.122  0.00  0.00    +0.000 A 
ATOM     33  C   UNL     1       3.780   6.566  18.303  0.00  0.00    +0.000 A 
ATOM     34  C   UNL     1       4.325   5.670  17.393  0.00  0.00    +0.000 A 
ATOM     35  C   UNL     1       3.825   4.378  17.307  0.00  0.00    +0.000 A 
ATOM     36  C   UNL     1       2.769   3.984  18.132  0.00  0.00    +0.000 A 
ATOM     37  C   UNL     1       2.221   4.893  19.038  0.00  0.00    +0.000 A 
ATOM     38  F   UNL     1       1.172   4.510  19.787  0.00  0.00    +0.000 F 
ENDBRANCH  30  32
ENDBRANCH  25  28
ENDBRANCH  23  26
ENDBRANCH   1  23
TORSDOF 7
ENDMDL
MODEL 3
REMARK VINA RESULT:      -7.7      1.390      1.540
REMARK  Name = 
REMARK  7 active torsions:
REMARK  status: ('A' for Active; 'I' for Inactive)
REMARK    1  A    between atoms: C_2  and  C_27
REMARK    2  A    between atoms: N_3  and  C_4
REMARK    3  A    between atoms: C_4  and  C_5
REMARK    4  A    between atoms: C_5  and  C_6
REMARK    5  A    between atoms: C_5  and  N_15
REMARK    6  A    between atoms: N_18  and  C_19
REMARK    7  A    between atoms: N_29  and  C_30
REMARK                            x       y       z     vdW  Elec       q    Type
REMARK                         _______ _______ _______ _____ _____    ______ ____
ROOT
ATOM      1  C   UNL     1      -0.000  11.708  19.392  0.00  0.00    +0.000 C 
ENDROOT
BRANCH   1   2
ATOM      2  C   UNL     1      -1.373  11.433  18.758  0.00  0.00    +0.000 A 
ATOM      3  C   UNL     1      -1.519  10.522  17.682  0.00  0.00    +0.000 A 
ATOM      4  C   UNL     1      -2.774  10.261  17.123  0.00  0.00    +0.000 A 
ATOM      5  C   UNL     1      -3.865  10.903  17.665  0.00  0.00    +0.000 A 
ATOM      6  C   UNL     1      -3.743  11.758  18.733  0.00  0.00    +0.000 A 
ATOM      7  C   UNL     1      -2.521  12.041  19.304  0.00  0.00    +0.000 A 
ATOM      8  O   UNL     1      -4.939  12.271  19.128  0.00  0.00    +0.000 OA
ATOM      9  C   UNL     1      -5.819  11.685  18.145  0.00  0.00    +0.000 C 
ATOM     10  O   UNL     1      -5.150  10.783  17.240  0.00  0.00    +0.000 OA
ENDBRANCH   1   2
BRANCH   1  11
ATOM     11  N   UNL     1       0.064  13.091  19.937  0.00  0.00    +0.000 NA
ATOM     12  C   UNL     1       1.175  13.288  20.896  0.00  0.00    +0.000 C 
ATOM     13  C   UNL     1       2.614  13.311  20.342  0.00  0.00    +0.000 C 
ATOM     14  N   UNL     1       2.744  14.060  19.082  0.00  0.00    +0.000 N 
ATOM     15  C   UNL     1       1.617  14.046  18.138  0.00  0.00    +0.000 C 
ATOM     16  C   UNL     1       0.264  14.108  18.871  0.00  0.00    +0.000 C 
BRANCH  14  17
ATOM     17  C   UNL     1       3.822  14.920  18.952  0.00  0.00    +0.000 A 
ATOM     18  C   UNL     1       4.931  14.578  18.156  0.00  0.00    +0.000 A 
ATOM     19  C   UNL     1       6.086  15.357  18.127  0.00  0.00    +0.000 A 
ATOM     20  C   UNL     1       6.144  16.526  18.869  0.00  0.00    +0.000 A 
ATOM     21  C   UNL     1       5.045  16.921  19.621  0.00  0.00    +0.000 A 
ATOM     22  C   UNL     1       3.898  16.130  19.651  0.00  0.00    +0.000 A 
ENDBRANCH  14  17
ENDBRANCH   1  11
BRANCH   1  23
ATOM     23  C   UNL     1       0.313  10.616  20.487  0.00  0.00    +0.000 C 
BRANCH  23  26
ATOM     24  O   UNL     1       1.480   8.601  22.058  0.00  0.00    +0.000 OA
ATOM     25  C   UNL     1       1.360   8.452  20.847  0.00  0.00    +0.000 C 
ATOM     26  N   UNL     1       0.830   9.344  19.972  0.00  0.00    +0.000 N 
ATOM     27  H   UNL     1       0.515   8.997  19.072  0.00  0.00    +0.000 HD
BRANCH  25  28
ATOM     28  C   UNL     1       1.820   7.110  20.249  0.00  0.00    +0.000 C 
ATOM     29  O   UNL     1       1.658   6.112  20.932  0.00  0.00    +0.000 OA
ATOM     30  N   UNL     1       2.413   7.250  19.015  0.00  0.00    +0.000 N 
ATOM     31  H   UNL     1       2.574   8.205  18.680  0.00  0.00    +0.000 HD
BRANCH  30  32
ATOM     32  C   UNL     1       2.913   6.180  18.247  0.00  0.00    +0.000 A 
ATOM     33  C   UNL     1       2.210   4.978  18.166  0.00  0.00    +0.000 A 
ATOM     34  C   UNL     1       2.714   3.900  17.452  0.00  0.00    +0.000 A 
ATOM     35  C   UNL     1       3.924   4.017  16.780  0.00  0.00    +0.000 A 
ATOM     36  C   UNL     1       4.634   5.219  16.832  0.00  0.00    +0.000 A 
ATOM     37  C   UNL     1       4.125   6.295  17.560  0.00  0.00    +0.000 A 
ATOM     38  F   UNL     1       4.849   7.426  17.638  0.00  0.00    +0.000 F 
ENDBRANCH  30  32
ENDBRANCH  25  28
ENDBRANCH  23  26
ENDBRANCH   1  23
TORSDOF 7
ENDMDL
MODEL 4
REMARK VINA RESULT:      -7.7      3.467      8.656
REMARK  Name = 
REMARK  7 active torsions:
REMARK  status: ('A' for Active; 'I' for Inactive)
REMARK    1  A    between atoms: C_2  and  C_27
REMARK    2  A    between atoms: N_3  and  C_4
REMARK    3  A    between atoms: C_4  and  C_5
REMARK    4  A    between atoms: C_5  and  C_6
REMARK    5  A    between atoms: C_5  and  N_15
REMARK    6  A    between atoms: N_18  and  C_19
REMARK    7  A    between atoms: N_29  and  C_30
REMARK                            x       y       z     vdW  Elec       q    Type
REMARK                         _______ _______ _______ _____ _____    ______ ____
ROOT
ATOM      1  C   UNL     1       0.741   9.908  19.720  0.00  0.00    +0.000 C 
ENDROOT
BRANCH   1   2
ATOM      2  C   UNL     1       1.591   8.712  19.265  0.00  0.00    +0.000 A 
ATOM      3  C   UNL     1       2.295   8.733  18.035  0.00  0.00    +0.000 A 
ATOM      4  C   UNL     1       3.083   7.648  17.636  0.00  0.00    +0.000 A 
ATOM      5  C   UNL     1       3.169   6.569  18.487  0.00  0.00    +0.000 A 
ATOM      6  C   UNL     1       2.524   6.551  19.700  0.00  0.00    +0.000 A 
ATOM      7  C   UNL     1       1.735   7.601  20.120  0.00  0.00    +0.000 A 
ATOM      8  O   UNL     1       2.753   5.405  20.395  0.00  0.00    +0.000 OA
ATOM      9  C   UNL     1       3.569   4.679  19.451  0.00  0.00    +0.000 C 
ATOM     10  O   UNL     1       3.872   5.429  18.256  0.00  0.00    +0.000 OA
ENDBRANCH   1   2
BRANCH   1  11
ATOM     11  N   UNL     1       1.289  10.503  20.969  0.00  0.00    +0.000 NA
ATOM     12  C   UNL     1       1.170  11.979  21.013  0.00  0.00    +0.000 C 
ATOM     13  C   UNL     1      -0.235  12.586  21.198  0.00  0.00    +0.000 C 
ATOM     14  N   UNL     1      -1.056  11.869  22.186  0.00  0.00    +0.000 N 
ATOM     15  C   UNL     1      -0.885  10.415  22.319  0.00  0.00    +0.000 C 
ATOM     16  C   UNL     1       0.593  10.004  22.184  0.00  0.00    +0.000 C 
BRANCH  14  17
ATOM     17  C   UNL     1      -1.779  12.626  23.094  0.00  0.00    +0.000 A 
ATOM     18  C   UNL     1      -3.031  12.191  23.568  0.00  0.00    +0.000 A 
ATOM     19  C   UNL     1      -3.839  13.001  24.364  0.00  0.00    +0.000 A 
ATOM     20  C   UNL     1      -3.393  14.257  24.740  0.00  0.00    +0.000 A 
ATOM     21  C   UNL     1      -2.138  14.694  24.336  0.00  0.00    +0.000 A 
ATOM     22  C   UNL     1      -1.341  13.882  23.531  0.00  0.00    +0.000 A 
ENDBRANCH  14  17
ENDBRANCH   1  11
BRANCH   1  23
ATOM     23  C   UNL     1       0.630  10.962  18.552  0.00  0.00    +0.000 C 
BRANCH  23  26
ATOM     24  O   UNL     1      -1.316   9.535  17.116  0.00  0.00    +0.000 OA
ATOM     25  C   UNL     1      -1.572  10.642  17.574  0.00  0.00    +0.000 C 
ATOM     26  N   UNL     1      -0.727  11.443  18.272  0.00  0.00    +0.000 N 
ATOM     27  H   UNL     1      -1.132  12.177  18.843  0.00  0.00    +0.000 HD
BRANCH  25  28
ATOM     28  C   UNL     1      -3.002  11.178  17.375  0.00  0.00    +0.000 C 
ATOM     29  O   UNL     1      -3.404  11.278  16.226  0.00  0.00    +0.000 OA
ATOM     30  N   UNL     1      -3.613  11.526  18.558  0.00  0.00    +0.000 N 
ATOM     31  H   UNL     1      -3.039  11.491  19.407  0.00  0.00    +0.000 HD
BRANCH  30  32
ATOM     32  C   UNL     1      -4.923  12.033  18.658  0.00  0.00    +0.000 A 
ATOM     33  C   UNL     1      -5.861  11.771  17.660  0.00  0.00    +0.000 A 
ATOM     34  C   UNL     1      -7.141  12.304  17.723  0.00  0.00    +0.000 A 
ATOM     35  C   UNL     1      -7.514  13.090  18.805  0.00  0.00    +0.000 A 
ATOM     36  C   UNL     1      -6.595  13.349  19.825  0.00  0.00    +0.000 A 
ATOM     37  C   UNL     1      -5.308  12.817  19.751  0.00  0.00    +0.000 A 
ATOM     38  F   UNL     1      -4.423  13.120  20.718  0.00  0.00    +0.000 F 
ENDBRANCH  30  32
ENDBRANCH  25  28
ENDBRANCH  23  26
ENDBRANCH   1  23
TORSDOF 7
ENDMDL
MODEL 5
REMARK VINA RESULT:      -7.7      1.623      2.260
REMARK  Name = 
REMARK  7 active torsions:
REMARK  status: ('A' for Active; 'I' for Inactive)
REMARK    1  A    between atoms: C_2  and  C_27
REMARK    2  A    between atoms: N_3  and  C_4
REMARK    3  A    between atoms: C_4  and  C_5
REMARK    4  A    between atoms: C_5  and  C_6
REMARK    5  A    between atoms: C_5  and  N_15
REMARK    6  A    between atoms: N_18  and  C_19
REMARK    7  A    between atoms: N_29  and  C_30
REMARK                            x       y       z     vdW  Elec       q    Type
REMARK                         _______ _______ _______ _____ _____    ______ ____
ROOT
ATOM      1  C   UNL     1       0.311  12.223  19.597  0.00  0.00    +0.000 C 
ENDROOT
BRANCH   1   2
ATOM      2  C   UNL     1      -1.074  11.964  18.983  0.00  0.00    +0.000 A 
ATOM      3  C   UNL     1      -2.263  12.220  19.711  0.00  0.00    +0.000 A 
ATOM      4  C   UNL     1      -3.520  12.002  19.139  0.00  0.00    +0.000 A 
ATOM      5  C   UNL     1      -3.565  11.549  17.839  0.00  0.00    +0.000 A 
ATOM      6  C   UNL     1      -2.422  11.335  17.109  0.00  0.00    +0.000 A 
ATOM      7  C   UNL     1      -1.168  11.535  17.644  0.00  0.00    +0.000 A 
ATOM      8  O   UNL     1      -2.684  10.910  15.844  0.00  0.00    +0.000 OA
ATOM      9  C   UNL     1      -4.124  10.824  15.884  0.00  0.00    +0.000 C 
ATOM     10  O   UNL     1      -4.692  11.269  17.133  0.00  0.00    +0.000 OA
ENDBRANCH   1   2
BRANCH   1  11
ATOM     11  N   UNL     1       0.360  13.561  20.247  0.00  0.00    +0.000 NA
ATOM     12  C   UNL     1       1.427  13.674  21.268  0.00  0.00    +0.000 C 
ATOM     13  C   UNL     1       2.890  13.723  20.783  0.00  0.00    +0.000 C 
ATOM     14  N   UNL     1       3.083  14.562  19.589  0.00  0.00    +0.000 N 
ATOM     15  C   UNL     1       2.001  14.631  18.598  0.00  0.00    +0.000 C 
ATOM     16  C   UNL     1       0.616  14.652  19.271  0.00  0.00    +0.000 C 
BRANCH  14  17
ATOM     17  C   UNL     1       4.173  15.417  19.573  0.00  0.00    +0.000 A 
ATOM     18  C   UNL     1       4.186  16.590  20.351  0.00  0.00    +0.000 A 
ATOM     19  C   UNL     1       5.202  17.537  20.240  0.00  0.00    +0.000 A 
ATOM     20  C   UNL     1       6.258  17.312  19.371  0.00  0.00    +0.000 A 
ATOM     21  C   UNL     1       6.304  16.138  18.631  0.00  0.00    +0.000 A 
ATOM     22  C   UNL     1       5.277  15.201  18.741  0.00  0.00    +0.000 A 
ENDBRANCH  14  17
ENDBRANCH   1  11
BRANCH   1  23
ATOM     23  C   UNL     1       0.682  11.058  20.594  0.00  0.00    +0.000 C 
BRANCH  23  26
ATOM     24  O   UNL     1       1.375   8.712  21.974  0.00  0.00    +0.000 OA
ATOM     25  C   UNL     1       1.428   8.750  20.750  0.00  0.00    +0.000 C 
ATOM     26  N   UNL     1       1.136   9.816  19.961  0.00  0.00    +0.000 N 
ATOM     27  H   UNL     1       0.929   9.640  18.984  0.00  0.00    +0.000 HD
BRANCH  25  28
ATOM     28  C   UNL     1       1.832   7.457  20.018  0.00  0.00    +0.000 C 
ATOM     29  O   UNL     1       2.136   7.557  18.840  0.00  0.00    +0.000 OA
ATOM     30  N   UNL     1       1.737   6.339  20.814  0.00  0.00    +0.000 N 
ATOM     31  H   UNL     1       1.324   6.462  21.745  0.00  0.00    +0.000 HD
BRANCH  30  32
ATOM     32  C   UNL     1       2.057   5.033  20.394  0.00  0.00    +0.000 A 
ATOM     33  C   UNL     1       1.094   4.026  20.422  0.00  0.00    +0.000 A 
ATOM     34  C   UNL     1       1.407   2.724  20.055  0.00  0.00    +0.000 A 
ATOM     35  C   UNL     1       2.691   2.414  19.627  0.00  0.00    +0.000 A 
ATOM     36  C   UNL     1       3.666   3.413  19.573  0.00  0.00    +0.000 A 
ATOM     37  C   UNL     1       3.346   4.717  19.952  0.00  0.00    +0.000 A 
ATOM     38  F   UNL     1       4.312   5.652  19.941  0.00  0.00    +0.000 F 
ENDBRANCH  30  32
ENDBRANCH  25  28
ENDBRANCH  23  26
ENDBRANCH   1  23
TORSDOF 7
ENDMDL
MODEL 6
REMARK VINA RESULT:      -7.7      1.332      1.504
REMARK  Name = 
REMARK  7 active torsions:
REMARK  status: ('A' for Active; 'I' for Inactive)
REMARK    1  A    between atoms: C_2  and  C_27
REMARK    2  A    between atoms: N_3  and  C_4
REMARK    3  A    between atoms: C_4  and  C_5
REMARK    4  A    between atoms: C_5  and  C_6
REMARK    5  A    between atoms: C_5  and  N_15
REMARK    6  A    between atoms: N_18  and  C_19
REMARK    7  A    between atoms: N_29  and  C_30
REMARK                            x       y       z     vdW  Elec       q    Type
REMARK                         _______ _______ _______ _____ _____    ______ ____
ROOT
ATOM      1  C   UNL     1      -0.095  11.873  19.396  0.00  0.00    +0.000 C 
ENDROOT
BRANCH   1   2
ATOM      2  C   UNL     1      -1.470  11.555  18.789  0.00  0.00    +0.000 A 
ATOM      3  C   UNL     1      -1.612  10.613  17.739  0.00  0.00    +0.000 A 
ATOM      4  C   UNL     1      -2.870  10.312  17.205  0.00  0.00    +0.000 A 
ATOM      5  C   UNL     1      -3.966  10.947  17.746  0.00  0.00    +0.000 A 
ATOM      6  C   UNL     1      -3.847  11.832  18.789  0.00  0.00    +0.000 A 
ATOM      7  C   UNL     1      -2.623  12.154  19.335  0.00  0.00    +0.000 A 
ATOM      8  O   UNL     1      -5.047  12.331  19.188  0.00  0.00    +0.000 OA
ATOM      9  C   UNL     1      -5.928  11.702  18.234  0.00  0.00    +0.000 C 
ATOM     10  O   UNL     1      -5.254  10.789  17.343  0.00  0.00    +0.000 OA
ENDBRANCH   1   2
BRANCH   1  11
ATOM     11  N   UNL     1      -0.095  13.219  20.031  0.00  0.00    +0.000 NA
ATOM     12  C   UNL     1       0.875  13.338  21.144  0.00  0.00    +0.000 C 
ATOM     13  C   UNL     1       2.376  13.371  20.795  0.00  0.00    +0.000 C 
ATOM     14  N   UNL     1       2.684  14.194  19.614  0.00  0.00    +0.000 N 
ATOM     15  C   UNL     1       1.698  14.257  18.527  0.00  0.00    +0.000 C 
ATOM     16  C   UNL     1       0.258  14.296  19.070  0.00  0.00    +0.000 C 
BRANCH  14  17
ATOM     17  C   UNL     1       3.777  15.042  19.688  0.00  0.00    +0.000 A 
ATOM     18  C   UNL     1       4.058  15.956  18.655  0.00  0.00    +0.000 A 
ATOM     19  C   UNL     1       5.228  16.713  18.638  0.00  0.00    +0.000 A 
ATOM     20  C   UNL     1       6.132  16.601  19.682  0.00  0.00    +0.000 A 
ATOM     21  C   UNL     1       5.858  15.751  20.745  0.00  0.00    +0.000 A 
ATOM     22  C   UNL     1       4.690  14.990  20.748  0.00  0.00    +0.000 A 
ENDBRANCH  14  17
ENDBRANCH   1  11
BRANCH   1  23
ATOM     23  C   UNL     1       0.324  10.733  20.403  0.00  0.00    +0.000 C 
BRANCH  23  26
ATOM     24  O   UNL     1       1.418   8.565  21.813  0.00  0.00    +0.000 OA
ATOM     25  C   UNL     1       1.372   8.548  20.589  0.00  0.00    +0.000 C 
ATOM     26  N   UNL     1       0.885   9.528  19.784  0.00  0.00    +0.000 N 
ATOM     27  H   UNL     1       0.628   9.279  18.835  0.00  0.00    +0.000 HD
BRANCH  25  28
ATOM     28  C   UNL     1       1.882   7.281  19.877  0.00  0.00    +0.000 C 
ATOM     29  O   UNL     1       2.189   7.390  18.701  0.00  0.00    +0.000 OA
ATOM     30  N   UNL     1       1.866   6.169  20.688  0.00  0.00    +0.000 N 
ATOM     31  H   UNL     1       1.436   6.272  21.612  0.00  0.00    +0.000 HD
BRANCH  30  32
ATOM     32  C   UNL     1       2.290   4.887  20.287  0.00  0.00    +0.000 A 
ATOM     33  C   UNL     1       1.406   3.810  20.314  0.00  0.00    +0.000 A 
ATOM     34  C   UNL     1       1.823   2.532  19.967  0.00  0.00    +0.000 A 
ATOM     35  C   UNL     1       3.133   2.316  19.561  0.00  0.00    +0.000 A 
ATOM     36  C   UNL     1       4.030   3.385  19.509  0.00  0.00    +0.000 A 
ATOM     37  C   UNL     1       3.606   4.665  19.867  0.00  0.00    +0.000 A 
ATOM     38  F   UNL     1       4.499   5.671  19.859  0.00  0.00    +0.000 F 
ENDBRANCH  30  32
ENDBRANCH  25  28
ENDBRANCH  23  26
ENDBRANCH   1  23
TORSDOF 7
ENDMDL
MODEL 7
REMARK VINA RESULT:      -7.7      3.629      8.869
REMARK  Name = 
REMARK  7 active torsions:
REMARK  status: ('A' for Active; 'I' for Inactive)
REMARK    1  A    between atoms: C_2  and  C_27
REMARK    2  A    between atoms: N_3  and  C_4
REMARK    3  A    between atoms: C_4  and  C_5
REMARK    4  A    between atoms: C_5  and  C_6
REMARK    5  A    between atoms: C_5  and  N_15
REMARK    6  A    between atoms: N_18  and  C_19
REMARK    7  A    between atoms: N_29  and  C_30
REMARK                            x       y       z     vdW  Elec       q    Type
REMARK                         _______ _______ _______ _____ _____    ______ ____
ROOT
ATOM      1  C   UNL     1       0.688   9.197  20.117  0.00  0.00    +0.000 C 
ENDROOT
BRANCH   1   2
ATOM      2  C   UNL     1       1.605   8.022  19.746  0.00  0.00    +0.000 A 
ATOM      3  C   UNL     1       1.655   6.847  20.537  0.00  0.00    +0.000 A 
ATOM      4  C   UNL     1       2.478   5.773  20.183  0.00  0.00    +0.000 A 
ATOM      5  C   UNL     1       3.222   5.886  19.030  0.00  0.00    +0.000 A 
ATOM      6  C   UNL     1       3.154   7.003  18.233  0.00  0.00    +0.000 A 
ATOM      7  C   UNL     1       2.358   8.080  18.556  0.00  0.00    +0.000 A 
ATOM      8  O   UNL     1       3.949   6.907  17.134  0.00  0.00    +0.000 OA
ATOM      9  C   UNL     1       4.571   5.626  17.365  0.00  0.00    +0.000 C 
ATOM     10  O   UNL     1       4.083   4.953  18.544  0.00  0.00    +0.000 OA
ENDBRANCH   1   2
BRANCH   1  11
ATOM     11  N   UNL     1       1.290  10.018  21.203  0.00  0.00    +0.000 NA
ATOM     12  C   UNL     1       1.116  11.474  20.998  0.00  0.00    +0.000 C 
ATOM     13  C   UNL     1      -0.298  12.065  21.172  0.00  0.00    +0.000 C 
ATOM     14  N   UNL     1      -1.026  11.510  22.324  0.00  0.00    +0.000 N 
ATOM     15  C   UNL     1      -0.790  10.108  22.694  0.00  0.00    +0.000 C 
ATOM     16  C   UNL     1       0.692   9.721  22.531  0.00  0.00    +0.000 C 
BRANCH  14  17
ATOM     17  C   UNL     1      -1.719  12.394  23.134  0.00  0.00    +0.000 A 
ATOM     18  C   UNL     1      -3.002  12.080  23.621  0.00  0.00    +0.000 A 
ATOM     19  C   UNL     1      -3.776  13.010  24.313  0.00  0.00    +0.000 A 
ATOM     20  C   UNL     1      -3.264  14.272  24.571  0.00  0.00    +0.000 A 
ATOM     21  C   UNL     1      -1.979  14.595  24.154  0.00  0.00    +0.000 A 
ATOM     22  C   UNL     1      -1.217  13.662  23.453  0.00  0.00    +0.000 A 
ENDBRANCH  14  17
ENDBRANCH   1  11
BRANCH   1  23
ATOM     23  C   UNL     1       0.362  10.050  18.830  0.00  0.00    +0.000 C 
BRANCH  23  26
ATOM     24  O   UNL     1      -0.776  12.398  17.790  0.00  0.00    +0.000 OA
ATOM     25  C   UNL     1      -1.479  11.425  18.036  0.00  0.00    +0.000 C 
ATOM     26  N   UNL     1      -1.066  10.238  18.551  0.00  0.00    +0.000 N 
ATOM     27  H   UNL     1      -1.668   9.432  18.428  0.00  0.00    +0.000 HD
BRANCH  25  28
ATOM     28  C   UNL     1      -2.978  11.531  17.702  0.00  0.00    +0.000 C 
ATOM     29  O   UNL     1      -3.334  11.130  16.605  0.00  0.00    +0.000 OA
ATOM     30  N   UNL     1      -3.708  12.130  18.703  0.00  0.00    +0.000 N 
ATOM     31  H   UNL     1      -3.184  12.521  19.493  0.00  0.00    +0.000 HD
BRANCH  30  32
ATOM     32  C   UNL     1      -5.100  12.341  18.656  0.00  0.00    +0.000 A 
ATOM     33  C   UNL     1      -5.744  12.537  17.435  0.00  0.00    +0.000 A 
ATOM     34  C   UNL     1      -7.108  12.793  17.377  0.00  0.00    +0.000 A 
ATOM     35  C   UNL     1      -7.856  12.830  18.545  0.00  0.00    +0.000 A 
ATOM     36  C   UNL     1      -7.234  12.617  19.778  0.00  0.00    +0.000 A 
ATOM     37  C   UNL     1      -5.862  12.369  19.828  0.00  0.00    +0.000 A 
ATOM     38  F   UNL     1      -5.274  12.217  21.028  0.00  0.00    +0.000 F 
ENDBRANCH  30  32
ENDBRANCH  25  28
ENDBRANCH  23  26
ENDBRANCH   1  23
TORSDOF 7
ENDMDL
MODEL 8
REMARK VINA RESULT:      -7.6      1.308      1.615
REMARK  Name = 
REMARK  7 active torsions:
REMARK  status: ('A' for Active; 'I' for Inactive)
REMARK    1  A    between atoms: C_2  and  C_27
REMARK    2  A    between atoms: N_3  and  C_4
REMARK    3  A    between atoms: C_4  and  C_5
REMARK    4  A    between atoms: C_5  and  C_6
REMARK    5  A    between atoms: C_5  and  N_15
REMARK    6  A    between atoms: N_18  and  C_19
REMARK    7  A    between atoms: N_29  and  C_30
REMARK                            x       y       z     vdW  Elec       q    Type
REMARK                         _______ _______ _______ _____ _____    ______ ____
ROOT
ATOM      1  C   UNL     1      -0.105  11.817  19.374  0.00  0.00    +0.000 C 
ENDROOT
BRANCH   1   2
ATOM      2  C   UNL     1      -1.518  11.522  18.847  0.00  0.00    +0.000 A 
ATOM      3  C   UNL     1      -1.743  10.543  17.847  0.00  0.00    +0.000 A 
ATOM      4  C   UNL     1      -3.034  10.265  17.386  0.00  0.00    +0.000 A 
ATOM      5  C   UNL     1      -4.080  10.959  17.950  0.00  0.00    +0.000 A 
ATOM      6  C   UNL     1      -3.882  11.882  18.948  0.00  0.00    +0.000 A 
ATOM      7  C   UNL     1      -2.623  12.183  19.421  0.00  0.00    +0.000 A 
ATOM      8  O   UNL     1      -5.044  12.439  19.381  0.00  0.00    +0.000 OA
ATOM      9  C   UNL     1      -5.991  11.803  18.497  0.00  0.00    +0.000 C 
ATOM     10  O   UNL     1      -5.392  10.831  17.616  0.00  0.00    +0.000 OA
ENDBRANCH   1   2
BRANCH   1  11
ATOM     11  N   UNL     1      -0.047  13.161  20.011  0.00  0.00    +0.000 NA
ATOM     12  C   UNL     1       1.027  13.280  21.023  0.00  0.00    +0.000 C 
ATOM     13  C   UNL     1       2.486  13.320  20.528  0.00  0.00    +0.000 C 
ATOM     14  N   UNL     1       2.675  14.147  19.326  0.00  0.00    +0.000 N 
ATOM     15  C   UNL     1       1.586  14.210  18.340  0.00  0.00    +0.000 C 
ATOM     16  C   UNL     1       0.206  14.242  19.022  0.00  0.00    +0.000 C 
BRANCH  14  17
ATOM     17  C   UNL     1       3.767  14.998  19.295  0.00  0.00    +0.000 A 
ATOM     18  C   UNL     1       3.741  16.236  19.965  0.00  0.00    +0.000 A 
ATOM     19  C   UNL     1       4.766  17.170  19.827  0.00  0.00    +0.000 A 
ATOM     20  C   UNL     1       5.867  16.869  19.041  0.00  0.00    +0.000 A 
ATOM     21  C   UNL     1       5.950  15.634  18.412  0.00  0.00    +0.000 A 
ATOM     22  C   UNL     1       4.915  14.710  18.548  0.00  0.00    +0.000 A 
ENDBRANCH  14  17
ENDBRANCH   1  11
BRANCH   1  23
ATOM     23  C   UNL     1       0.352  10.669  20.354  0.00  0.00    +0.000 C 
BRANCH  23  26
ATOM     24  O   UNL     1       1.355   8.423  21.710  0.00  0.00    +0.000 OA
ATOM     25  C   UNL     1       1.430   8.494  20.489  0.00  0.00    +0.000 C 
ATOM     26  N   UNL     1       1.001   9.521  19.711  0.00  0.00    +0.000 N 
ATOM     27  H   UNL     1       0.845   9.337  18.726  0.00  0.00    +0.000 HD
BRANCH  25  28
ATOM     28  C   UNL     1       2.039   7.291  19.745  0.00  0.00    +0.000 C 
ATOM     29  O   UNL     1       2.742   7.534  18.776  0.00  0.00    +0.000 OA
ATOM     30  N   UNL     1       1.645   6.082  20.270  0.00  0.00    +0.000 N 
ATOM     31  H   UNL     1       0.932   6.103  21.007  0.00  0.00    +0.000 HD
BRANCH  30  32
ATOM     32  C   UNL     1       2.064   4.828  19.782  0.00  0.00    +0.000 A 
ATOM     33  C   UNL     1       2.105   4.581  18.411  0.00  0.00    +0.000 A 
ATOM     34  C   UNL     1       2.471   3.335  17.919  0.00  0.00    +0.000 A 
ATOM     35  C   UNL     1       2.829   2.321  18.796  0.00  0.00    +0.000 A 
ATOM     36  C   UNL     1       2.814   2.554  20.173  0.00  0.00    +0.000 A 
ATOM     37  C   UNL     1       2.437   3.805  20.660  0.00  0.00    +0.000 A 
ATOM     38  F   UNL     1       2.380   3.994  21.991  0.00  0.00    +0.000 F 
ENDBRANCH  30  32
ENDBRANCH  25  28
ENDBRANCH  23  26
ENDBRANCH   1  23
TORSDOF 7
ENDMDL
MODEL 9
REMARK VINA RESULT:      -7.5      1.170      1.306
REMARK  Name = 
REMARK  7 active torsions:
REMARK  status: ('A' for Active; 'I' for Inactive)
REMARK    1  A    between atoms: C_2  and  C_27
REMARK    2  A    between atoms: N_3  and  C_4
REMARK    3  A    between atoms: C_4  and  C_5
REMARK    4  A    between atoms: C_5  and  C_6
REMARK    5  A    between atoms: C_5  and  N_15
REMARK    6  A    between atoms: N_18  and  C_19
REMARK    7  A    between atoms: N_29  and  C_30
REMARK                            x       y       z     vdW  Elec       q    Type
REMARK                         _______ _______ _______ _____ _____    ______ ____
ROOT
ATOM      1  C   UNL     1      -0.863  12.130  19.906  0.00  0.00    +0.000 C 
ENDROOT
BRANCH   1   2
ATOM      2  C   UNL     1      -2.372  12.163  19.616  0.00  0.00    +0.000 A 
ATOM      3  C   UNL     1      -2.917  11.526  18.474  0.00  0.00    +0.000 A 
ATOM      4  C   UNL     1      -4.294  11.542  18.227  0.00  0.00    +0.000 A 
ATOM      5  C   UNL     1      -5.103  12.181  19.139  0.00  0.00    +0.000 A 
ATOM      6  C   UNL     1      -4.592  12.770  20.270  0.00  0.00    +0.000 A 
ATOM      7  C   UNL     1      -3.241  12.775  20.541  0.00  0.00    +0.000 A 
ATOM      8  O   UNL     1      -5.559  13.327  21.048  0.00  0.00    +0.000 OA
ATOM      9  C   UNL     1      -6.729  13.073  20.244  0.00  0.00    +0.000 C 
ATOM     10  O   UNL     1      -6.453  12.309  19.052  0.00  0.00    +0.000 OA
ENDBRANCH   1   2
BRANCH   1  11
ATOM     11  N   UNL     1      -0.425  13.385  20.576  0.00  0.00    +0.000 NA
ATOM     12  C   UNL     1       0.789  13.209  21.406  0.00  0.00    +0.000 C 
ATOM     13  C   UNL     1       2.133  12.984  20.684  0.00  0.00    +0.000 C 
ATOM     14  N   UNL     1       2.311  13.838  19.499  0.00  0.00    +0.000 N 
ATOM     15  C   UNL     1       1.126  14.193  18.705  0.00  0.00    +0.000 C 
ATOM     16  C   UNL     1      -0.098  14.459  19.602  0.00  0.00    +0.000 C 
BRANCH  14  17
ATOM     17  C   UNL     1       3.542  14.448  19.324  0.00  0.00    +0.000 A 
ATOM     18  C   UNL     1       4.149  14.508  18.056  0.00  0.00    +0.000 A 
ATOM     19  C   UNL     1       5.447  14.984  17.881  0.00  0.00    +0.000 A 
ATOM     20  C   UNL     1       6.160  15.450  18.975  0.00  0.00    +0.000 A 
ATOM     21  C   UNL     1       5.569  15.456  20.232  0.00  0.00    +0.000 A 
ATOM     22  C   UNL     1       4.274  14.969  20.398  0.00  0.00    +0.000 A 
ENDBRANCH  14  17
ENDBRANCH   1  11
BRANCH   1  23
ATOM     23  C   UNL     1      -0.507  10.845  20.749  0.00  0.00    +0.000 C 
BRANCH  23  26
ATOM     24  O   UNL     1       1.278   9.025  21.928  0.00  0.00    +0.000 OA
ATOM     25  C   UNL     1       1.059   8.986  20.723  0.00  0.00    +0.000 C 
ATOM     26  N   UNL     1       0.236   9.809  20.024  0.00  0.00    +0.000 N 
ATOM     27  H   UNL     1      -0.088   9.496  19.115  0.00  0.00    +0.000 HD
BRANCH  25  28
ATOM     28  C   UNL     1       1.756   7.878  19.911  0.00  0.00    +0.000 C 
ATOM     29  O   UNL     1       2.060   8.141  18.759  0.00  0.00    +0.000 OA
ATOM     30  N   UNL     1       1.887   6.703  20.614  0.00  0.00    +0.000 N 
ATOM     31  H   UNL     1       1.433   6.654  21.532  0.00  0.00    +0.000 HD
BRANCH  30  32
ATOM     32  C   UNL     1       2.495   5.537  20.109  0.00  0.00    +0.000 A 
ATOM     33  C   UNL     1       3.814   5.566  19.658  0.00  0.00    +0.000 A 
ATOM     34  C   UNL     1       4.411   4.437  19.114  0.00  0.00    +0.000 A 
ATOM     35  C   UNL     1       3.701   3.247  19.036  0.00  0.00    +0.000 A 
ATOM     36  C   UNL     1       2.384   3.191  19.500  0.00  0.00    +0.000 A 
ATOM     37  C   UNL     1       1.789   4.332  20.038  0.00  0.00    +0.000 A 
ATOM     38  F   UNL     1       0.504   4.270  20.432  0.00  0.00    +0.000 F 
ENDBRANCH  30  32
ENDBRANCH  25  28
ENDBRANCH  23  26
ENDBRANCH   1  23
TORSDOF 7
ENDMDL
