MODEL 1
REMARK VINA RESULT:      -8.3      0.000      0.000
REMARK  Name = 
REMARK  7 active torsions:
REMARK  status: ('A' for Active; 'I' for Inactive)
REMARK    1  A    between atoms: C_1  and  C_2
REMARK    2  A    between atoms: C_2  and  C_3
REMARK    3  A    between atoms: C_2  and  C_4
REMARK    4  A    between atoms: C_2  and  C_5
REMARK    5  A    between atoms: C_11  and  C_12
REMARK    6  A    between atoms: N_14  and  C_15
REMARK    7  A    between atoms: C_19  and  C_20
REMARK                            x       y       z     vdW  Elec       q    Type
REMARK                         _______ _______ _______ _____ _____    ______ ____
ROOT
ATOM      1  C   UNL     1       2.056   8.623  18.288  0.00  0.00    +0.000 C 
ATOM      2  O   UNL     1       1.878   9.469  17.410  0.00  0.00    +0.000 OA
ATOM      3  N   UNL     1       1.448   8.641  19.551  0.00  0.00    +0.000 N 
ATOM      4  H   UNL     1       1.810   8.010  20.267  0.00  0.00    +0.000 HD
ENDROOT
BRANCH   1  11
ATOM      5  C   UNL     1       1.808   3.850  18.623  0.00  0.00    +0.000 C 
ATOM      6  C   UNL     1       2.777   3.320  17.511  0.00  0.00    +0.000 C 
ATOM      7  C   UNL     1       4.092   4.116  17.302  0.00  0.00    +0.000 C 
ATOM      8  C   UNL     1       3.855   5.551  17.559  0.00  0.00    +0.000 A 
ATOM      9  O   UNL     1       4.817   6.478  17.355  0.00  0.00    +0.000 OA
ATOM     10  N   UNL     1       4.296   7.747  17.632  0.00  0.00    +0.000 NA
ATOM     11  C   UNL     1       3.016   7.547  18.003  0.00  0.00    +0.000 A 
ATOM     12  C   UNL     1       2.718   6.146  18.023  0.00  0.00    +0.000 A 
ATOM     13  C   UNL     1       1.494   5.364  18.352  0.00  0.00    +0.000 C 
BRANCH   5  15
ATOM     14  C   UNL     1       3.501   2.667  20.235  0.00  0.00    +0.000 C 
ATOM     15  C   UNL     1       2.200   3.473  20.112  0.00  0.00    +0.000 C 
ATOM     16  C   UNL     1       1.072   2.638  20.770  0.00  0.00    +0.000 C 
ATOM     17  C   UNL     1       2.357   4.744  20.979  0.00  0.00    +0.000 C 
ENDBRANCH   5  15
ENDBRANCH   1  11
BRANCH   3  18
ATOM     18  C   UNL     1       0.503   9.603  19.957  0.00  0.00    +0.000 A 
ATOM     19  S   UNL     1      -0.486  10.307  18.762  0.00  0.00    +0.000 S 
ATOM     20  C   UNL     1      -1.144  11.417  19.828  0.00  0.00    +0.000 A 
ATOM     21  C   UNL     1      -0.797  11.178  21.145  0.00  0.00    +0.000 A 
ATOM     22  C   UNL     1       0.164  10.063  21.239  0.00  0.00    +0.000 A 
ATOM     23  C   UNL     1      -1.369  12.067  22.225  0.00  0.00    +0.000 C 
ATOM     24  C   UNL     1      -2.494  12.999  21.728  0.00  0.00    +0.000 C 
ATOM     25  C   UNL     1      -2.189  13.602  20.357  0.00  0.00    +0.000 C 
ATOM     26  C   UNL     1      -2.039  12.498  19.313  0.00  0.00    +0.000 C 
BRANCH  22  27
ATOM     27  C   UNL     1       0.777   9.474  22.437  0.00  0.00    +0.000 C 
ATOM     28  N   UNL     1      -0.023   9.162  23.501  0.00  0.00    +0.000 N 
ATOM     29  O   UNL     1       1.982   9.242  22.515  0.00  0.00    +0.000 OA
ATOM     30  H   UNL     1      -0.998   9.381  23.576  0.00  0.00    +0.000 HD
ATOM     31  H   UNL     1       0.417   8.735  24.308  0.00  0.00    +0.000 HD
ENDBRANCH  22  27
ENDBRANCH   3  18
TORSDOF 4
ENDMDL
MODEL 2
REMARK VINA RESULT:      -7.9      0.848      1.171
REMARK  Name = 
REMARK  7 active torsions:
REMARK  status: ('A' for Active; 'I' for Inactive)
REMARK    1  A    between atoms: C_1  and  C_2
REMARK    2  A    between atoms: C_2  and  C_3
REMARK    3  A    between atoms: C_2  and  C_4
REMARK    4  A    between atoms: C_2  and  C_5
REMARK    5  A    between atoms: C_11  and  C_12
REMARK    6  A    between atoms: N_14  and  C_15
REMARK    7  A    between atoms: C_19  and  C_20
REMARK                            x       y       z     vdW  Elec       q    Type
REMARK                         _______ _______ _______ _____ _____    ______ ____
ROOT
ATOM      1  C   UNL     1       2.435   8.326  18.006  0.00  0.00    +0.000 C 
ATOM      2  O   UNL     1       2.399   9.172  17.110  0.00  0.00    +0.000 OA
ATOM      3  N   UNL     1       1.750   8.423  19.226  0.00  0.00    +0.000 N 
ATOM      4  H   UNL     1       2.000   7.771  19.970  0.00  0.00    +0.000 HD
ENDROOT
BRANCH   1  11
ATOM      5  C   UNL     1       1.818   3.632  18.739  0.00  0.00    +0.000 C 
ATOM      6  C   UNL     1       2.716   2.936  17.659  0.00  0.00    +0.000 C 
ATOM      7  C   UNL     1       4.085   3.604  17.364  0.00  0.00    +0.000 C 
ATOM      8  C   UNL     1       3.968   5.070  17.505  0.00  0.00    +0.000 A 
ATOM      9  O   UNL     1       4.996   5.897  17.211  0.00  0.00    +0.000 OA
ATOM     10  N   UNL     1       4.583   7.222  17.391  0.00  0.00    +0.000 NA
ATOM     11  C   UNL     1       3.300   7.157  17.796  0.00  0.00    +0.000 A 
ATOM     12  C   UNL     1       2.892   5.790  17.937  0.00  0.00    +0.000 A 
ATOM     13  C   UNL     1       1.618   5.138  18.349  0.00  0.00    +0.000 C 
BRANCH   5  15
ATOM     14  C   UNL     1       1.186   2.500  21.016  0.00  0.00    +0.000 C 
ATOM     15  C   UNL     1       2.212   3.346  20.248  0.00  0.00    +0.000 C 
ATOM     16  C   UNL     1       2.386   4.679  21.019  0.00  0.00    +0.000 C 
ATOM     17  C   UNL     1       3.573   2.618  20.333  0.00  0.00    +0.000 C 
ENDBRANCH   5  15
ENDBRANCH   1  11
BRANCH   3  18
ATOM     18  C   UNL     1       0.880   9.480  19.559  0.00  0.00    +0.000 A 
ATOM     19  S   UNL     1       0.282  10.452  18.295  0.00  0.00    +0.000 S 
ATOM     20  C   UNL     1      -0.435  11.540  19.345  0.00  0.00    +0.000 A 
ATOM     21  C   UNL     1      -0.420  11.117  20.661  0.00  0.00    +0.000 A 
ATOM     22  C   UNL     1       0.335   9.856  20.796  0.00  0.00    +0.000 A 
ATOM     23  C   UNL     1      -1.086  11.973  21.713  0.00  0.00    +0.000 C 
ATOM     24  C   UNL     1      -1.937  13.120  21.129  0.00  0.00    +0.000 C 
ATOM     25  C   UNL     1      -1.260  13.802  19.939  0.00  0.00    +0.000 C 
ATOM     26  C   UNL     1      -1.038  12.799  18.810  0.00  0.00    +0.000 C 
BRANCH  22  27
ATOM     27  C   UNL     1       0.585   9.057  22.003  0.00  0.00    +0.000 C 
ATOM     28  N   UNL     1       1.863   8.966  22.481  0.00  0.00    +0.000 N 
ATOM     29  O   UNL     1      -0.314   8.474  22.605  0.00  0.00    +0.000 OA
ATOM     30  H   UNL     1       2.677   9.332  22.027  0.00  0.00    +0.000 HD
ATOM     31  H   UNL     1       2.009   8.429  23.327  0.00  0.00    +0.000 HD
ENDBRANCH  22  27
ENDBRANCH   3  18
TORSDOF 4
ENDMDL
MODEL 3
REMARK VINA RESULT:      -7.7      1.656      2.691
REMARK  Name = 
REMARK  7 active torsions:
REMARK  status: ('A' for Active; 'I' for Inactive)
REMARK    1  A    between atoms: C_1  and  C_2
REMARK    2  A    between atoms: C_2  and  C_3
REMARK    3  A    between atoms: C_2  and  C_4
REMARK    4  A    between atoms: C_2  and  C_5
REMARK    5  A    between atoms: C_11  and  C_12
REMARK    6  A    between atoms: N_14  and  C_15
REMARK    7  A    between atoms: C_19  and  C_20
REMARK                            x       y       z     vdW  Elec       q    Type
REMARK                         _______ _______ _______ _____ _____    ______ ____
ROOT
ATOM      1  C   UNL     1       1.757   8.172  19.422  0.00  0.00    +0.000 C 
ATOM      2  O   UNL     1       1.526   7.754  20.558  0.00  0.00    +0.000 OA
ATOM      3  N   UNL     1       1.196   9.331  18.866  0.00  0.00    +0.000 N 
ATOM      4  H   UNL     1       1.299   9.480  17.861  0.00  0.00    +0.000 HD
ENDROOT
BRANCH   1  11
ATOM      5  C   UNL     1       2.198   3.456  18.704  0.00  0.00    +0.000 C 
ATOM      6  C   UNL     1       2.716   3.322  17.231  0.00  0.00    +0.000 C 
ATOM      7  C   UNL     1       3.749   4.379  16.762  0.00  0.00    +0.000 C 
ATOM      8  C   UNL     1       3.469   5.675  17.412  0.00  0.00    +0.000 A 
ATOM      9  O   UNL     1       4.168   6.792  17.103  0.00  0.00    +0.000 OA
ATOM     10  N   UNL     1       3.654   7.869  17.834  0.00  0.00    +0.000 NA
ATOM     11  C   UNL     1       2.647   7.366  18.575  0.00  0.00    +0.000 A 
ATOM     12  C   UNL     1       2.540   5.952  18.373  0.00  0.00    +0.000 A 
ATOM     13  C   UNL     1       1.635   4.904  18.921  0.00  0.00    +0.000 C 
BRANCH   5  15
ATOM     14  C   UNL     1       4.310   3.874  20.198  0.00  0.00    +0.000 C 
ATOM     15  C   UNL     1       3.174   2.909  19.828  0.00  0.00    +0.000 C 
ATOM     16  C   UNL     1       3.825   1.578  19.373  0.00  0.00    +0.000 C 
ATOM     17  C   UNL     1       2.396   2.587  21.124  0.00  0.00    +0.000 C 
ENDBRANCH   5  15
ENDBRANCH   1  11
BRANCH   3  18
ATOM     18  C   UNL     1       0.337  10.203  19.563  0.00  0.00    +0.000 A 
ATOM     19  S   UNL     1       0.761  10.642  21.152  0.00  0.00    +0.000 S 
ATOM     20  C   UNL     1      -0.689  11.435  21.420  0.00  0.00    +0.000 A 
ATOM     21  C   UNL     1      -1.456  11.566  20.277  0.00  0.00    +0.000 A 
ATOM     22  C   UNL     1      -0.829  10.862  19.142  0.00  0.00    +0.000 A 
ATOM     23  C   UNL     1      -2.766  12.316  20.357  0.00  0.00    +0.000 C 
ATOM     24  C   UNL     1      -2.965  13.072  21.687  0.00  0.00    +0.000 C 
ATOM     25  C   UNL     1      -2.503  12.259  22.897  0.00  0.00    +0.000 C 
ATOM     26  C   UNL     1      -1.012  11.948  22.786  0.00  0.00    +0.000 C 
BRANCH  22  27
ATOM     27  C   UNL     1      -1.293  10.759  17.752  0.00  0.00    +0.000 C 
ATOM     28  N   UNL     1      -1.590  11.906  17.070  0.00  0.00    +0.000 N 
ATOM     29  O   UNL     1      -1.416   9.680  17.177  0.00  0.00    +0.000 OA
ATOM     30  H   UNL     1      -1.602  12.827  17.464  0.00  0.00    +0.000 HD
ATOM     31  H   UNL     1      -1.886  11.813  16.105  0.00  0.00    +0.000 HD
ENDBRANCH  22  27
ENDBRANCH   3  18
TORSDOF 4
ENDMDL
MODEL 4
REMARK VINA RESULT:      -7.7      2.237      8.357
REMARK  Name = 
REMARK  7 active torsions:
REMARK  status: ('A' for Active; 'I' for Inactive)
REMARK    1  A    between atoms: C_1  and  C_2
REMARK    2  A    between atoms: C_2  and  C_3
REMARK    3  A    between atoms: C_2  and  C_4
REMARK    4  A    between atoms: C_2  and  C_5
REMARK    5  A    between atoms: C_11  and  C_12
REMARK    6  A    between atoms: N_14  and  C_15
REMARK    7  A    between atoms: C_19  and  C_20
REMARK                            x       y       z     vdW  Elec       q    Type
REMARK                         _______ _______ _______ _____ _____    ______ ____
ROOT
ATOM      1  C   UNL     1       0.389   8.347  21.254  0.00  0.00    +0.000 C 
ATOM      2  O   UNL     1      -0.537   7.534  21.283  0.00  0.00    +0.000 OA
ATOM      3  N   UNL     1       1.667   8.085  20.739  0.00  0.00    +0.000 N 
ATOM      4  H   UNL     1       2.412   8.753  20.940  0.00  0.00    +0.000 HD
ENDROOT
BRANCH   1  11
ATOM      5  C   UNL     1       0.034  12.750  19.399  0.00  0.00    +0.000 C 
ATOM      6  C   UNL     1      -0.940  13.512  20.362  0.00  0.00    +0.000 C 
ATOM      7  C   UNL     1      -0.793  13.209  21.876  0.00  0.00    +0.000 C 
ATOM      8  C   UNL     1      -0.396  11.800  22.068  0.00  0.00    +0.000 A 
ATOM      9  O   UNL     1      -0.292  11.252  23.300  0.00  0.00    +0.000 OA
ATOM     10  N   UNL     1       0.051   9.901  23.172  0.00  0.00    +0.000 NA
ATOM     11  C   UNL     1       0.147   9.668  21.849  0.00  0.00    +0.000 A 
ATOM     12  C   UNL     1      -0.076  10.878  21.114  0.00  0.00    +0.000 A 
ATOM     13  C   UNL     1      -0.087  11.207  19.662  0.00  0.00    +0.000 C 
BRANCH   5  15
ATOM     14  C   UNL     1       2.272  13.311  20.640  0.00  0.00    +0.000 C 
ATOM     15  C   UNL     1       1.506  13.331  19.309  0.00  0.00    +0.000 C 
ATOM     16  C   UNL     1       1.475  14.799  18.813  0.00  0.00    +0.000 C 
ATOM     17  C   UNL     1       2.346  12.545  18.276  0.00  0.00    +0.000 C 
ENDBRANCH   5  15
ENDBRANCH   1  11
BRANCH   3  18
ATOM     18  C   UNL     1       2.038   6.869  20.132  0.00  0.00    +0.000 A 
ATOM     19  S   UNL     1       1.716   5.424  20.973  0.00  0.00    +0.000 S 
ATOM     20  C   UNL     1       2.549   4.485  19.866  0.00  0.00    +0.000 A 
ATOM     21  C   UNL     1       2.928   5.184  18.735  0.00  0.00    +0.000 A 
ATOM     22  C   UNL     1       2.590   6.614  18.867  0.00  0.00    +0.000 A 
ATOM     23  C   UNL     1       3.636   4.447  17.622  0.00  0.00    +0.000 C 
ATOM     24  C   UNL     1       3.624   2.913  17.790  0.00  0.00    +0.000 C 
ATOM     25  C   UNL     1       3.869   2.482  19.236  0.00  0.00    +0.000 C 
ATOM     26  C   UNL     1       2.774   3.033  20.146  0.00  0.00    +0.000 C 
BRANCH  22  27
ATOM     27  C   UNL     1       2.800   7.703  17.903  0.00  0.00    +0.000 C 
ATOM     28  N   UNL     1       3.952   7.718  17.167  0.00  0.00    +0.000 N 
ATOM     29  O   UNL     1       1.975   8.596  17.727  0.00  0.00    +0.000 OA
ATOM     30  H   UNL     1       4.723   7.089  17.286  0.00  0.00    +0.000 HD
ATOM     31  H   UNL     1       4.067   8.465  16.492  0.00  0.00    +0.000 HD
ENDBRANCH  22  27
ENDBRANCH   3  18
TORSDOF 4
ENDMDL
MODEL 5
REMARK VINA RESULT:      -7.6      2.824      8.793
REMARK  Name = 
REMARK  7 active torsions:
REMARK  status: ('A' for Active; 'I' for Inactive)
REMARK    1  A    between atoms: C_1  and  C_2
REMARK    2  A    between atoms: C_2  and  C_3
REMARK    3  A    between atoms: C_2  and  C_4
REMARK    4  A    between atoms: C_2  and  C_5
REMARK    5  A    between atoms: C_11  and  C_12
REMARK    6  A    between atoms: N_14  and  C_15
REMARK    7  A    between atoms: C_19  and  C_20
REMARK                            x       y       z     vdW  Elec       q    Type
REMARK                         _______ _______ _______ _____ _____    ______ ____
ROOT
ATOM      1  C   UNL     1       0.554  12.549  20.773  0.00  0.00    +0.000 C 
ATOM      2  O   UNL     1       1.696  12.627  21.230  0.00  0.00    +0.000 OA
ATOM      3  N   UNL     1       0.027  11.422  20.126  0.00  0.00    +0.000 N 
ATOM      4  H   UNL     1      -0.852  11.529  19.616  0.00  0.00    +0.000 HD
ENDROOT
BRANCH   1  11
ATOM      5  C   UNL     1      -2.612  14.045  24.044  0.00  0.00    +0.000 C 
ATOM      6  C   UNL     1      -2.558  15.610  23.966  0.00  0.00    +0.000 C 
ATOM      7  C   UNL     1      -2.402  16.227  22.551  0.00  0.00    +0.000 C 
ATOM      8  C   UNL     1      -1.576  15.341  21.707  0.00  0.00    +0.000 A 
ATOM      9  O   UNL     1      -1.209  15.693  20.454  0.00  0.00    +0.000 OA
ATOM     10  N   UNL     1      -0.396  14.688  19.917  0.00  0.00    +0.000 NA
ATOM     11  C   UNL     1      -0.295  13.744  20.873  0.00  0.00    +0.000 A 
ATOM     12  C   UNL     1      -1.087  14.104  22.011  0.00  0.00    +0.000 A 
ATOM     13  C   UNL     1      -1.350  13.452  23.324  0.00  0.00    +0.000 C 
BRANCH   5  15
ATOM     14  C   UNL     1      -4.026  12.695  22.300  0.00  0.00    +0.000 C 
ATOM     15  C   UNL     1      -4.004  13.386  23.671  0.00  0.00    +0.000 C 
ATOM     16  C   UNL     1      -5.123  14.458  23.669  0.00  0.00    +0.000 C 
ATOM     17  C   UNL     1      -4.416  12.336  24.728  0.00  0.00    +0.000 C 
ENDBRANCH   5  15
ENDBRANCH   1  11
BRANCH   3  18
ATOM     18  C   UNL     1       0.721  10.207  19.967  0.00  0.00    +0.000 A 
ATOM     19  S   UNL     1       1.494   9.916  18.478  0.00  0.00    +0.000 S 
ATOM     20  C   UNL     1       1.886   8.340  18.883  0.00  0.00    +0.000 A 
ATOM     21  C   UNL     1       1.627   8.039  20.207  0.00  0.00    +0.000 A 
ATOM     22  C   UNL     1       0.962   9.170  20.881  0.00  0.00    +0.000 A 
ATOM     23  C   UNL     1       1.988   6.667  20.729  0.00  0.00    +0.000 C 
ATOM     24  C   UNL     1       2.851   5.841  19.752  0.00  0.00    +0.000 C 
ATOM     25  C   UNL     1       2.388   5.983  18.302  0.00  0.00    +0.000 C 
ATOM     26  C   UNL     1       2.488   7.439  17.854  0.00  0.00    +0.000 C 
BRANCH  22  27
ATOM     27  C   UNL     1       0.527   9.282  22.280  0.00  0.00    +0.000 C 
ATOM     28  N   UNL     1      -0.748   8.911  22.605  0.00  0.00    +0.000 N 
ATOM     29  O   UNL     1       1.270   9.689  23.171  0.00  0.00    +0.000 OA
ATOM     30  H   UNL     1      -1.458   8.643  21.950  0.00  0.00    +0.000 HD
ATOM     31  H   UNL     1      -1.020   8.974  23.579  0.00  0.00    +0.000 HD
ENDBRANCH  22  27
ENDBRANCH   3  18
TORSDOF 4
ENDMDL
MODEL 6
REMARK VINA RESULT:      -7.6      2.225      8.346
REMARK  Name = 
REMARK  7 active torsions:
REMARK  status: ('A' for Active; 'I' for Inactive)
REMARK    1  A    between atoms: C_1  and  C_2
REMARK    2  A    between atoms: C_2  and  C_3
REMARK    3  A    between atoms: C_2  and  C_4
REMARK    4  A    between atoms: C_2  and  C_5
REMARK    5  A    between atoms: C_11  and  C_12
REMARK    6  A    between atoms: N_14  and  C_15
REMARK    7  A    between atoms: C_19  and  C_20
REMARK                            x       y       z     vdW  Elec       q    Type
REMARK                         _______ _______ _______ _____ _____    ______ ____
ROOT
ATOM      1  C   UNL     1       1.434   8.501  20.326  0.00  0.00    +0.000 C 
ATOM      2  O   UNL     1       1.296   8.884  19.163  0.00  0.00    +0.000 OA
ATOM      3  N   UNL     1       2.073   7.311  20.705  0.00  0.00    +0.000 N 
ATOM      4  H   UNL     1       1.962   6.993  21.669  0.00  0.00    +0.000 HD
ENDROOT
BRANCH   1  11
ATOM      5  C   UNL     1      -1.381  12.377  20.250  0.00  0.00    +0.000 C 
ATOM      6  C   UNL     1      -2.228  12.282  21.566  0.00  0.00    +0.000 C 
ATOM      7  C   UNL     1      -1.491  11.759  22.827  0.00  0.00    +0.000 C 
ATOM      8  C   UNL     1      -0.479  10.757  22.436  0.00  0.00    +0.000 A 
ATOM      9  O   UNL     1       0.239  10.076  23.356  0.00  0.00    +0.000 OA
ATOM     10  N   UNL     1       1.078   9.167  22.700  0.00  0.00    +0.000 NA
ATOM     11  C   UNL     1       0.841   9.329  21.384  0.00  0.00    +0.000 A 
ATOM     12  C   UNL     1      -0.109  10.381  21.177  0.00  0.00    +0.000 A 
ATOM     13  C   UNL     1      -0.724  10.982  19.960  0.00  0.00    +0.000 C 
BRANCH   5  15
ATOM     14  C   UNL     1       0.997  13.396  20.662  0.00  0.00    +0.000 C 
ATOM     15  C   UNL     1      -0.426  13.637  20.138  0.00  0.00    +0.000 C 
ATOM     16  C   UNL     1      -1.016  14.831  20.930  0.00  0.00    +0.000 C 
ATOM     17  C   UNL     1      -0.308  14.109  18.671  0.00  0.00    +0.000 C 
ENDBRANCH   5  15
ENDBRANCH   1  11
BRANCH   3  18
ATOM     18  C   UNL     1       2.694   6.428  19.801  0.00  0.00    +0.000 A 
ATOM     19  S   UNL     1       3.838   7.069  18.714  0.00  0.00    +0.000 S 
ATOM     20  C   UNL     1       3.983   5.630  17.872  0.00  0.00    +0.000 A 
ATOM     21  C   UNL     1       3.335   4.573  18.484  0.00  0.00    +0.000 A 
ATOM     22  C   UNL     1       2.588   5.034  19.670  0.00  0.00    +0.000 A 
ATOM     23  C   UNL     1       3.431   3.198  17.866  0.00  0.00    +0.000 C 
ATOM     24  C   UNL     1       4.475   3.100  16.734  0.00  0.00    +0.000 C 
ATOM     25  C   UNL     1       4.459   4.325  15.818  0.00  0.00    +0.000 C 
ATOM     26  C   UNL     1       4.788   5.585  16.613  0.00  0.00    +0.000 C 
BRANCH  22  27
ATOM     27  C   UNL     1       1.780   4.249  20.613  0.00  0.00    +0.000 C 
ATOM     28  N   UNL     1       0.583   3.741  20.191  0.00  0.00    +0.000 N 
ATOM     29  O   UNL     1       2.144   4.024  21.765  0.00  0.00    +0.000 OA
ATOM     30  H   UNL     1       0.154   3.929  19.305  0.00  0.00    +0.000 HD
ATOM     31  H   UNL     1       0.053   3.183  20.850  0.00  0.00    +0.000 HD
ENDBRANCH  22  27
ENDBRANCH   3  18
TORSDOF 4
ENDMDL
MODEL 7
REMARK VINA RESULT:      -7.5      1.909      3.229
REMARK  Name = 
REMARK  7 active torsions:
REMARK  status: ('A' for Active; 'I' for Inactive)
REMARK    1  A    between atoms: C_1  and  C_2
REMARK    2  A    between atoms: C_2  and  C_3
REMARK    3  A    between atoms: C_2  and  C_4
REMARK    4  A    between atoms: C_2  and  C_5
REMARK    5  A    between atoms: C_11  and  C_12
REMARK    6  A    between atoms: N_14  and  C_15
REMARK    7  A    between atoms: C_19  and  C_20
REMARK                            x       y       z     vdW  Elec       q    Type
REMARK                         _______ _______ _______ _____ _____    ______ ____
ROOT
ATOM      1  C   UNL     1       2.151   7.829  19.078  0.00  0.00    +0.000 C 
ATOM      2  O   UNL     1       2.533   8.515  18.128  0.00  0.00    +0.000 OA
ATOM      3  N   UNL     1       1.269   8.266  20.077  0.00  0.00    +0.000 N 
ATOM      4  H   UNL     1       1.172   7.693  20.916  0.00  0.00    +0.000 HD
ENDROOT
BRANCH   1  11
ATOM      5  C   UNL     1       6.139   5.766  17.406  0.00  0.00    +0.000 C 
ATOM      6  C   UNL     1       6.490   4.660  18.461  0.00  0.00    +0.000 C 
ATOM      7  C   UNL     1       5.294   3.886  19.075  0.00  0.00    +0.000 C 
ATOM      8  C   UNL     1       4.125   4.780  19.191  0.00  0.00    +0.000 A 
ATOM      9  O   UNL     1       2.978   4.377  19.783  0.00  0.00    +0.000 OA
ATOM     10  N   UNL     1       2.070   5.442  19.792  0.00  0.00    +0.000 NA
ATOM     11  C   UNL     1       2.702   6.472  19.195  0.00  0.00    +0.000 A 
ATOM     12  C   UNL     1       3.999   6.064  18.745  0.00  0.00    +0.000 A 
ATOM     13  C   UNL     1       5.105   6.765  18.034  0.00  0.00    +0.000 C 
BRANCH   5  15
ATOM     14  C   UNL     1       4.897   4.008  15.913  0.00  0.00    +0.000 C 
ATOM     15  C   UNL     1       5.809   5.243  15.947  0.00  0.00    +0.000 C 
ATOM     16  C   UNL     1       7.116   4.876  15.199  0.00  0.00    +0.000 C 
ATOM     17  C   UNL     1       5.128   6.348  15.107  0.00  0.00    +0.000 C 
ENDBRANCH   5  15
ENDBRANCH   1  11
BRANCH   3  18
ATOM     18  C   UNL     1       0.658   9.535  20.088  0.00  0.00    +0.000 A 
ATOM     19  S   UNL     1       0.247  10.238  18.592  0.00  0.00    +0.000 S 
ATOM     20  C   UNL     1      -0.188  11.695  19.290  0.00  0.00    +0.000 A 
ATOM     21  C   UNL     1      -0.226  11.647  20.671  0.00  0.00    +0.000 A 
ATOM     22  C   UNL     1       0.243  10.337  21.162  0.00  0.00    +0.000 A 
ATOM     23  C   UNL     1      -0.662  12.877  21.435  0.00  0.00    +0.000 C 
ATOM     24  C   UNL     1      -1.262  13.980  20.539  0.00  0.00    +0.000 C 
ATOM     25  C   UNL     1      -0.489  14.156  19.232  0.00  0.00    +0.000 C 
ATOM     26  C   UNL     1      -0.521  12.864  18.419  0.00  0.00    +0.000 C 
BRANCH  22  27
ATOM     27  C   UNL     1       0.350   9.857  22.546  0.00  0.00    +0.000 C 
ATOM     28  N   UNL     1      -0.786   9.759  23.300  0.00  0.00    +0.000 N 
ATOM     29  O   UNL     1       1.423   9.531  23.050  0.00  0.00    +0.000 OA
ATOM     30  H   UNL     1      -1.696  10.072  23.018  0.00  0.00    +0.000 HD
ATOM     31  H   UNL     1      -0.693   9.403  24.244  0.00  0.00    +0.000 HD
ENDBRANCH  22  27
ENDBRANCH   3  18
TORSDOF 4
ENDMDL
MODEL 8
REMARK VINA RESULT:      -7.5      2.700      8.557
REMARK  Name = 
REMARK  7 active torsions:
REMARK  status: ('A' for Active; 'I' for Inactive)
REMARK    1  A    between atoms: C_1  and  C_2
REMARK    2  A    between atoms: C_2  and  C_3
REMARK    3  A    between atoms: C_2  and  C_4
REMARK    4  A    between atoms: C_2  and  C_5
REMARK    5  A    between atoms: C_11  and  C_12
REMARK    6  A    between atoms: N_14  and  C_15
REMARK    7  A    between atoms: C_19  and  C_20
REMARK                            x       y       z     vdW  Elec       q    Type
REMARK                         _______ _______ _______ _____ _____    ______ ____
ROOT
ATOM      1  C   UNL     1       2.322   7.902  18.704  0.00  0.00    +0.000 C 
ATOM      2  O   UNL     1       2.277   8.418  17.586  0.00  0.00    +0.000 OA
ATOM      3  N   UNL     1       3.042   6.741  19.022  0.00  0.00    +0.000 N 
ATOM      4  H   UNL     1       2.856   6.291  19.919  0.00  0.00    +0.000 HD
ENDROOT
BRANCH   1  11
ATOM      5  C   UNL     1      -0.216  11.959  18.933  0.00  0.00    +0.000 C 
ATOM      6  C   UNL     1      -1.368  11.653  19.952  0.00  0.00    +0.000 C 
ATOM      7  C   UNL     1      -0.992  10.785  21.181  0.00  0.00    +0.000 C 
ATOM      8  C   UNL     1       0.041   9.801  20.802  0.00  0.00    +0.000 A 
ATOM      9  O   UNL     1       0.478   8.858  21.667  0.00  0.00    +0.000 OA
ATOM     10  N   UNL     1       1.413   8.043  21.021  0.00  0.00    +0.000 NA
ATOM     11  C   UNL     1       1.519   8.523  19.767  0.00  0.00    +0.000 A 
ATOM     12  C   UNL     1       0.697   9.686  19.610  0.00  0.00    +0.000 A 
ATOM     13  C   UNL     1       0.431  10.607  18.470  0.00  0.00    +0.000 C 
BRANCH   5  15
ATOM     14  C   UNL     1       1.098  13.148  20.862  0.00  0.00    +0.000 C 
ATOM     15  C   UNL     1       0.790  13.107  19.359  0.00  0.00    +0.000 C 
ATOM     16  C   UNL     1       0.221  14.494  18.963  0.00  0.00    +0.000 C 
ATOM     17  C   UNL     1       2.136  12.965  18.611  0.00  0.00    +0.000 C 
ENDBRANCH   5  15
ENDBRANCH   1  11
BRANCH   3  18
ATOM     18  C   UNL     1       3.860   6.048  18.109  0.00  0.00    +0.000 A 
ATOM     19  S   UNL     1       5.422   6.658  17.810  0.00  0.00    +0.000 S 
ATOM     20  C   UNL     1       5.713   5.569  16.574  0.00  0.00    +0.000 A 
ATOM     21  C   UNL     1       4.741   4.592  16.469  0.00  0.00    +0.000 A 
ATOM     22  C   UNL     1       3.639   4.847  17.416  0.00  0.00    +0.000 A 
ATOM     23  C   UNL     1       4.905   3.504  15.433  0.00  0.00    +0.000 C 
ATOM     24  C   UNL     1       6.299   3.483  14.773  0.00  0.00    +0.000 C 
ATOM     25  C   UNL     1       6.819   4.887  14.461  0.00  0.00    +0.000 C 
ATOM     26  C   UNL     1       6.951   5.700  15.746  0.00  0.00    +0.000 C 
BRANCH  22  27
ATOM     27  C   UNL     1       2.421   4.058  17.647  0.00  0.00    +0.000 C 
ATOM     28  N   UNL     1       2.542   2.787  18.134  0.00  0.00    +0.000 N 
ATOM     29  O   UNL     1       1.296   4.502  17.425  0.00  0.00    +0.000 OA
ATOM     30  H   UNL     1       3.407   2.300  18.272  0.00  0.00    +0.000 HD
ATOM     31  H   UNL     1       1.688   2.269  18.308  0.00  0.00    +0.000 HD
ENDBRANCH  22  27
ENDBRANCH   3  18
TORSDOF 4
ENDMDL
MODEL 9
REMARK VINA RESULT:      -7.4      2.760      8.725
REMARK  Name = 
REMARK  7 active torsions:
REMARK  status: ('A' for Active; 'I' for Inactive)
REMARK    1  A    between atoms: C_1  and  C_2
REMARK    2  A    between atoms: C_2  and  C_3
REMARK    3  A    between atoms: C_2  and  C_4
REMARK    4  A    between atoms: C_2  and  C_5
REMARK    5  A    between atoms: C_11  and  C_12
REMARK    6  A    between atoms: N_14  and  C_15
REMARK    7  A    between atoms: C_19  and  C_20
REMARK                            x       y       z     vdW  Elec       q    Type
REMARK                         _______ _______ _______ _____ _____    ______ ____
ROOT
ATOM      1  C   UNL     1       0.542  12.224  20.580  0.00  0.00    +0.000 C 
ATOM      2  O   UNL     1       1.575  12.260  21.249  0.00  0.00    +0.000 OA
ATOM      3  N   UNL     1       0.145  11.143  19.778  0.00  0.00    +0.000 N 
ATOM      4  H   UNL     1      -0.620  11.291  19.118  0.00  0.00    +0.000 HD
ENDROOT
BRANCH   1  11
ATOM      5  C   UNL     1      -2.463  14.083  23.815  0.00  0.00    +0.000 C 
ATOM      6  C   UNL     1      -2.422  15.629  23.558  0.00  0.00    +0.000 C 
ATOM      7  C   UNL     1      -2.341  16.081  22.076  0.00  0.00    +0.000 C 
ATOM      8  C   UNL     1      -1.554  15.104  21.297  0.00  0.00    +0.000 A 
ATOM      9  O   UNL     1      -1.253  15.311  19.995  0.00  0.00    +0.000 OA
ATOM     10  N   UNL     1      -0.463  14.252  19.535  0.00  0.00    +0.000 NA
ATOM     11  C   UNL     1      -0.308  13.423  20.586  0.00  0.00    +0.000 A 
ATOM     12  C   UNL     1      -1.044  13.910  21.714  0.00  0.00    +0.000 A 
ATOM     13  C   UNL     1      -1.236  13.411  23.105  0.00  0.00    +0.000 C 
BRANCH   5  15
ATOM     14  C   UNL     1      -4.266  12.400  24.699  0.00  0.00    +0.000 C 
ATOM     15  C   UNL     1      -3.869  13.386  23.591  0.00  0.00    +0.000 C 
ATOM     16  C   UNL     1      -3.875  12.607  22.252  0.00  0.00    +0.000 C 
ATOM     17  C   UNL     1      -4.994  14.441  23.481  0.00  0.00    +0.000 C 
ENDBRANCH   5  15
ENDBRANCH   1  11
BRANCH   3  18
ATOM     18  C   UNL     1       0.853   9.930  19.684  0.00  0.00    +0.000 A 
ATOM     19  S   UNL     1       1.891   9.712  18.351  0.00  0.00    +0.000 S 
ATOM     20  C   UNL     1       2.196   8.111  18.732  0.00  0.00    +0.000 A 
ATOM     21  C   UNL     1       1.694   7.740  19.965  0.00  0.00    +0.000 A 
ATOM     22  C   UNL     1       0.917   8.841  20.566  0.00  0.00    +0.000 A 
ATOM     23  C   UNL     1       1.948   6.337  20.467  0.00  0.00    +0.000 C 
ATOM     24  C   UNL     1       2.976   5.555  19.623  0.00  0.00    +0.000 C 
ATOM     25  C   UNL     1       2.793   5.782  18.122  0.00  0.00    +0.000 C 
ATOM     26  C   UNL     1       2.978   7.259  17.784  0.00  0.00    +0.000 C 
BRANCH  22  27
ATOM     27  C   UNL     1       0.228   8.881  21.863  0.00  0.00    +0.000 C 
ATOM     28  N   UNL     1       0.806   9.567  22.895  0.00  0.00    +0.000 N 
ATOM     29  O   UNL     1      -0.853   8.328  22.053  0.00  0.00    +0.000 OA
ATOM     30  H   UNL     1       1.717   9.983  22.875  0.00  0.00    +0.000 HD
ATOM     31  H   UNL     1       0.303   9.601  23.774  0.00  0.00    +0.000 HD
ENDBRANCH  22  27
ENDBRANCH   3  18
TORSDOF 4
ENDMDL
