MODEL 1
REMARK VINA RESULT:      -6.8      0.000      0.000
REMARK  Name = 
REMARK  13 active torsions:
REMARK  status: ('A' for Active; 'I' for Inactive)
REMARK    1  A    between atoms: C_1  and  O_2
REMARK    2  A    between atoms: O_2  and  C_3
REMARK    3  A    between atoms: C_5  and  O_6
REMARK    4  A    between atoms: O_6  and  C_7
REMARK    5  A    between atoms: C_8  and  C_9
REMARK    6  A    between atoms: C_9  and  C_10
REMARK    7  A    between atoms: C_10  and  C_11
REMARK    8  A    between atoms: C_11  and  C_13
REMARK    9  A    between atoms: C_16  and  O_17
REMARK   10  A    between atoms: C_18  and  O_19
REMARK   11  A    between atoms: O_19  and  C_20
REMARK   12  A    between atoms: C_22  and  O_23
REMARK   13  A    between atoms: O_23  and  C_24
REMARK                            x       y       z     vdW  Elec       q    Type
REMARK                         _______ _______ _______ _____ _____    ______ ____
ROOT
ATOM      1  C   UNL     1       2.436   3.680  17.683  0.00  0.00    +0.000 C 
ENDROOT
BRANCH   1   5
ATOM      2  C   UNL     1       1.730   6.869  20.577  0.00  0.00    +0.000 A 
ATOM      3  C   UNL     1       1.326   5.574  20.882  0.00  0.00    +0.000 A 
ATOM      4  C   UNL     1       1.537   4.517  19.989  0.00  0.00    +0.000 A 
ATOM      5  C   UNL     1       2.188   4.748  18.756  0.00  0.00    +0.000 A 
ATOM      6  C   UNL     1       2.613   6.072  18.466  0.00  0.00    +0.000 A 
ATOM      7  C   UNL     1       2.372   7.118  19.371  0.00  0.00    +0.000 A 
BRANCH   2   9
ATOM      8  C   UNL     1       0.909   9.042  21.041  0.00  0.00    +0.000 C 
ATOM      9  O   UNL     1       1.405   7.802  21.523  0.00  0.00    +0.000 OA
ENDBRANCH   2   9
BRANCH   4  10
ATOM     10  O   UNL     1       1.164   3.237  20.309  0.00  0.00    +0.000 OA
ATOM     11  C   UNL     1       1.607   2.733  21.564  0.00  0.00    +0.000 C 
ENDBRANCH   4  10
BRANCH   6  12
ATOM     12  O   UNL     1       3.253   6.248  17.261  0.00  0.00    +0.000 OA
ATOM     13  C   UNL     1       3.852   7.513  17.006  0.00  0.00    +0.000 C 
ENDBRANCH   6  12
ENDBRANCH   1   5
BRANCH   1  14
ATOM     14  C   UNL     1       3.585   2.701  17.905  0.00  0.00    +0.000 C 
BRANCH  14  15
ATOM     15  C   UNL     1       4.701   3.206  18.796  0.00  0.00    +0.000 C 
ATOM     16  O   UNL     1       4.888   2.791  19.936  0.00  0.00    +0.000 OA
BRANCH  15  17
ATOM     17  C   UNL     1       5.598   4.274  18.236  0.00  0.00    +0.000 A 
ATOM     18  C   UNL     1       6.044   5.296  19.082  0.00  0.00    +0.000 A 
ATOM     19  C   UNL     1       6.875   6.303  18.591  0.00  0.00    +0.000 A 
ATOM     20  C   UNL     1       7.257   6.292  17.250  0.00  0.00    +0.000 A 
ATOM     21  C   UNL     1       6.821   5.282  16.383  0.00  0.00    +0.000 A 
ATOM     22  C   UNL     1       5.993   4.275  16.885  0.00  0.00    +0.000 A 
BRANCH  20  23
ATOM     23  O   UNL     1       8.072   7.279  16.767  0.00  0.00    +0.000 OA
ATOM     24  H   UNL     1       8.879   7.319  17.302  0.00  0.00    +0.000 HD
ENDBRANCH  20  23
BRANCH  21  25
ATOM     25  O   UNL     1       7.247   5.365  15.083  0.00  0.00    +0.000 OA
ATOM     26  C   UNL     1       6.649   4.493  14.133  0.00  0.00    +0.000 C 
ENDBRANCH  21  25
ENDBRANCH  15  17
ENDBRANCH  14  15
ENDBRANCH   1  14
TORSDOF 9
ENDMDL
MODEL 2
REMARK VINA RESULT:      -6.7      0.224      2.588
REMARK  Name = 
REMARK  13 active torsions:
REMARK  status: ('A' for Active; 'I' for Inactive)
REMARK    1  A    between atoms: C_1  and  O_2
REMARK    2  A    between atoms: O_2  and  C_3
REMARK    3  A    between atoms: C_5  and  O_6
REMARK    4  A    between atoms: O_6  and  C_7
REMARK    5  A    between atoms: C_8  and  C_9
REMARK    6  A    between atoms: C_9  and  C_10
REMARK    7  A    between atoms: C_10  and  C_11
REMARK    8  A    between atoms: C_11  and  C_13
REMARK    9  A    between atoms: C_16  and  O_17
REMARK   10  A    between atoms: C_18  and  O_19
REMARK   11  A    between atoms: O_19  and  C_20
REMARK   12  A    between atoms: C_22  and  O_23
REMARK   13  A    between atoms: O_23  and  C_24
REMARK                            x       y       z     vdW  Elec       q    Type
REMARK                         _______ _______ _______ _____ _____    ______ ____
ROOT
ATOM      1  C   UNL     1       2.442   3.615  17.741  0.00  0.00    +0.000 C 
ENDROOT
BRANCH   1   5
ATOM      2  C   UNL     1       1.762   6.820  20.622  0.00  0.00    +0.000 A 
ATOM      3  C   UNL     1       2.388   7.113  19.417  0.00  0.00    +0.000 A 
ATOM      4  C   UNL     1       2.621   6.121  18.458  0.00  0.00    +0.000 A 
ATOM      5  C   UNL     1       2.204   4.791  18.696  0.00  0.00    +0.000 A 
ATOM      6  C   UNL     1       1.548   4.510  19.923  0.00  0.00    +0.000 A 
ATOM      7  C   UNL     1       1.342   5.520  20.876  0.00  0.00    +0.000 A 
BRANCH   2   9
ATOM      8  C   UNL     1       0.437   8.610  21.430  0.00  0.00    +0.000 C 
ATOM      9  O   UNL     1       1.654   7.880  21.479  0.00  0.00    +0.000 OA
ENDBRANCH   2   9
BRANCH   4  10
ATOM     10  O   UNL     1       3.212   6.423  17.257  0.00  0.00    +0.000 OA
ATOM     11  C   UNL     1       3.842   7.695  17.153  0.00  0.00    +0.000 C 
ENDBRANCH   4  10
BRANCH   6  12
ATOM     12  O   UNL     1       1.148   3.206  20.106  0.00  0.00    +0.000 OA
ATOM     13  C   UNL     1       1.510   2.566  21.324  0.00  0.00    +0.000 C 
ENDBRANCH   6  12
ENDBRANCH   1   5
BRANCH   1  14
ATOM     14  C   UNL     1       3.589   2.660  18.059  0.00  0.00    +0.000 C 
BRANCH  14  15
ATOM     15  C   UNL     1       4.702   3.245  18.903  0.00  0.00    +0.000 C 
ATOM     16  O   UNL     1       4.900   2.919  20.070  0.00  0.00    +0.000 OA
BRANCH  15  17
ATOM     17  C   UNL     1       5.582   4.279  18.259  0.00  0.00    +0.000 A 
ATOM     18  C   UNL     1       6.114   5.303  19.051  0.00  0.00    +0.000 A 
ATOM     19  C   UNL     1       6.933   6.279  18.482  0.00  0.00    +0.000 A 
ATOM     20  C   UNL     1       7.215   6.235  17.116  0.00  0.00    +0.000 A 
ATOM     21  C   UNL     1       6.692   5.222  16.303  0.00  0.00    +0.000 A 
ATOM     22  C   UNL     1       5.878   4.246  16.883  0.00  0.00    +0.000 A 
BRANCH  20  23
ATOM     23  O   UNL     1       8.017   7.192  16.557  0.00  0.00    +0.000 OA
ATOM     24  H   UNL     1       8.203   6.956  15.635  0.00  0.00    +0.000 HD
ENDBRANCH  20  23
BRANCH  21  25
ATOM     25  O   UNL     1       7.024   5.271  14.974  0.00  0.00    +0.000 OA
ATOM     26  C   UNL     1       6.416   4.326  14.105  0.00  0.00    +0.000 C 
ENDBRANCH  21  25
ENDBRANCH  15  17
ENDBRANCH  14  15
ENDBRANCH   1  14
TORSDOF 9
ENDMDL
MODEL 3
REMARK VINA RESULT:      -6.4      0.924      2.814
REMARK  Name = 
REMARK  13 active torsions:
REMARK  status: ('A' for Active; 'I' for Inactive)
REMARK    1  A    between atoms: C_1  and  O_2
REMARK    2  A    between atoms: O_2  and  C_3
REMARK    3  A    between atoms: C_5  and  O_6
REMARK    4  A    between atoms: O_6  and  C_7
REMARK    5  A    between atoms: C_8  and  C_9
REMARK    6  A    between atoms: C_9  and  C_10
REMARK    7  A    between atoms: C_10  and  C_11
REMARK    8  A    between atoms: C_11  and  C_13
REMARK    9  A    between atoms: C_16  and  O_17
REMARK   10  A    between atoms: C_18  and  O_19
REMARK   11  A    between atoms: O_19  and  C_20
REMARK   12  A    between atoms: C_22  and  O_23
REMARK   13  A    between atoms: O_23  and  C_24
REMARK                            x       y       z     vdW  Elec       q    Type
REMARK                         _______ _______ _______ _____ _____    ______ ____
ROOT
ATOM      1  C   UNL     1       2.155   3.573  17.878  0.00  0.00    +0.000 C 
ENDROOT
BRANCH   1   5
ATOM      2  C   UNL     1       1.814   6.935  20.639  0.00  0.00    +0.000 A 
ATOM      3  C   UNL     1       2.429   7.127  19.408  0.00  0.00    +0.000 A 
ATOM      4  C   UNL     1       2.555   6.082  18.486  0.00  0.00    +0.000 A 
ATOM      5  C   UNL     1       2.039   4.802  18.789  0.00  0.00    +0.000 A 
ATOM      6  C   UNL     1       1.395   4.624  20.043  0.00  0.00    +0.000 A 
ATOM      7  C   UNL     1       1.298   5.684  20.957  0.00  0.00    +0.000 A 
BRANCH   2   9
ATOM      8  C   UNL     1       0.628   8.812  21.465  0.00  0.00    +0.000 C 
ATOM      9  O   UNL     1       1.816   8.033  21.453  0.00  0.00    +0.000 OA
ENDBRANCH   2   9
BRANCH   4  10
ATOM     10  O   UNL     1       3.136   6.287  17.260  0.00  0.00    +0.000 OA
ATOM     11  C   UNL     1       4.162   7.270  17.192  0.00  0.00    +0.000 C 
ENDBRANCH   4  10
BRANCH   6  12
ATOM     12  O   UNL     1       0.895   3.365  20.289  0.00  0.00    +0.000 OA
ATOM     13  C   UNL     1       1.402   2.660  21.416  0.00  0.00    +0.000 C 
ENDBRANCH   6  12
ENDBRANCH   1   5
BRANCH   1  14
ATOM     14  C   UNL     1       3.285   2.586  18.154  0.00  0.00    +0.000 C 
BRANCH  14  15
ATOM     15  C   UNL     1       4.599   3.210  18.575  0.00  0.00    +0.000 C 
ATOM     16  O   UNL     1       4.993   3.222  19.738  0.00  0.00    +0.000 OA
BRANCH  15  17
ATOM     17  C   UNL     1       5.433   3.847  17.500  0.00  0.00    +0.000 A 
ATOM     18  C   UNL     1       6.607   4.519  17.862  0.00  0.00    +0.000 A 
ATOM     19  C   UNL     1       7.401   5.123  16.887  0.00  0.00    +0.000 A 
ATOM     20  C   UNL     1       7.018   5.060  15.547  0.00  0.00    +0.000 A 
ATOM     21  C   UNL     1       5.847   4.397  15.160  0.00  0.00    +0.000 A 
ATOM     22  C   UNL     1       5.061   3.790  16.144  0.00  0.00    +0.000 A 
BRANCH  20  23
ATOM     23  O   UNL     1       7.796   5.652  14.590  0.00  0.00    +0.000 OA
ATOM     24  H   UNL     1       8.016   5.000  13.907  0.00  0.00    +0.000 HD
ENDBRANCH  20  23
BRANCH  21  25
ATOM     25  O   UNL     1       5.557   4.397  13.821  0.00  0.00    +0.000 OA
ATOM     26  C   UNL     1       6.149   3.387  13.015  0.00  0.00    +0.000 C 
ENDBRANCH  21  25
ENDBRANCH  15  17
ENDBRANCH  14  15
ENDBRANCH   1  14
TORSDOF 9
ENDMDL
MODEL 4
REMARK VINA RESULT:      -6.4      1.329      5.674
REMARK  Name = 
REMARK  13 active torsions:
REMARK  status: ('A' for Active; 'I' for Inactive)
REMARK    1  A    between atoms: C_1  and  O_2
REMARK    2  A    between atoms: O_2  and  C_3
REMARK    3  A    between atoms: C_5  and  O_6
REMARK    4  A    between atoms: O_6  and  C_7
REMARK    5  A    between atoms: C_8  and  C_9
REMARK    6  A    between atoms: C_9  and  C_10
REMARK    7  A    between atoms: C_10  and  C_11
REMARK    8  A    between atoms: C_11  and  C_13
REMARK    9  A    between atoms: C_16  and  O_17
REMARK   10  A    between atoms: C_18  and  O_19
REMARK   11  A    between atoms: O_19  and  C_20
REMARK   12  A    between atoms: C_22  and  O_23
REMARK   13  A    between atoms: O_23  and  C_24
REMARK                            x       y       z     vdW  Elec       q    Type
REMARK                         _______ _______ _______ _____ _____    ______ ____
ROOT
ATOM      1  C   UNL     1       3.983   2.929  17.200  0.00  0.00    +0.000 C 
ENDROOT
BRANCH   1   5
ATOM      2  C   UNL     1       6.997   5.886  18.298  0.00  0.00    +0.000 A 
ATOM      3  C   UNL     1       6.752   5.635  16.954  0.00  0.00    +0.000 A 
ATOM      4  C   UNL     1       5.789   4.701  16.552  0.00  0.00    +0.000 A 
ATOM      5  C   UNL     1       5.031   4.002  17.518  0.00  0.00    +0.000 A 
ATOM      6  C   UNL     1       5.278   4.284  18.889  0.00  0.00    +0.000 A 
ATOM      7  C   UNL     1       6.261   5.211  19.265  0.00  0.00    +0.000 A 
BRANCH   2   9
ATOM      8  C   UNL     1       7.929   8.014  17.831  0.00  0.00    +0.000 C 
ATOM      9  O   UNL     1       8.003   6.782  18.534  0.00  0.00    +0.000 OA
ENDBRANCH   2   9
BRANCH   4  10
ATOM     10  O   UNL     1       5.531   4.481  15.223  0.00  0.00    +0.000 OA
ATOM     11  C   UNL     1       6.651   4.448  14.347  0.00  0.00    +0.000 C 
ENDBRANCH   4  10
BRANCH   6  12
ATOM     12  O   UNL     1       4.508   3.589  19.794  0.00  0.00    +0.000 OA
ATOM     13  C   UNL     1       4.933   2.283  20.162  0.00  0.00    +0.000 C 
ENDBRANCH   6  12
ENDBRANCH   1   5
BRANCH   1  14
ATOM     14  C   UNL     1       2.572   3.392  16.848  0.00  0.00    +0.000 C 
BRANCH  14  15
ATOM     15  C   UNL     1       1.628   3.536  18.024  0.00  0.00    +0.000 C 
ATOM     16  O   UNL     1       0.802   2.680  18.328  0.00  0.00    +0.000 OA
BRANCH  15  17
ATOM     17  C   UNL     1       1.721   4.800  18.831  0.00  0.00    +0.000 A 
ATOM     18  C   UNL     1       1.387   4.763  20.189  0.00  0.00    +0.000 A 
ATOM     19  C   UNL     1       1.461   5.921  20.964  0.00  0.00    +0.000 A 
ATOM     20  C   UNL     1       1.864   7.121  20.377  0.00  0.00    +0.000 A 
ATOM     21  C   UNL     1       2.201   7.184  19.019  0.00  0.00    +0.000 A 
ATOM     22  C   UNL     1       2.129   6.018  18.253  0.00  0.00    +0.000 A 
BRANCH  20  23
ATOM     23  O   UNL     1       1.937   8.257  21.136  0.00  0.00    +0.000 OA
ATOM     24  H   UNL     1       2.866   8.514  21.241  0.00  0.00    +0.000 HD
ENDBRANCH  20  23
BRANCH  21  25
ATOM     25  O   UNL     1       2.579   8.411  18.539  0.00  0.00    +0.000 OA
ATOM     26  C   UNL     1       1.612   9.169  17.825  0.00  0.00    +0.000 C 
ENDBRANCH  21  25
ENDBRANCH  15  17
ENDBRANCH  14  15
ENDBRANCH   1  14
TORSDOF 9
ENDMDL
MODEL 5
REMARK VINA RESULT:      -6.3      1.858      6.975
REMARK  Name = 
REMARK  13 active torsions:
REMARK  status: ('A' for Active; 'I' for Inactive)
REMARK    1  A    between atoms: C_1  and  O_2
REMARK    2  A    between atoms: O_2  and  C_3
REMARK    3  A    between atoms: C_5  and  O_6
REMARK    4  A    between atoms: O_6  and  C_7
REMARK    5  A    between atoms: C_8  and  C_9
REMARK    6  A    between atoms: C_9  and  C_10
REMARK    7  A    between atoms: C_10  and  C_11
REMARK    8  A    between atoms: C_11  and  C_13
REMARK    9  A    between atoms: C_16  and  O_17
REMARK   10  A    between atoms: C_18  and  O_19
REMARK   11  A    between atoms: O_19  and  C_20
REMARK   12  A    between atoms: C_22  and  O_23
REMARK   13  A    between atoms: O_23  and  C_24
REMARK                            x       y       z     vdW  Elec       q    Type
REMARK                         _______ _______ _______ _____ _____    ______ ____
ROOT
ATOM      1  C   UNL     1       4.960   4.634  19.102  0.00  0.00    +0.000 C 
ENDROOT
BRANCH   1   5
ATOM      2  C   UNL     1       6.281   4.088  14.979  0.00  0.00    +0.000 A 
ATOM      3  C   UNL     1       7.152   4.654  15.902  0.00  0.00    +0.000 A 
ATOM      4  C   UNL     1       6.777   4.842  17.237  0.00  0.00    +0.000 A 
ATOM      5  C   UNL     1       5.496   4.440  17.678  0.00  0.00    +0.000 A 
ATOM      6  C   UNL     1       4.623   3.844  16.729  0.00  0.00    +0.000 A 
ATOM      7  C   UNL     1       5.017   3.684  15.392  0.00  0.00    +0.000 A 
BRANCH   2   9
ATOM      8  C   UNL     1       5.875   3.540  12.710  0.00  0.00    +0.000 C 
ATOM      9  O   UNL     1       6.769   4.020  13.704  0.00  0.00    +0.000 OA
ENDBRANCH   2   9
BRANCH   4  10
ATOM     10  O   UNL     1       7.653   5.373  18.149  0.00  0.00    +0.000 OA
ATOM     11  C   UNL     1       7.744   6.791  18.203  0.00  0.00    +0.000 C 
ENDBRANCH   4  10
BRANCH   6  12
ATOM     12  O   UNL     1       3.391   3.456  17.206  0.00  0.00    +0.000 OA
ATOM     13  C   UNL     1       3.234   2.103  17.613  0.00  0.00    +0.000 C 
ENDBRANCH   6  12
ENDBRANCH   1   5
BRANCH   1  14
ATOM     14  C   UNL     1       4.357   5.989  19.458  0.00  0.00    +0.000 C 
BRANCH  14  15
ATOM     15  C   UNL     1       2.844   6.026  19.525  0.00  0.00    +0.000 C 
ATOM     16  O   UNL     1       2.156   5.022  19.690  0.00  0.00    +0.000 OA
BRANCH  15  17
ATOM     17  C   UNL     1       2.180   7.364  19.366  0.00  0.00    +0.000 A 
ATOM     18  C   UNL     1       2.184   7.978  18.109  0.00  0.00    +0.000 A 
ATOM     19  C   UNL     1       1.579   9.223  17.931  0.00  0.00    +0.000 A 
ATOM     20  C   UNL     1       0.972   9.857  19.015  0.00  0.00    +0.000 A 
ATOM     21  C   UNL     1       0.958   9.265  20.284  0.00  0.00    +0.000 A 
ATOM     22  C   UNL     1       1.563   8.016  20.450  0.00  0.00    +0.000 A 
BRANCH  20  23
ATOM     23  O   UNL     1       0.378  11.078  18.842  0.00  0.00    +0.000 OA
ATOM     24  H   UNL     1       0.848  11.741  19.372  0.00  0.00    +0.000 HD
ENDBRANCH  20  23
BRANCH  21  25
ATOM     25  O   UNL     1       0.342   9.973  21.283  0.00  0.00    +0.000 OA
ATOM     26  C   UNL     1      -0.206   9.241  22.371  0.00  0.00    +0.000 C 
ENDBRANCH  21  25
ENDBRANCH  15  17
ENDBRANCH  14  15
ENDBRANCH   1  14
TORSDOF 9
ENDMDL
MODEL 6
REMARK VINA RESULT:      -6.3      2.062      4.710
REMARK  Name = 
REMARK  13 active torsions:
REMARK  status: ('A' for Active; 'I' for Inactive)
REMARK    1  A    between atoms: C_1  and  O_2
REMARK    2  A    between atoms: O_2  and  C_3
REMARK    3  A    between atoms: C_5  and  O_6
REMARK    4  A    between atoms: O_6  and  C_7
REMARK    5  A    between atoms: C_8  and  C_9
REMARK    6  A    between atoms: C_9  and  C_10
REMARK    7  A    between atoms: C_10  and  C_11
REMARK    8  A    between atoms: C_11  and  C_13
REMARK    9  A    between atoms: C_16  and  O_17
REMARK   10  A    between atoms: C_18  and  O_19
REMARK   11  A    between atoms: O_19  and  C_20
REMARK   12  A    between atoms: C_22  and  O_23
REMARK   13  A    between atoms: O_23  and  C_24
REMARK                            x       y       z     vdW  Elec       q    Type
REMARK                         _______ _______ _______ _____ _____    ______ ____
ROOT
ATOM      1  C   UNL     1       2.073   7.836  17.954  0.00  0.00    +0.000 C 
ENDROOT
BRANCH   1   5
ATOM      2  C   UNL     1       0.794   9.396  21.823  0.00  0.00    +0.000 A 
ATOM      3  C   UNL     1       0.524  10.128  20.673  0.00  0.00    +0.000 A 
ATOM      4  C   UNL     1       0.907   9.666  19.409  0.00  0.00    +0.000 A 
ATOM      5  C   UNL     1       1.569   8.424  19.278  0.00  0.00    +0.000 A 
ATOM      6  C   UNL     1       1.821   7.677  20.460  0.00  0.00    +0.000 A 
ATOM      7  C   UNL     1       1.442   8.171  21.717  0.00  0.00    +0.000 A 
BRANCH   2   9
ATOM      8  C   UNL     1      -0.849  10.662  22.967  0.00  0.00    +0.000 C 
ATOM      9  O   UNL     1       0.408  10.002  22.986  0.00  0.00    +0.000 OA
ENDBRANCH   2   9
BRANCH   4  10
ATOM     10  O   UNL     1       0.610  10.379  18.276  0.00  0.00    +0.000 OA
ATOM     11  C   UNL     1      -0.762  10.454  17.905  0.00  0.00    +0.000 C 
ENDBRANCH   4  10
BRANCH   6  12
ATOM     12  O   UNL     1       2.456   6.468  20.282  0.00  0.00    +0.000 OA
ATOM     13  C   UNL     1       1.780   5.295  20.719  0.00  0.00    +0.000 C 
ENDBRANCH   6  12
ENDBRANCH   1   5
BRANCH   1  14
ATOM     14  C   UNL     1       3.526   8.096  17.567  0.00  0.00    +0.000 C 
BRANCH  14  15
ATOM     15  C   UNL     1       4.226   6.944  16.876  0.00  0.00    +0.000 C 
ATOM     16  O   UNL     1       4.655   7.013  15.727  0.00  0.00    +0.000 OA
BRANCH  15  17
ATOM     17  C   UNL     1       4.377   5.666  17.651  0.00  0.00    +0.000 A 
ATOM     18  C   UNL     1       5.378   5.579  18.625  0.00  0.00    +0.000 A 
ATOM     19  C   UNL     1       5.545   4.404  19.359  0.00  0.00    +0.000 A 
ATOM     20  C   UNL     1       4.712   3.312  19.116  0.00  0.00    +0.000 A 
ATOM     21  C   UNL     1       3.705   3.373  18.144  0.00  0.00    +0.000 A 
ATOM     22  C   UNL     1       3.543   4.556  17.418  0.00  0.00    +0.000 A 
BRANCH  20  23
ATOM     23  O   UNL     1       4.875   2.159  19.835  0.00  0.00    +0.000 OA
ATOM     24  H   UNL     1       5.805   1.889  19.800  0.00  0.00    +0.000 HD
ENDBRANCH  20  23
BRANCH  21  25
ATOM     25  O   UNL     1       2.945   2.245  17.977  0.00  0.00    +0.000 OA
ATOM     26  C   UNL     1       1.620   2.259  18.489  0.00  0.00    +0.000 C 
ENDBRANCH  21  25
ENDBRANCH  15  17
ENDBRANCH  14  15
ENDBRANCH   1  14
TORSDOF 9
ENDMDL
MODEL 7
REMARK VINA RESULT:      -6.3      1.837      4.052
REMARK  Name = 
REMARK  13 active torsions:
REMARK  status: ('A' for Active; 'I' for Inactive)
REMARK    1  A    between atoms: C_1  and  O_2
REMARK    2  A    between atoms: O_2  and  C_3
REMARK    3  A    between atoms: C_5  and  O_6
REMARK    4  A    between atoms: O_6  and  C_7
REMARK    5  A    between atoms: C_8  and  C_9
REMARK    6  A    between atoms: C_9  and  C_10
REMARK    7  A    between atoms: C_10  and  C_11
REMARK    8  A    between atoms: C_11  and  C_13
REMARK    9  A    between atoms: C_16  and  O_17
REMARK   10  A    between atoms: C_18  and  O_19
REMARK   11  A    between atoms: O_19  and  C_20
REMARK   12  A    between atoms: C_22  and  O_23
REMARK   13  A    between atoms: O_23  and  C_24
REMARK                            x       y       z     vdW  Elec       q    Type
REMARK                         _______ _______ _______ _____ _____    ______ ____
ROOT
ATOM      1  C   UNL     1       2.175   6.410  20.537  0.00  0.00    +0.000 C 
ENDROOT
BRANCH   1   5
ATOM      2  C   UNL     1       0.995  10.271  18.884  0.00  0.00    +0.000 A 
ATOM      3  C   UNL     1       0.810  10.029  20.240  0.00  0.00    +0.000 A 
ATOM      4  C   UNL     1       1.180   8.809  20.818  0.00  0.00    +0.000 A 
ATOM      5  C   UNL     1       1.769   7.797  20.025  0.00  0.00    +0.000 A 
ATOM      6  C   UNL     1       1.971   8.067  18.645  0.00  0.00    +0.000 A 
ATOM      7  C   UNL     1       1.574   9.291  18.087  0.00  0.00    +0.000 A 
BRANCH   2   9
ATOM      8  C   UNL     1      -0.546  12.045  19.189  0.00  0.00    +0.000 C 
ATOM      9  O   UNL     1       0.535  11.486  18.457  0.00  0.00    +0.000 OA
ENDBRANCH   2   9
BRANCH   4  10
ATOM     10  O   UNL     1       1.023   8.588  22.162  0.00  0.00    +0.000 OA
ATOM     11  C   UNL     1       0.073   9.401  22.841  0.00  0.00    +0.000 C 
ENDBRANCH   4  10
BRANCH   6  12
ATOM     12  O   UNL     1       2.560   7.059  17.916  0.00  0.00    +0.000 OA
ATOM     13  C   UNL     1       3.881   7.274  17.435  0.00  0.00    +0.000 C 
ENDBRANCH   6  12
ENDBRANCH   1   5
BRANCH   1  14
ATOM     14  C   UNL     1       1.095   5.334  20.611  0.00  0.00    +0.000 C 
BRANCH  14  15
ATOM     15  C   UNL     1       1.532   3.950  20.179  0.00  0.00    +0.000 C 
ATOM     16  O   UNL     1       1.017   2.920  20.607  0.00  0.00    +0.000 OA
BRANCH  15  17
ATOM     17  C   UNL     1       2.658   3.862  19.188  0.00  0.00    +0.000 A 
ATOM     18  C   UNL     1       2.365   3.557  17.854  0.00  0.00    +0.000 A 
ATOM     19  C   UNL     1       3.389   3.465  16.911  0.00  0.00    +0.000 A 
ATOM     20  C   UNL     1       4.711   3.675  17.304  0.00  0.00    +0.000 A 
ATOM     21  C   UNL     1       5.031   3.979  18.633  0.00  0.00    +0.000 A 
ATOM     22  C   UNL     1       3.997   4.073  19.569  0.00  0.00    +0.000 A 
BRANCH  20  23
ATOM     23  O   UNL     1       5.717   3.586  16.380  0.00  0.00    +0.000 OA
ATOM     24  H   UNL     1       6.557   3.421  16.836  0.00  0.00    +0.000 HD
ENDBRANCH  20  23
BRANCH  21  25
ATOM     25  O   UNL     1       6.359   4.161  18.917  0.00  0.00    +0.000 OA
ATOM     26  C   UNL     1       6.797   5.479  19.218  0.00  0.00    +0.000 C 
ENDBRANCH  21  25
ENDBRANCH  15  17
ENDBRANCH  14  15
ENDBRANCH   1  14
TORSDOF 9
ENDMDL
MODEL 8
REMARK VINA RESULT:      -6.2      1.976      4.530
REMARK  Name = 
REMARK  13 active torsions:
REMARK  status: ('A' for Active; 'I' for Inactive)
REMARK    1  A    between atoms: C_1  and  O_2
REMARK    2  A    between atoms: O_2  and  C_3
REMARK    3  A    between atoms: C_5  and  O_6
REMARK    4  A    between atoms: O_6  and  C_7
REMARK    5  A    between atoms: C_8  and  C_9
REMARK    6  A    between atoms: C_9  and  C_10
REMARK    7  A    between atoms: C_10  and  C_11
REMARK    8  A    between atoms: C_11  and  C_13
REMARK    9  A    between atoms: C_16  and  O_17
REMARK   10  A    between atoms: C_18  and  O_19
REMARK   11  A    between atoms: O_19  and  C_20
REMARK   12  A    between atoms: C_22  and  O_23
REMARK   13  A    between atoms: O_23  and  C_24
REMARK                            x       y       z     vdW  Elec       q    Type
REMARK                         _______ _______ _______ _____ _____    ______ ____
ROOT
ATOM      1  C   UNL     1       1.884   6.630  20.845  0.00  0.00    +0.000 C 
ENDROOT
BRANCH   1   5
ATOM      2  C   UNL     1       1.205  10.515  18.978  0.00  0.00    +0.000 A 
ATOM      3  C   UNL     1       1.775   9.493  18.229  0.00  0.00    +0.000 A 
ATOM      4  C   UNL     1       2.005   8.227  18.781  0.00  0.00    +0.000 A 
ATOM      5  C   UNL     1       1.642   7.961  20.121  0.00  0.00    +0.000 A 
ATOM      6  C   UNL     1       1.042   9.009  20.869  0.00  0.00    +0.000 A 
ATOM      7  C   UNL     1       0.839  10.274  20.297  0.00  0.00    +0.000 A 
BRANCH   2   9
ATOM      8  C   UNL     1       2.275  12.492  18.230  0.00  0.00    +0.000 C 
ATOM      9  O   UNL     1       1.094  11.708  18.319  0.00  0.00    +0.000 OA
ENDBRANCH   2   9
BRANCH   4  10
ATOM     10  O   UNL     1       2.540   7.214  18.027  0.00  0.00    +0.000 OA
ATOM     11  C   UNL     1       3.863   7.404  17.541  0.00  0.00    +0.000 C 
ENDBRANCH   4  10
BRANCH   6  12
ATOM     12  O   UNL     1       0.693   8.700  22.164  0.00  0.00    +0.000 OA
ATOM     13  C   UNL     1      -0.024   9.677  22.908  0.00  0.00    +0.000 C 
ENDBRANCH   6  12
ENDBRANCH   1   5
BRANCH   1  14
ATOM     14  C   UNL     1       0.980   5.453  20.492  0.00  0.00    +0.000 C 
BRANCH  14  15
ATOM     15  C   UNL     1       1.680   4.115  20.371  0.00  0.00    +0.000 C 
ATOM     16  O   UNL     1       1.435   3.162  21.105  0.00  0.00    +0.000 OA
BRANCH  15  17
ATOM     17  C   UNL     1       2.726   3.981  19.300  0.00  0.00    +0.000 A 
ATOM     18  C   UNL     1       2.327   3.643  18.002  0.00  0.00    +0.000 A 
ATOM     19  C   UNL     1       3.275   3.508  16.987  0.00  0.00    +0.000 A 
ATOM     20  C   UNL     1       4.626   3.706  17.273  0.00  0.00    +0.000 A 
ATOM     21  C   UNL     1       5.050   4.042  18.565  0.00  0.00    +0.000 A 
ATOM     22  C   UNL     1       4.092   4.179  19.572  0.00  0.00    +0.000 A 
BRANCH  20  23
ATOM     23  O   UNL     1       5.557   3.574  16.279  0.00  0.00    +0.000 OA
ATOM     24  H   UNL     1       5.120   3.272  15.468  0.00  0.00    +0.000 HD
ENDBRANCH  20  23
BRANCH  21  25
ATOM     25  O   UNL     1       6.399   4.209  18.742  0.00  0.00    +0.000 OA
ATOM     26  C   UNL     1       6.862   5.498  19.120  0.00  0.00    +0.000 C 
ENDBRANCH  21  25
ENDBRANCH  15  17
ENDBRANCH  14  15
ENDBRANCH   1  14
TORSDOF 9
ENDMDL
MODEL 9
REMARK VINA RESULT:      -6.2      1.988      4.058
REMARK  Name = 
REMARK  13 active torsions:
REMARK  status: ('A' for Active; 'I' for Inactive)
REMARK    1  A    between atoms: C_1  and  O_2
REMARK    2  A    between atoms: O_2  and  C_3
REMARK    3  A    between atoms: C_5  and  O_6
REMARK    4  A    between atoms: O_6  and  C_7
REMARK    5  A    between atoms: C_8  and  C_9
REMARK    6  A    between atoms: C_9  and  C_10
REMARK    7  A    between atoms: C_10  and  C_11
REMARK    8  A    between atoms: C_11  and  C_13
REMARK    9  A    between atoms: C_16  and  O_17
REMARK   10  A    between atoms: C_18  and  O_19
REMARK   11  A    between atoms: O_19  and  C_20
REMARK   12  A    between atoms: C_22  and  O_23
REMARK   13  A    between atoms: O_23  and  C_24
REMARK                            x       y       z     vdW  Elec       q    Type
REMARK                         _______ _______ _______ _____ _____    ______ ____
ROOT
ATOM      1  C   UNL     1       2.351   7.923  17.709  0.00  0.00    +0.000 C 
ENDROOT
BRANCH   1   5
ATOM      2  C   UNL     1       0.770   9.014  21.627  0.00  0.00    +0.000 A 
ATOM      3  C   UNL     1       1.296   7.742  21.438  0.00  0.00    +0.000 A 
ATOM      4  C   UNL     1       1.822   7.348  20.202  0.00  0.00    +0.000 A 
ATOM      5  C   UNL     1       1.841   8.254  19.117  0.00  0.00    +0.000 A 
ATOM      6  C   UNL     1       1.317   9.557  19.330  0.00  0.00    +0.000 A 
ATOM      7  C   UNL     1       0.779   9.921  20.574  0.00  0.00    +0.000 A 
BRANCH   2   9
ATOM      8  C   UNL     1      -0.671  10.312  22.989  0.00  0.00    +0.000 C 
ATOM      9  O   UNL     1       0.244   9.232  22.870  0.00  0.00    +0.000 OA
ENDBRANCH   2   9
BRANCH   4  10
ATOM     10  O   UNL     1       2.369   6.102  20.031  0.00  0.00    +0.000 OA
ATOM     11  C   UNL     1       1.634   5.001  20.553  0.00  0.00    +0.000 C 
ENDBRANCH   4  10
BRANCH   6  12
ATOM     12  O   UNL     1       1.368  10.409  18.250  0.00  0.00    +0.000 OA
ATOM     13  C   UNL     1       1.461  11.805  18.511  0.00  0.00    +0.000 C 
ENDBRANCH   6  12
ENDBRANCH   1   5
BRANCH   1  14
ATOM     14  C   UNL     1       3.846   8.064  17.441  0.00  0.00    +0.000 C 
BRANCH  14  15
ATOM     15  C   UNL     1       4.500   6.867  16.783  0.00  0.00    +0.000 C 
ATOM     16  O   UNL     1       4.946   6.892  15.639  0.00  0.00    +0.000 OA
BRANCH  15  17
ATOM     17  C   UNL     1       4.582   5.600  17.587  0.00  0.00    +0.000 A 
ATOM     18  C   UNL     1       5.490   5.530  18.650  0.00  0.00    +0.000 A 
ATOM     19  C   UNL     1       5.591   4.366  19.413  0.00  0.00    +0.000 A 
ATOM     20  C   UNL     1       4.787   3.268  19.108  0.00  0.00    +0.000 A 
ATOM     21  C   UNL     1       3.874   3.312  18.047  0.00  0.00    +0.000 A 
ATOM     22  C   UNL     1       3.776   4.484  17.293  0.00  0.00    +0.000 A 
BRANCH  20  23
ATOM     23  O   UNL     1       4.886   2.125  19.855  0.00  0.00    +0.000 OA
ATOM     24  H   UNL     1       5.007   2.362  20.787  0.00  0.00    +0.000 HD
ENDBRANCH  20  23
BRANCH  21  25
ATOM     25  O   UNL     1       3.136   2.179  17.827  0.00  0.00    +0.000 OA
ATOM     26  C   UNL     1       1.783   2.175  18.262  0.00  0.00    +0.000 C 
ENDBRANCH  21  25
ENDBRANCH  15  17
ENDBRANCH  14  15
ENDBRANCH   1  14
TORSDOF 9
ENDMDL
