MODEL 1
REMARK VINA RESULT:      -8.1      0.000      0.000
REMARK  Name = 
REMARK  3 active torsions:
REMARK  status: ('A' for Active; 'I' for Inactive)
REMARK    1  A    between atoms: C_1  and  O_2
REMARK    2  A    between atoms: O_2  and  C_3
REMARK    3  A    between atoms: C_15  and  O_16
REMARK                            x       y       z     vdW  Elec       q    Type
REMARK                         _______ _______ _______ _____ _____    ______ ____
ROOT
ATOM      1  C   UNL     1       2.992   7.684  17.772  0.00  0.00    +0.000 A 
ATOM      2  C   UNL     1       4.035   7.337  16.875  0.00  0.00    +0.000 A 
ATOM      3  C   UNL     1       4.799   6.181  17.045  0.00  0.00    +0.000 A 
ATOM      4  C   UNL     1       4.407   5.345  18.075  0.00  0.00    +0.000 A 
ATOM      5  C   UNL     1       3.559   5.858  19.156  0.00  0.00    +0.000 A 
ATOM      6  C   UNL     1       2.792   6.976  18.977  0.00  0.00    +0.000 A 
ATOM      7  O   UNL     1       2.385   5.513  18.885  0.00  0.00    +0.000 OA
ATOM      8  C   UNL     1       3.558   4.459  19.967  0.00  0.00    +0.000 C 
ATOM      9  C   UNL     1       4.552   2.833  19.487  0.00  0.00    +0.000 C 
ATOM     10  F   UNL     1       4.756   2.062  20.606  0.00  0.00    +0.000 F 
ATOM     11  C   UNL     1       3.974   1.655  18.120  0.00  0.00    +0.000 C 
ATOM     12  C   UNL     1       2.723   2.012  17.402  0.00  0.00    +0.000 C 
ATOM     13  C   UNL     1       1.655   3.433  18.148  0.00  0.00    +0.000 C 
ATOM     14  C   UNL     1       2.454   2.778  19.045  0.00  0.00    +0.000 C 
ATOM     15  C   UNL     1       3.685   3.896  17.760  0.00  0.00    +0.000 C 
ATOM     16  N   UNL     1       2.345   2.505  20.587  0.00  0.00    +0.000 NA
ATOM     17  C   UNL     1       1.210   3.127  21.244  0.00  0.00    +0.000 C 
ATOM     18  C   UNL     1       1.330   4.582  20.890  0.00  0.00    +0.000 C 
ATOM     19  C   UNL     1       2.129   4.568  19.545  0.00  0.00    +0.000 C 
ATOM     20  H   UNL     1       2.355   1.493  20.747  0.00  0.00    +0.000 HD
ENDROOT
BRANCH   1  22
ATOM     21  C   UNL     1       1.402   9.374  18.334  0.00  0.00    +0.000 C 
ATOM     22  O   UNL     1       2.317   8.825  17.391  0.00  0.00    +0.000 OA
ENDBRANCH   1  22
BRANCH  13  23
ATOM     23  O   UNL     1       0.300   3.035  18.138  0.00  0.00    +0.000 OA
ATOM     24  H   UNL     1      -0.076   3.351  18.981  0.00  0.00    +0.000 HD
ENDBRANCH  13  23
TORSDOF 2
ENDMDL
MODEL 2
REMARK VINA RESULT:      -8.0      3.318      5.439
REMARK  Name = 
REMARK  3 active torsions:
REMARK  status: ('A' for Active; 'I' for Inactive)
REMARK    1  A    between atoms: C_1  and  O_2
REMARK    2  A    between atoms: O_2  and  C_3
REMARK    3  A    between atoms: C_15  and  O_16
REMARK                            x       y       z     vdW  Elec       q    Type
REMARK                         _______ _______ _______ _____ _____    ______ ____
ROOT
ATOM      1  C   UNL     1       3.414   3.252  19.775  0.00  0.00    +0.000 A 
ATOM      2  C   UNL     1       2.689   2.637  18.722  0.00  0.00    +0.000 A 
ATOM      3  C   UNL     1       2.699   3.150  17.423  0.00  0.00    +0.000 A 
ATOM      4  C   UNL     1       3.540   4.226  17.205  0.00  0.00    +0.000 A 
ATOM      5  C   UNL     1       4.020   5.025  18.338  0.00  0.00    +0.000 A 
ATOM      6  C   UNL     1       4.034   4.509  19.605  0.00  0.00    +0.000 A 
ATOM      7  O   UNL     1       5.174   4.612  18.602  0.00  0.00    +0.000 OA
ATOM      8  C   UNL     1       4.834   6.061  17.402  0.00  0.00    +0.000 C 
ATOM      9  C   UNL     1       4.877   6.073  15.437  0.00  0.00    +0.000 C 
ATOM     10  F   UNL     1       5.191   7.331  14.983  0.00  0.00    +0.000 F 
ATOM     11  C   UNL     1       5.935   4.861  14.437  0.00  0.00    +0.000 C 
ATOM     12  C   UNL     1       6.743   3.875  15.201  0.00  0.00    +0.000 C 
ATOM     13  C   UNL     1       6.889   4.145  17.104  0.00  0.00    +0.000 C 
ATOM     14  C   UNL     1       6.631   5.276  16.378  0.00  0.00    +0.000 C 
ATOM     15  C   UNL     1       4.923   4.054  16.324  0.00  0.00    +0.000 C 
ATOM     16  N   UNL     1       6.954   6.796  16.599  0.00  0.00    +0.000 NA
ATOM     17  C   UNL     1       7.591   7.113  17.864  0.00  0.00    +0.000 C 
ATOM     18  C   UNL     1       6.671   6.528  18.898  0.00  0.00    +0.000 C 
ATOM     19  C   UNL     1       5.943   5.375  18.132  0.00  0.00    +0.000 C 
ATOM     20  H   UNL     1       7.512   7.136  15.810  0.00  0.00    +0.000 HD
ENDROOT
BRANCH   1  22
ATOM     21  C   UNL     1       2.072   2.582  21.633  0.00  0.00    +0.000 C 
ATOM     22  O   UNL     1       3.328   2.555  20.961  0.00  0.00    +0.000 OA
ENDBRANCH   1  22
BRANCH  13  23
ATOM     23  O   UNL     1       8.236   3.963  17.487  0.00  0.00    +0.000 OA
ATOM     24  H   UNL     1       8.631   4.854  17.504  0.00  0.00    +0.000 HD
ENDBRANCH  13  23
TORSDOF 2
ENDMDL
MODEL 3
REMARK VINA RESULT:      -8.0      2.887      5.319
REMARK  Name = 
REMARK  3 active torsions:
REMARK  status: ('A' for Active; 'I' for Inactive)
REMARK    1  A    between atoms: C_1  and  O_2
REMARK    2  A    between atoms: O_2  and  C_3
REMARK    3  A    between atoms: C_15  and  O_16
REMARK                            x       y       z     vdW  Elec       q    Type
REMARK                         _______ _______ _______ _____ _____    ______ ____
ROOT
ATOM      1  C   UNL     1       2.238   3.825  18.271  0.00  0.00    +0.000 A 
ATOM      2  C   UNL     1       2.522   4.358  19.555  0.00  0.00    +0.000 A 
ATOM      3  C   UNL     1       3.828   4.639  19.963  0.00  0.00    +0.000 A 
ATOM      4  C   UNL     1       4.810   4.467  19.004  0.00  0.00    +0.000 A 
ATOM      5  C   UNL     1       4.548   3.636  17.824  0.00  0.00    +0.000 A 
ATOM      6  C   UNL     1       3.269   3.385  17.412  0.00  0.00    +0.000 A 
ATOM      7  O   UNL     1       4.254   4.422  16.892  0.00  0.00    +0.000 OA
ATOM      8  C   UNL     1       6.039   3.823  17.227  0.00  0.00    +0.000 C 
ATOM      9  C   UNL     1       7.524   4.788  18.079  0.00  0.00    +0.000 C 
ATOM     10  F   UNL     1       8.724   4.317  17.601  0.00  0.00    +0.000 F 
ATOM     11  C   UNL     1       7.647   6.678  18.071  0.00  0.00    +0.000 C 
ATOM     12  C   UNL     1       6.556   7.425  17.391  0.00  0.00    +0.000 C 
ATOM     13  C   UNL     1       5.326   6.401  16.316  0.00  0.00    +0.000 C 
ATOM     14  C   UNL     1       6.563   5.838  16.476  0.00  0.00    +0.000 C 
ATOM     15  C   UNL     1       5.563   5.767  18.322  0.00  0.00    +0.000 C 
ATOM     16  N   UNL     1       7.427   4.867  15.595  0.00  0.00    +0.000 NA
ATOM     17  C   UNL     1       6.778   4.387  14.388  0.00  0.00    +0.000 C 
ATOM     18  C   UNL     1       5.490   3.785  14.875  0.00  0.00    +0.000 C 
ATOM     19  C   UNL     1       5.213   4.546  16.214  0.00  0.00    +0.000 C 
ATOM     20  H   UNL     1       8.320   5.320  15.378  0.00  0.00    +0.000 HD
ENDROOT
BRANCH   1  22
ATOM     21  C   UNL     1       0.229   2.612  18.712  0.00  0.00    +0.000 C 
ATOM     22  O   UNL     1       0.886   3.682  18.039  0.00  0.00    +0.000 OA
ENDBRANCH   1  22
BRANCH  13  23
ATOM     23  O   UNL     1       5.121   7.078  15.093  0.00  0.00    +0.000 OA
ATOM     24  H   UNL     1       4.436   7.750  15.273  0.00  0.00    +0.000 HD
ENDBRANCH  13  23
TORSDOF 2
ENDMDL
MODEL 4
REMARK VINA RESULT:      -7.9      2.025      3.550
REMARK  Name = 
REMARK  3 active torsions:
REMARK  status: ('A' for Active; 'I' for Inactive)
REMARK    1  A    between atoms: C_1  and  O_2
REMARK    2  A    between atoms: O_2  and  C_3
REMARK    3  A    between atoms: C_15  and  O_16
REMARK                            x       y       z     vdW  Elec       q    Type
REMARK                         _______ _______ _______ _____ _____    ______ ____
ROOT
ATOM      1  C   UNL     1       4.870   6.632  17.091  0.00  0.00    +0.000 A 
ATOM      2  C   UNL     1       3.960   7.538  17.694  0.00  0.00    +0.000 A 
ATOM      3  C   UNL     1       2.723   7.121  18.188  0.00  0.00    +0.000 A 
ATOM      4  C   UNL     1       2.486   5.758  18.149  0.00  0.00    +0.000 A 
ATOM      5  C   UNL     1       3.273   4.901  17.257  0.00  0.00    +0.000 A 
ATOM      6  C   UNL     1       4.497   5.302  16.797  0.00  0.00    +0.000 A 
ATOM      7  O   UNL     1       4.170   4.380  17.962  0.00  0.00    +0.000 OA
ATOM      8  C   UNL     1       2.470   3.557  17.661  0.00  0.00    +0.000 C 
ATOM      9  C   UNL     1       0.924   3.442  18.868  0.00  0.00    +0.000 C 
ATOM     10  F   UNL     1       0.188   2.318  18.581  0.00  0.00    +0.000 F 
ATOM     11  C   UNL     1       1.100   3.501  20.754  0.00  0.00    +0.000 C 
ATOM     12  C   UNL     1       2.473   3.648  21.302  0.00  0.00    +0.000 C 
ATOM     13  C   UNL     1       3.940   3.430  20.070  0.00  0.00    +0.000 C 
ATOM     14  C   UNL     1       2.784   2.790  19.712  0.00  0.00    +0.000 C 
ATOM     15  C   UNL     1       2.476   4.861  19.532  0.00  0.00    +0.000 C 
ATOM     16  N   UNL     1       2.481   1.503  18.867  0.00  0.00    +0.000 NA
ATOM     17  C   UNL     1       3.642   0.876  18.261  0.00  0.00    +0.000 C 
ATOM     18  C   UNL     1       4.291   1.982  17.477  0.00  0.00    +0.000 C 
ATOM     19  C   UNL     1       3.828   3.279  18.219  0.00  0.00    +0.000 C 
ATOM     20  H   UNL     1       1.965   0.836  19.449  0.00  0.00    +0.000 HD
ENDROOT
BRANCH   1  22
ATOM     21  C   UNL     1       7.207   6.893  17.505  0.00  0.00    +0.000 C 
ATOM     22  O   UNL     1       6.059   7.229  16.731  0.00  0.00    +0.000 OA
ENDBRANCH   1  22
BRANCH  13  23
ATOM     23  O   UNL     1       4.922   2.614  20.674  0.00  0.00    +0.000 OA
ATOM     24  H   UNL     1       4.462   2.117  21.376  0.00  0.00    +0.000 HD
ENDBRANCH  13  23
TORSDOF 2
ENDMDL
MODEL 5
REMARK VINA RESULT:      -7.7      2.389      3.517
REMARK  Name = 
REMARK  3 active torsions:
REMARK  status: ('A' for Active; 'I' for Inactive)
REMARK    1  A    between atoms: C_1  and  O_2
REMARK    2  A    between atoms: O_2  and  C_3
REMARK    3  A    between atoms: C_15  and  O_16
REMARK                            x       y       z     vdW  Elec       q    Type
REMARK                         _______ _______ _______ _____ _____    ______ ____
ROOT
ATOM      1  C   UNL     1       7.087   6.234  18.030  0.00  0.00    +0.000 A 
ATOM      2  C   UNL     1       6.507   6.820  16.875  0.00  0.00    +0.000 A 
ATOM      3  C   UNL     1       5.406   6.249  16.233  0.00  0.00    +0.000 A 
ATOM      4  C   UNL     1       4.853   5.143  16.852  0.00  0.00    +0.000 A 
ATOM      5  C   UNL     1       5.633   4.384  17.835  0.00  0.00    +0.000 A 
ATOM      6  C   UNL     1       6.695   4.955  18.481  0.00  0.00    +0.000 A 
ATOM      7  O   UNL     1       5.264   4.778  18.967  0.00  0.00    +0.000 OA
ATOM      8  C   UNL     1       4.471   3.285  18.071  0.00  0.00    +0.000 C 
ATOM      9  C   UNL     1       2.752   3.185  17.125  0.00  0.00    +0.000 C 
ATOM     10  F   UNL     1       2.267   1.900  17.169  0.00  0.00    +0.000 F 
ATOM     11  C   UNL     1       1.295   4.323  17.540  0.00  0.00    +0.000 C 
ATOM     12  C   UNL     1       1.501   5.321  18.622  0.00  0.00    +0.000 C 
ATOM     13  C   UNL     1       3.087   5.133  19.701  0.00  0.00    +0.000 C 
ATOM     14  C   UNL     1       2.647   3.977  19.114  0.00  0.00    +0.000 C 
ATOM     15  C   UNL     1       3.390   5.240  17.608  0.00  0.00    +0.000 C 
ATOM     16  N   UNL     1       2.756   2.461  19.504  0.00  0.00    +0.000 NA
ATOM     17  C   UNL     1       3.547   2.184  20.690  0.00  0.00    +0.000 C 
ATOM     18  C   UNL     1       4.870   2.839  20.411  0.00  0.00    +0.000 C 
ATOM     19  C   UNL     1       4.512   3.974  19.396  0.00  0.00    +0.000 C 
ATOM     20  H   UNL     1       1.812   2.071  19.592  0.00  0.00    +0.000 HD
ENDROOT
BRANCH   1  22
ATOM     21  C   UNL     1       8.212   8.338  18.113  0.00  0.00    +0.000 C 
ATOM     22  O   UNL     1       8.119   6.986  18.549  0.00  0.00    +0.000 OA
ENDBRANCH   1  22
BRANCH  13  23
ATOM     23  O   UNL     1       2.735   5.297  21.059  0.00  0.00    +0.000 OA
ATOM     24  H   UNL     1       3.442   5.840  21.454  0.00  0.00    +0.000 HD
ENDBRANCH  13  23
TORSDOF 2
ENDMDL
MODEL 6
REMARK VINA RESULT:      -7.6      1.572      1.971
REMARK  Name = 
REMARK  3 active torsions:
REMARK  status: ('A' for Active; 'I' for Inactive)
REMARK    1  A    between atoms: C_1  and  O_2
REMARK    2  A    between atoms: O_2  and  C_3
REMARK    3  A    between atoms: C_15  and  O_16
REMARK                            x       y       z     vdW  Elec       q    Type
REMARK                         _______ _______ _______ _____ _____    ______ ____
ROOT
ATOM      1  C   UNL     1       1.324   8.359  19.702  0.00  0.00    +0.000 A 
ATOM      2  C   UNL     1       1.807   8.728  18.420  0.00  0.00    +0.000 A 
ATOM      3  C   UNL     1       2.803   7.998  17.770  0.00  0.00    +0.000 A 
ATOM      4  C   UNL     1       3.211   6.837  18.403  0.00  0.00    +0.000 A 
ATOM      5  C   UNL     1       2.943   6.646  19.833  0.00  0.00    +0.000 A 
ATOM      6  C   UNL     1       1.949   7.345  20.460  0.00  0.00    +0.000 A 
ATOM      7  O   UNL     1       1.920   5.926  19.912  0.00  0.00    +0.000 OA
ATOM      8  C   UNL     1       3.697   5.217  19.895  0.00  0.00    +0.000 C 
ATOM      9  C   UNL     1       4.663   4.344  18.423  0.00  0.00    +0.000 C 
ATOM     10  F   UNL     1       5.591   3.466  18.928  0.00  0.00    +0.000 F 
ATOM     11  C   UNL     1       3.771   3.434  17.020  0.00  0.00    +0.000 C 
ATOM     12  C   UNL     1       2.286   3.409  17.065  0.00  0.00    +0.000 C 
ATOM     13  C   UNL     1       1.445   4.004  18.695  0.00  0.00    +0.000 C 
ATOM     14  C   UNL     1       2.722   3.534  18.841  0.00  0.00    +0.000 C 
ATOM     15  C   UNL     1       2.806   5.357  17.800  0.00  0.00    +0.000 C 
ATOM     16  N   UNL     1       3.489   2.848  20.026  0.00  0.00    +0.000 NA
ATOM     17  C   UNL     1       2.741   2.742  21.266  0.00  0.00    +0.000 C 
ATOM     18  C   UNL     1       2.306   4.151  21.556  0.00  0.00    +0.000 C 
ATOM     19  C   UNL     1       2.277   4.824  20.143  0.00  0.00    +0.000 C 
ATOM     20  H   UNL     1       3.824   1.930  19.719  0.00  0.00    +0.000 HD
ENDROOT
BRANCH   1  22
ATOM     21  C   UNL     1      -0.136   8.988  21.485  0.00  0.00    +0.000 C 
ATOM     22  O   UNL     1       0.297   9.168  20.140  0.00  0.00    +0.000 OA
ENDBRANCH   1  22
BRANCH  13  23
ATOM     23  O   UNL     1       0.420   3.093  19.035  0.00  0.00    +0.000 OA
ATOM     24  H   UNL     1       0.336   2.490  18.273  0.00  0.00    +0.000 HD
ENDBRANCH  13  23
TORSDOF 2
ENDMDL
MODEL 7
REMARK VINA RESULT:      -7.2      2.070      3.665
REMARK  Name = 
REMARK  3 active torsions:
REMARK  status: ('A' for Active; 'I' for Inactive)
REMARK    1  A    between atoms: C_1  and  O_2
REMARK    2  A    between atoms: O_2  and  C_3
REMARK    3  A    between atoms: C_15  and  O_16
REMARK                            x       y       z     vdW  Elec       q    Type
REMARK                         _______ _______ _______ _____ _____    ______ ____
ROOT
ATOM      1  C   UNL     1       1.975   7.536  19.888  0.00  0.00    +0.000 A 
ATOM      2  C   UNL     1       1.252   6.730  20.806  0.00  0.00    +0.000 A 
ATOM      3  C   UNL     1       1.099   5.355  20.615  0.00  0.00    +0.000 A 
ATOM      4  C   UNL     1       1.781   4.814  19.541  0.00  0.00    +0.000 A 
ATOM      5  C   UNL     1       2.244   5.682  18.452  0.00  0.00    +0.000 A 
ATOM      6  C   UNL     1       2.419   7.024  18.650  0.00  0.00    +0.000 A 
ATOM      7  O   UNL     1       3.457   5.912  18.670  0.00  0.00    +0.000 OA
ATOM      8  C   UNL     1       2.849   4.457  17.587  0.00  0.00    +0.000 C 
ATOM      9  C   UNL     1       2.739   2.547  18.035  0.00  0.00    +0.000 C 
ATOM     10  F   UNL     1       2.858   1.791  16.894  0.00  0.00    +0.000 F 
ATOM     11  C   UNL     1       3.858   1.741  19.334  0.00  0.00    +0.000 C 
ATOM     12  C   UNL     1       4.839   2.621  20.023  0.00  0.00    +0.000 C 
ATOM     13  C   UNL     1       5.096   4.388  19.298  0.00  0.00    +0.000 C 
ATOM     14  C   UNL     1       4.645   3.456  18.403  0.00  0.00    +0.000 C 
ATOM     15  C   UNL     1       3.102   3.856  19.773  0.00  0.00    +0.000 C 
ATOM     16  N   UNL     1       4.793   3.295  16.849  0.00  0.00    +0.000 NA
ATOM     17  C   UNL     1       5.482   4.383  16.179  0.00  0.00    +0.000 C 
ATOM     18  C   UNL     1       4.724   5.612  16.594  0.00  0.00    +0.000 C 
ATOM     19  C   UNL     1       4.087   5.204  17.964  0.00  0.00    +0.000 C 
ATOM     20  H   UNL     1       5.242   2.396  16.649  0.00  0.00    +0.000 HD
ENDROOT
BRANCH   1  22
ATOM     21  C   UNL     1       0.843   9.531  20.553  0.00  0.00    +0.000 C 
ATOM     22  O   UNL     1       2.067   8.852  20.291  0.00  0.00    +0.000 OA
ENDBRANCH   1  22
BRANCH  13  23
ATOM     23  O   UNL     1       6.481   4.660  19.246  0.00  0.00    +0.000 OA
ATOM     24  H   UNL     1       6.631   5.118  18.398  0.00  0.00    +0.000 HD
ENDBRANCH  13  23
TORSDOF 2
ENDMDL
MODEL 8
REMARK VINA RESULT:      -7.1      2.469      3.788
REMARK  Name = 
REMARK  3 active torsions:
REMARK  status: ('A' for Active; 'I' for Inactive)
REMARK    1  A    between atoms: C_1  and  O_2
REMARK    2  A    between atoms: O_2  and  C_3
REMARK    3  A    between atoms: C_15  and  O_16
REMARK                            x       y       z     vdW  Elec       q    Type
REMARK                         _______ _______ _______ _____ _____    ______ ____
ROOT
ATOM      1  C   UNL     1       6.615   4.910  16.958  0.00  0.00    +0.000 A 
ATOM      2  C   UNL     1       7.283   5.172  18.183  0.00  0.00    +0.000 A 
ATOM      3  C   UNL     1       6.583   5.423  19.364  0.00  0.00    +0.000 A 
ATOM      4  C   UNL     1       5.207   5.295  19.290  0.00  0.00    +0.000 A 
ATOM      5  C   UNL     1       4.534   5.339  17.988  0.00  0.00    +0.000 A 
ATOM      6  C   UNL     1       5.217   5.066  16.835  0.00  0.00    +0.000 A 
ATOM      7  O   UNL     1       4.322   4.149  17.654  0.00  0.00    +0.000 OA
ATOM      8  C   UNL     1       3.055   5.203  18.625  0.00  0.00    +0.000 C 
ATOM      9  C   UNL     1       2.611   5.145  20.539  0.00  0.00    +0.000 C 
ATOM     10  F   UNL     1       1.313   5.556  20.731  0.00  0.00    +0.000 F 
ATOM     11  C   UNL     1       2.842   3.586  21.590  0.00  0.00    +0.000 C 
ATOM     12  C   UNL     1       3.389   2.384  20.908  0.00  0.00    +0.000 C 
ATOM     13  C   UNL     1       3.489   2.434  18.983  0.00  0.00    +0.000 C 
ATOM     14  C   UNL     1       2.541   3.252  19.535  0.00  0.00    +0.000 C 
ATOM     15  C   UNL     1       4.436   4.027  20.008  0.00  0.00    +0.000 C 
ATOM     16  N   UNL     1       1.165   3.807  19.021  0.00  0.00    +0.000 NA
ATOM     17  C   UNL     1       0.833   3.460  17.651  0.00  0.00    +0.000 C 
ATOM     18  C   UNL     1       2.017   3.932  16.854  0.00  0.00    +0.000 C 
ATOM     19  C   UNL     1       3.189   3.910  17.889  0.00  0.00    +0.000 C 
ATOM     20  H   UNL     1       0.425   3.511  19.665  0.00  0.00    +0.000 HD
ENDROOT
BRANCH   1  22
ATOM     21  C   UNL     1       6.957   4.690  14.605  0.00  0.00    +0.000 C 
ATOM     22  O   UNL     1       7.483   4.622  15.927  0.00  0.00    +0.000 OA
ENDBRANCH   1  22
BRANCH  13  23
ATOM     23  O   UNL     1       3.010   1.208  18.472  0.00  0.00    +0.000 OA
ATOM     24  H   UNL     1       3.453   0.511  18.991  0.00  0.00    +0.000 HD
ENDBRANCH  13  23
TORSDOF 2
ENDMDL
MODEL 9
REMARK VINA RESULT:      -6.9      2.191      3.241
REMARK  Name = 
REMARK  3 active torsions:
REMARK  status: ('A' for Active; 'I' for Inactive)
REMARK    1  A    between atoms: C_1  and  O_2
REMARK    2  A    between atoms: O_2  and  C_3
REMARK    3  A    between atoms: C_15  and  O_16
REMARK                            x       y       z     vdW  Elec       q    Type
REMARK                         _______ _______ _______ _____ _____    ______ ____
ROOT
ATOM      1  C   UNL     1       5.879   5.747  16.329  0.00  0.00    +0.000 A 
ATOM      2  C   UNL     1       6.940   5.601  17.260  0.00  0.00    +0.000 A 
ATOM      3  C   UNL     1       6.704   5.327  18.609  0.00  0.00    +0.000 A 
ATOM      4  C   UNL     1       5.384   5.101  18.957  0.00  0.00    +0.000 A 
ATOM      5  C   UNL     1       4.303   5.559  18.077  0.00  0.00    +0.000 A 
ATOM      6  C   UNL     1       4.533   5.800  16.751  0.00  0.00    +0.000 A 
ATOM      7  O   UNL     1       3.942   4.562  17.408  0.00  0.00    +0.000 OA
ATOM      8  C   UNL     1       3.133   5.051  19.070  0.00  0.00    +0.000 C 
ATOM      9  C   UNL     1       3.378   4.246  20.846  0.00  0.00    +0.000 C 
ATOM     10  F   UNL     1       2.245   4.428  21.603  0.00  0.00    +0.000 F 
ATOM     11  C   UNL     1       3.897   2.440  21.080  0.00  0.00    +0.000 C 
ATOM     12  C   UNL     1       4.126   1.635  19.851  0.00  0.00    +0.000 C 
ATOM     13  C   UNL     1       3.554   2.404  18.178  0.00  0.00    +0.000 C 
ATOM     14  C   UNL     1       2.889   2.863  19.283  0.00  0.00    +0.000 C 
ATOM     15  C   UNL     1       4.860   3.588  19.351  0.00  0.00    +0.000 C 
ATOM     16  N   UNL     1       1.444   3.430  19.512  0.00  0.00    +0.000 NA
ATOM     17  C   UNL     1       0.644   3.585  18.311  0.00  0.00    +0.000 C 
ATOM     18  C   UNL     1       1.495   4.432  17.407  0.00  0.00    +0.000 C 
ATOM     19  C   UNL     1       2.952   4.143  17.898  0.00  0.00    +0.000 C 
ATOM     20  H   UNL     1       0.962   2.846  20.203  0.00  0.00    +0.000 HD
ENDROOT
BRANCH   1  22
ATOM     21  C   UNL     1       6.946   4.841  14.395  0.00  0.00    +0.000 C 
ATOM     22  O   UNL     1       6.324   5.948  15.040  0.00  0.00    +0.000 OA
ENDBRANCH   1  22
BRANCH  13  23
ATOM     23  O   UNL     1       2.879   1.413  17.431  0.00  0.00    +0.000 OA
ATOM     24  H   UNL     1       3.562   0.980  16.886  0.00  0.00    +0.000 HD
ENDBRANCH  13  23
TORSDOF 2
ENDMDL
