MODEL 1
REMARK VINA RESULT:      -8.1      0.000      0.000
REMARK  Name = 
REMARK  8 active torsions:
REMARK  status: ('A' for Active; 'I' for Inactive)
REMARK    1  A    between atoms: C_1  and  O_2
REMARK    2  A    between atoms: O_2  and  C_3
REMARK    3  A    between atoms: C_7  and  N_8
REMARK    4  A    between atoms: C_9  and  C_11
REMARK    5  A    between atoms: C_11  and  N_12
REMARK    6  A    between atoms: N_12  and  C_13
REMARK    7  A    between atoms: C_14  and  C_16
REMARK    8  A    between atoms: C_28  and  C_29
REMARK                            x       y       z     vdW  Elec       q    Type
REMARK                         _______ _______ _______ _____ _____    ______ ____
ROOT
ATOM      1  N   UNL     1       1.296   9.010  19.697  0.00  0.00    +0.000 N 
ATOM      2  C   UNL     1       1.378   8.219  20.927  0.00  0.00    +0.000 C 
ATOM      3  C   UNL     1       1.863   8.613  18.466  0.00  0.00    +0.000 C 
ATOM      4  O   UNL     1       1.601   9.215  17.421  0.00  0.00    +0.000 OA
ENDROOT
BRANCH   3   5
ATOM      5  C   UNL     1       2.768   7.483  18.483  0.00  0.00    +0.000 A 
ATOM      6  O   UNL     1       3.898   7.577  17.697  0.00  0.00    +0.000 OA
ATOM      7  C   UNL     1       4.507   6.367  17.787  0.00  0.00    +0.000 A 
ATOM      8  C   UNL     1       3.986   5.665  18.862  0.00  0.00    +0.000 A 
ATOM      9  C   UNL     1       4.641   4.473  19.248  0.00  0.00    +0.000 A 
ATOM     10  C   UNL     1       5.732   4.018  18.476  0.00  0.00    +0.000 A 
ATOM     11  C   UNL     1       5.986   4.584  17.208  0.00  0.00    +0.000 A 
ATOM     12  C   UNL     1       6.772   3.988  16.214  0.00  0.00    +0.000 A 
ATOM     13  C   UNL     1       6.655   4.408  14.876  0.00  0.00    +0.000 A 
ATOM     14  C   UNL     1       5.774   5.432  14.519  0.00  0.00    +0.000 A 
ATOM     15  C   UNL     1       5.135   6.154  15.509  0.00  0.00    +0.000 A 
ATOM     16  C   UNL     1       5.294   5.746  16.837  0.00  0.00    +0.000 A 
ATOM     17  C   UNL     1       2.627   6.105  18.692  0.00  0.00    +0.000 A 
ATOM     18  C   UNL     1       1.648   5.283  17.884  0.00  0.00    +0.000 C 
ENDBRANCH   3   5
BRANCH   1  19
ATOM     19  C   UNL     1       0.252  10.031  19.663  0.00  0.00    +0.000 C 
BRANCH  19  21
ATOM     20  N   UNL     1       0.822  12.228  18.653  0.00  0.00    +0.000 N 
ATOM     21  C   UNL     1       0.704  11.498  19.831  0.00  0.00    +0.000 C 
ATOM     22  O   UNL     1       0.911  11.913  20.958  0.00  0.00    +0.000 OA
ATOM     23  H   UNL     1       0.463  11.782  17.816  0.00  0.00    +0.000 HD
BRANCH  20  28
ATOM     24  C   UNL     1       3.087  15.103  17.978  0.00  0.00    +0.000 A 
ATOM     25  C   UNL     1       2.264  16.183  18.307  0.00  0.00    +0.000 A 
ATOM     26  C   UNL     1       0.974  15.965  18.773  0.00  0.00    +0.000 A 
ATOM     27  C   UNL     1       0.494  14.663  18.901  0.00  0.00    +0.000 A 
ATOM     28  C   UNL     1       1.286  13.562  18.554  0.00  0.00    +0.000 A 
ATOM     29  C   UNL     1       2.598  13.794  18.105  0.00  0.00    +0.000 A 
BRANCH  24  31
ATOM     30  C   UNL     1       5.434  14.667  17.927  0.00  0.00    +0.000 C 
ATOM     31  O   UNL     1       4.333  15.480  17.556  0.00  0.00    +0.000 OA
ENDBRANCH  24  31
ENDBRANCH  20  28
ENDBRANCH  19  21
ENDBRANCH   1  19
TORSDOF 5
ENDMDL
MODEL 2
REMARK VINA RESULT:      -8.0      0.963      1.750
REMARK  Name = 
REMARK  8 active torsions:
REMARK  status: ('A' for Active; 'I' for Inactive)
REMARK    1  A    between atoms: C_1  and  O_2
REMARK    2  A    between atoms: O_2  and  C_3
REMARK    3  A    between atoms: C_7  and  N_8
REMARK    4  A    between atoms: C_9  and  C_11
REMARK    5  A    between atoms: C_11  and  N_12
REMARK    6  A    between atoms: N_12  and  C_13
REMARK    7  A    between atoms: C_14  and  C_16
REMARK    8  A    between atoms: C_28  and  C_29
REMARK                            x       y       z     vdW  Elec       q    Type
REMARK                         _______ _______ _______ _____ _____    ______ ____
ROOT
ATOM      1  N   UNL     1       1.259   9.042  19.635  0.00  0.00    +0.000 N 
ATOM      2  C   UNL     1       1.339   8.267  20.875  0.00  0.00    +0.000 C 
ATOM      3  C   UNL     1       1.845   8.638  18.416  0.00  0.00    +0.000 C 
ATOM      4  O   UNL     1       1.587   9.224  17.360  0.00  0.00    +0.000 OA
ENDROOT
BRANCH   3   5
ATOM      5  C   UNL     1       2.767   7.522  18.457  0.00  0.00    +0.000 A 
ATOM      6  O   UNL     1       3.894   7.614  17.665  0.00  0.00    +0.000 OA
ATOM      7  C   UNL     1       4.520   6.414  17.783  0.00  0.00    +0.000 A 
ATOM      8  C   UNL     1       4.012   5.731  18.875  0.00  0.00    +0.000 A 
ATOM      9  C   UNL     1       4.685   4.559  19.288  0.00  0.00    +0.000 A 
ATOM     10  C   UNL     1       5.781   4.101  18.524  0.00  0.00    +0.000 A 
ATOM     11  C   UNL     1       6.023   4.640  17.242  0.00  0.00    +0.000 A 
ATOM     12  C   UNL     1       6.815   4.031  16.260  0.00  0.00    +0.000 A 
ATOM     13  C   UNL     1       6.688   4.417  14.913  0.00  0.00    +0.000 A 
ATOM     14  C   UNL     1       5.792   5.420  14.534  0.00  0.00    +0.000 A 
ATOM     15  C   UNL     1       5.145   6.157  15.508  0.00  0.00    +0.000 A 
ATOM     16  C   UNL     1       5.313   5.782  16.846  0.00  0.00    +0.000 A 
ATOM     17  C   UNL     1       2.646   6.147  18.700  0.00  0.00    +0.000 A 
ATOM     18  C   UNL     1       1.677   5.292  17.914  0.00  0.00    +0.000 C 
ENDBRANCH   3   5
BRANCH   1  19
ATOM     19  C   UNL     1       0.201  10.047  19.576  0.00  0.00    +0.000 C 
BRANCH  19  21
ATOM     20  N   UNL     1       0.895  12.212  18.575  0.00  0.00    +0.000 N 
ATOM     21  C   UNL     1       0.626  11.521  19.751  0.00  0.00    +0.000 C 
ATOM     22  O   UNL     1       0.686  11.975  20.881  0.00  0.00    +0.000 OA
ATOM     23  H   UNL     1       0.647  11.737  17.713  0.00  0.00    +0.000 HD
BRANCH  20  28
ATOM     24  C   UNL     1       0.922  15.930  18.730  0.00  0.00    +0.000 A 
ATOM     25  C   UNL     1       2.242  16.210  18.370  0.00  0.00    +0.000 A 
ATOM     26  C   UNL     1       3.116  15.178  18.053  0.00  0.00    +0.000 A 
ATOM     27  C   UNL     1       2.677  13.856  18.107  0.00  0.00    +0.000 A 
ATOM     28  C   UNL     1       1.367  13.544  18.491  0.00  0.00    +0.000 A 
ATOM     29  C   UNL     1       0.485  14.599  18.787  0.00  0.00    +0.000 A 
BRANCH  24  31
ATOM     30  C   UNL     1      -0.809  17.428  18.049  0.00  0.00    +0.000 C 
ATOM     31  O   UNL     1       0.182  17.051  18.991  0.00  0.00    +0.000 OA
ENDBRANCH  24  31
ENDBRANCH  20  28
ENDBRANCH  19  21
ENDBRANCH   1  19
TORSDOF 5
ENDMDL
MODEL 3
REMARK VINA RESULT:      -7.7      3.025      4.345
REMARK  Name = 
REMARK  8 active torsions:
REMARK  status: ('A' for Active; 'I' for Inactive)
REMARK    1  A    between atoms: C_1  and  O_2
REMARK    2  A    between atoms: O_2  and  C_3
REMARK    3  A    between atoms: C_7  and  N_8
REMARK    4  A    between atoms: C_9  and  C_11
REMARK    5  A    between atoms: C_11  and  N_12
REMARK    6  A    between atoms: N_12  and  C_13
REMARK    7  A    between atoms: C_14  and  C_16
REMARK    8  A    between atoms: C_28  and  C_29
REMARK                            x       y       z     vdW  Elec       q    Type
REMARK                         _______ _______ _______ _____ _____    ______ ____
ROOT
ATOM      1  N   UNL     1       1.618   8.614  19.119  0.00  0.00    +0.000 N 
ATOM      2  C   UNL     1       2.143   8.750  17.759  0.00  0.00    +0.000 C 
ATOM      3  C   UNL     1       1.918   7.532  19.974  0.00  0.00    +0.000 C 
ATOM      4  O   UNL     1       1.612   7.560  21.170  0.00  0.00    +0.000 OA
ENDROOT
BRANCH   3   5
ATOM      5  C   UNL     1       2.588   6.387  19.391  0.00  0.00    +0.000 A 
ATOM      6  O   UNL     1       3.797   6.621  18.770  0.00  0.00    +0.000 OA
ATOM      7  C   UNL     1       4.154   5.437  18.208  0.00  0.00    +0.000 A 
ATOM      8  C   UNL     1       3.392   4.418  18.754  0.00  0.00    +0.000 A 
ATOM      9  C   UNL     1       3.763   3.087  18.453  0.00  0.00    +0.000 A 
ATOM     10  C   UNL     1       4.830   2.867  17.555  0.00  0.00    +0.000 A 
ATOM     11  C   UNL     1       5.327   3.932  16.775  0.00  0.00    +0.000 A 
ATOM     12  C   UNL     1       6.096   3.777  15.613  0.00  0.00    +0.000 A 
ATOM     13  C   UNL     1       6.212   4.838  14.697  0.00  0.00    +0.000 A 
ATOM     14  C   UNL     1       5.585   6.064  14.935  0.00  0.00    +0.000 A 
ATOM     15  C   UNL     1       4.986   6.295  16.158  0.00  0.00    +0.000 A 
ATOM     16  C   UNL     1       4.912   5.238  17.072  0.00  0.00    +0.000 A 
ATOM     17  C   UNL     1       2.167   5.168  18.845  0.00  0.00    +0.000 A 
ATOM     18  C   UNL     1       1.149   5.116  17.727  0.00  0.00    +0.000 C 
ENDBRANCH   3   5
BRANCH   1  19
ATOM     19  C   UNL     1       1.105   9.837  19.731  0.00  0.00    +0.000 C 
BRANCH  19  21
ATOM     20  N   UNL     1      -1.093   9.908  18.578  0.00  0.00    +0.000 N 
ATOM     21  C   UNL     1       0.043  10.625  18.935  0.00  0.00    +0.000 C 
ATOM     22  O   UNL     1       0.260  11.799  18.687  0.00  0.00    +0.000 OA
ATOM     23  H   UNL     1      -1.188   8.988  18.994  0.00  0.00    +0.000 HD
BRANCH  20  28
ATOM     24  C   UNL     1      -3.144  10.717  15.578  0.00  0.00    +0.000 A 
ATOM     25  C   UNL     1      -4.258  11.321  16.164  0.00  0.00    +0.000 A 
ATOM     26  C   UNL     1      -4.325  11.484  17.542  0.00  0.00    +0.000 A 
ATOM     27  C   UNL     1      -3.280  11.031  18.345  0.00  0.00    +0.000 A 
ATOM     28  C   UNL     1      -2.163  10.397  17.789  0.00  0.00    +0.000 A 
ATOM     29  C   UNL     1      -2.096  10.258  16.391  0.00  0.00    +0.000 A 
BRANCH  24  31
ATOM     30  C   UNL     1      -4.215   9.818  13.643  0.00  0.00    +0.000 C 
ATOM     31  O   UNL     1      -3.218  10.649  14.214  0.00  0.00    +0.000 OA
ENDBRANCH  24  31
ENDBRANCH  20  28
ENDBRANCH  19  21
ENDBRANCH   1  19
TORSDOF 5
ENDMDL
MODEL 4
REMARK VINA RESULT:      -7.7      3.096      4.570
REMARK  Name = 
REMARK  8 active torsions:
REMARK  status: ('A' for Active; 'I' for Inactive)
REMARK    1  A    between atoms: C_1  and  O_2
REMARK    2  A    between atoms: O_2  and  C_3
REMARK    3  A    between atoms: C_7  and  N_8
REMARK    4  A    between atoms: C_9  and  C_11
REMARK    5  A    between atoms: C_11  and  N_12
REMARK    6  A    between atoms: N_12  and  C_13
REMARK    7  A    between atoms: C_14  and  C_16
REMARK    8  A    between atoms: C_28  and  C_29
REMARK                            x       y       z     vdW  Elec       q    Type
REMARK                         _______ _______ _______ _____ _____    ______ ____
ROOT
ATOM      1  N   UNL     1       1.582   8.668  19.091  0.00  0.00    +0.000 N 
ATOM      2  C   UNL     1       2.135   8.796  17.741  0.00  0.00    +0.000 C 
ATOM      3  C   UNL     1       1.875   7.596  19.963  0.00  0.00    +0.000 C 
ATOM      4  O   UNL     1       1.543   7.633  21.152  0.00  0.00    +0.000 OA
ENDROOT
BRANCH   3   5
ATOM      5  C   UNL     1       2.567   6.453  19.405  0.00  0.00    +0.000 A 
ATOM      6  O   UNL     1       3.775   6.697  18.784  0.00  0.00    +0.000 OA
ATOM      7  C   UNL     1       4.155   5.509  18.246  0.00  0.00    +0.000 A 
ATOM      8  C   UNL     1       3.408   4.487  18.808  0.00  0.00    +0.000 A 
ATOM      9  C   UNL     1       3.804   3.157  18.534  0.00  0.00    +0.000 A 
ATOM     10  C   UNL     1       4.879   2.939  17.644  0.00  0.00    +0.000 A 
ATOM     11  C   UNL     1       5.361   3.998  16.846  0.00  0.00    +0.000 A 
ATOM     12  C   UNL     1       6.137   3.834  15.691  0.00  0.00    +0.000 A 
ATOM     13  C   UNL     1       6.239   4.880  14.756  0.00  0.00    +0.000 A 
ATOM     14  C   UNL     1       5.589   6.099  14.968  0.00  0.00    +0.000 A 
ATOM     15  C   UNL     1       4.980   6.342  16.184  0.00  0.00    +0.000 A 
ATOM     16  C   UNL     1       4.922   5.302  17.117  0.00  0.00    +0.000 A 
ATOM     17  C   UNL     1       2.170   5.216  18.880  0.00  0.00    +0.000 A 
ATOM     18  C   UNL     1       1.159   5.126  17.759  0.00  0.00    +0.000 C 
ENDBRANCH   3   5
BRANCH   1  19
ATOM     19  C   UNL     1       1.046   9.892  19.682  0.00  0.00    +0.000 C 
BRANCH  19  21
ATOM     20  N   UNL     1      -1.157   9.912  18.535  0.00  0.00    +0.000 N 
ATOM     21  C   UNL     1      -0.026  10.649  18.868  0.00  0.00    +0.000 C 
ATOM     22  O   UNL     1       0.179  11.817  18.587  0.00  0.00    +0.000 OA
ATOM     23  H   UNL     1      -1.242   9.002  18.977  0.00  0.00    +0.000 HD
BRANCH  20  28
ATOM     24  C   UNL     1      -4.351  11.572  17.589  0.00  0.00    +0.000 A 
ATOM     25  C   UNL     1      -4.388  11.330  16.214  0.00  0.00    +0.000 A 
ATOM     26  C   UNL     1      -3.377  10.601  15.602  0.00  0.00    +0.000 A 
ATOM     27  C   UNL     1      -2.312  10.120  16.362  0.00  0.00    +0.000 A 
ATOM     28  C   UNL     1      -2.234  10.369  17.738  0.00  0.00    +0.000 A 
ATOM     29  C   UNL     1      -3.276  11.089  18.349  0.00  0.00    +0.000 A 
BRANCH  24  31
ATOM     30  C   UNL     1      -6.675  11.616  18.134  0.00  0.00    +0.000 C 
ATOM     31  O   UNL     1      -5.427  12.284  18.043  0.00  0.00    +0.000 OA
ENDBRANCH  24  31
ENDBRANCH  20  28
ENDBRANCH  19  21
ENDBRANCH   1  19
TORSDOF 5
ENDMDL
MODEL 5
REMARK VINA RESULT:      -7.6      2.768      4.167
REMARK  Name = 
REMARK  8 active torsions:
REMARK  status: ('A' for Active; 'I' for Inactive)
REMARK    1  A    between atoms: C_1  and  O_2
REMARK    2  A    between atoms: O_2  and  C_3
REMARK    3  A    between atoms: C_7  and  N_8
REMARK    4  A    between atoms: C_9  and  C_11
REMARK    5  A    between atoms: C_11  and  N_12
REMARK    6  A    between atoms: N_12  and  C_13
REMARK    7  A    between atoms: C_14  and  C_16
REMARK    8  A    between atoms: C_28  and  C_29
REMARK                            x       y       z     vdW  Elec       q    Type
REMARK                         _______ _______ _______ _____ _____    ______ ____
ROOT
ATOM      1  N   UNL     1       1.272   8.997  19.670  0.00  0.00    +0.000 N 
ATOM      2  C   UNL     1       1.359   8.208  20.900  0.00  0.00    +0.000 C 
ATOM      3  C   UNL     1       1.868   8.617  18.447  0.00  0.00    +0.000 C 
ATOM      4  O   UNL     1       1.604   9.212  17.398  0.00  0.00    +0.000 OA
ENDROOT
BRANCH   3   5
ATOM      5  C   UNL     1       2.805   7.513  18.477  0.00  0.00    +0.000 A 
ATOM      6  O   UNL     1       3.916   7.616  17.665  0.00  0.00    +0.000 OA
ATOM      7  C   UNL     1       4.561   6.426  17.777  0.00  0.00    +0.000 A 
ATOM      8  C   UNL     1       4.082   5.742  18.882  0.00  0.00    +0.000 A 
ATOM      9  C   UNL     1       4.777   4.581  19.288  0.00  0.00    +0.000 A 
ATOM     10  C   UNL     1       5.866   4.134  18.507  0.00  0.00    +0.000 A 
ATOM     11  C   UNL     1       6.078   4.669  17.220  0.00  0.00    +0.000 A 
ATOM     12  C   UNL     1       6.861   4.067  16.226  0.00  0.00    +0.000 A 
ATOM     13  C   UNL     1       6.705   4.444  14.880  0.00  0.00    +0.000 A 
ATOM     14  C   UNL     1       5.788   5.432  14.512  0.00  0.00    +0.000 A 
ATOM     15  C   UNL     1       5.149   6.165  15.494  0.00  0.00    +0.000 A 
ATOM     16  C   UNL     1       5.345   5.800  16.830  0.00  0.00    +0.000 A 
ATOM     17  C   UNL     1       2.707   6.139  18.729  0.00  0.00    +0.000 A 
ATOM     18  C   UNL     1       1.736   5.266  17.964  0.00  0.00    +0.000 C 
ENDBRANCH   3   5
BRANCH   1  19
ATOM     19  C   UNL     1       0.200   9.988  19.619  0.00  0.00    +0.000 C 
BRANCH  19  21
ATOM     20  N   UNL     1      -1.071  11.489  21.136  0.00  0.00    +0.000 N 
ATOM     21  C   UNL     1       0.188  11.062  20.728  0.00  0.00    +0.000 C 
ATOM     22  O   UNL     1       1.257  11.448  21.170  0.00  0.00    +0.000 OA
ATOM     23  H   UNL     1      -1.858  10.957  20.780  0.00  0.00    +0.000 HD
BRANCH  20  28
ATOM     24  C   UNL     1      -2.701  13.355  23.914  0.00  0.00    +0.000 A 
ATOM     25  C   UNL     1      -1.883  14.484  24.001  0.00  0.00    +0.000 A 
ATOM     26  C   UNL     1      -0.812  14.644  23.132  0.00  0.00    +0.000 A 
ATOM     27  C   UNL     1      -0.543  13.665  22.176  0.00  0.00    +0.000 A 
ATOM     28  C   UNL     1      -1.328  12.510  22.082  0.00  0.00    +0.000 A 
ATOM     29  C   UNL     1      -2.424  12.371  22.953  0.00  0.00    +0.000 A 
BRANCH  24  31
ATOM     30  C   UNL     1      -4.750  12.388  24.667  0.00  0.00    +0.000 C 
ATOM     31  O   UNL     1      -3.724  13.355  24.822  0.00  0.00    +0.000 OA
ENDBRANCH  24  31
ENDBRANCH  20  28
ENDBRANCH  19  21
ENDBRANCH   1  19
TORSDOF 5
ENDMDL
MODEL 6
REMARK VINA RESULT:      -7.5      1.270      1.270
REMARK  Name = 
REMARK  8 active torsions:
REMARK  status: ('A' for Active; 'I' for Inactive)
REMARK    1  A    between atoms: C_1  and  O_2
REMARK    2  A    between atoms: O_2  and  C_3
REMARK    3  A    between atoms: C_7  and  N_8
REMARK    4  A    between atoms: C_9  and  C_11
REMARK    5  A    between atoms: C_11  and  N_12
REMARK    6  A    between atoms: N_12  and  C_13
REMARK    7  A    between atoms: C_14  and  C_16
REMARK    8  A    between atoms: C_28  and  C_29
REMARK                            x       y       z     vdW  Elec       q    Type
REMARK                         _______ _______ _______ _____ _____    ______ ____
ROOT
ATOM      1  N   UNL     1       1.233   8.982  19.653  0.00  0.00    +0.000 N 
ATOM      2  C   UNL     1       1.349   8.214  20.895  0.00  0.00    +0.000 C 
ATOM      3  C   UNL     1       1.836   8.602  18.434  0.00  0.00    +0.000 C 
ATOM      4  O   UNL     1       1.549   9.173  17.377  0.00  0.00    +0.000 OA
ENDROOT
BRANCH   3   5
ATOM      5  C   UNL     1       2.807   7.529  18.476  0.00  0.00    +0.000 A 
ATOM      6  O   UNL     1       3.905   7.648  17.648  0.00  0.00    +0.000 OA
ATOM      7  C   UNL     1       4.587   6.482  17.778  0.00  0.00    +0.000 A 
ATOM      8  C   UNL     1       4.144   5.808  18.904  0.00  0.00    +0.000 A 
ATOM      9  C   UNL     1       4.881   4.679  19.327  0.00  0.00    +0.000 A 
ATOM     10  C   UNL     1       5.973   4.248  18.542  0.00  0.00    +0.000 A 
ATOM     11  C   UNL     1       6.152   4.760  17.240  0.00  0.00    +0.000 A 
ATOM     12  C   UNL     1       6.940   4.160  16.250  0.00  0.00    +0.000 A 
ATOM     13  C   UNL     1       6.756   4.501  14.897  0.00  0.00    +0.000 A 
ATOM     14  C   UNL     1       5.804   5.452  14.520  0.00  0.00    +0.000 A 
ATOM     15  C   UNL     1       5.155   6.187  15.493  0.00  0.00    +0.000 A 
ATOM     16  C   UNL     1       5.379   5.859  16.834  0.00  0.00    +0.000 A 
ATOM     17  C   UNL     1       2.756   6.158  18.760  0.00  0.00    +0.000 A 
ATOM     18  C   UNL     1       1.803   5.239  18.029  0.00  0.00    +0.000 C 
ENDBRANCH   3   5
BRANCH   1  19
ATOM     19  C   UNL     1       0.130   9.937  19.593  0.00  0.00    +0.000 C 
BRANCH  19  21
ATOM     20  N   UNL     1       1.252  12.106  19.141  0.00  0.00    +0.000 N 
ATOM     21  C   UNL     1       0.440  11.391  20.013  0.00  0.00    +0.000 C 
ATOM     22  O   UNL     1      -0.046  11.808  21.051  0.00  0.00    +0.000 OA
ATOM     23  H   UNL     1       1.443  11.666  18.248  0.00  0.00    +0.000 HD
BRANCH  20  28
ATOM     24  C   UNL     1       3.325  14.914  20.434  0.00  0.00    +0.000 A 
ATOM     25  C   UNL     1       2.735  16.007  19.794  0.00  0.00    +0.000 A 
ATOM     26  C   UNL     1       1.642  15.824  18.958  0.00  0.00    +0.000 A 
ATOM     27  C   UNL     1       1.139  14.541  18.745  0.00  0.00    +0.000 A 
ATOM     28  C   UNL     1       1.726  13.424  19.351  0.00  0.00    +0.000 A 
ATOM     29  C   UNL     1       2.818  13.625  20.214  0.00  0.00    +0.000 A 
BRANCH  24  31
ATOM     30  C   UNL     1       4.914  14.265  22.094  0.00  0.00    +0.000 C 
ATOM     31  O   UNL     1       4.376  15.260  21.239  0.00  0.00    +0.000 OA
ENDBRANCH  24  31
ENDBRANCH  20  28
ENDBRANCH  19  21
ENDBRANCH   1  19
TORSDOF 5
ENDMDL
MODEL 7
REMARK VINA RESULT:      -7.5      1.218      1.721
REMARK  Name = 
REMARK  8 active torsions:
REMARK  status: ('A' for Active; 'I' for Inactive)
REMARK    1  A    between atoms: C_1  and  O_2
REMARK    2  A    between atoms: O_2  and  C_3
REMARK    3  A    between atoms: C_7  and  N_8
REMARK    4  A    between atoms: C_9  and  C_11
REMARK    5  A    between atoms: C_11  and  N_12
REMARK    6  A    between atoms: N_12  and  C_13
REMARK    7  A    between atoms: C_14  and  C_16
REMARK    8  A    between atoms: C_28  and  C_29
REMARK                            x       y       z     vdW  Elec       q    Type
REMARK                         _______ _______ _______ _____ _____    ______ ____
ROOT
ATOM      1  N   UNL     1       1.172   9.123  19.569  0.00  0.00    +0.000 N 
ATOM      2  C   UNL     1       1.424   8.539  20.887  0.00  0.00    +0.000 C 
ATOM      3  C   UNL     1       1.663   8.582  18.360  0.00  0.00    +0.000 C 
ATOM      4  O   UNL     1       1.264   8.996  17.268  0.00  0.00    +0.000 OA
ENDROOT
BRANCH   3   5
ATOM      5  C   UNL     1       2.658   7.534  18.455  0.00  0.00    +0.000 A 
ATOM      6  O   UNL     1       3.781   7.667  17.665  0.00  0.00    +0.000 OA
ATOM      7  C   UNL     1       4.487   6.519  17.839  0.00  0.00    +0.000 A 
ATOM      8  C   UNL     1       4.019   5.854  18.960  0.00  0.00    +0.000 A 
ATOM      9  C   UNL     1       4.767   4.749  19.428  0.00  0.00    +0.000 A 
ATOM     10  C   UNL     1       5.897   4.333  18.689  0.00  0.00    +0.000 A 
ATOM     11  C   UNL     1       6.110   4.829  17.386  0.00  0.00    +0.000 A 
ATOM     12  C   UNL     1       6.948   4.232  16.435  0.00  0.00    +0.000 A 
ATOM     13  C   UNL     1       6.804   4.547  15.071  0.00  0.00    +0.000 A 
ATOM     14  C   UNL     1       5.844   5.468  14.644  0.00  0.00    +0.000 A 
ATOM     15  C   UNL     1       5.143   6.202  15.581  0.00  0.00    +0.000 A 
ATOM     16  C   UNL     1       5.327   5.901  16.935  0.00  0.00    +0.000 A 
ATOM     17  C   UNL     1       2.629   6.167  18.761  0.00  0.00    +0.000 A 
ATOM     18  C   UNL     1       1.725   5.213  18.011  0.00  0.00    +0.000 C 
ENDBRANCH   3   5
BRANCH   1  19
ATOM     19  C   UNL     1       0.047  10.051  19.485  0.00  0.00    +0.000 C 
BRANCH  19  21
ATOM     20  N   UNL     1       1.592  11.995  19.484  0.00  0.00    +0.000 N 
ATOM     21  C   UNL     1       0.366  11.500  19.055  0.00  0.00    +0.000 C 
ATOM     22  O   UNL     1      -0.453  12.095  18.376  0.00  0.00    +0.000 OA
ATOM     23  H   UNL     1       2.222  11.322  19.906  0.00  0.00    +0.000 HD
BRANCH  20  28
ATOM     24  C   UNL     1       2.154  15.637  20.008  0.00  0.00    +0.000 A 
ATOM     25  C   UNL     1       2.992  15.942  18.933  0.00  0.00    +0.000 A 
ATOM     26  C   UNL     1       3.353  14.957  18.023  0.00  0.00    +0.000 A 
ATOM     27  C   UNL     1       2.886  13.654  18.191  0.00  0.00    +0.000 A 
ATOM     28  C   UNL     1       2.067  13.313  19.273  0.00  0.00    +0.000 A 
ATOM     29  C   UNL     1       1.691  14.324  20.175  0.00  0.00    +0.000 A 
BRANCH  24  31
ATOM     30  C   UNL     1       1.442  17.911  20.170  0.00  0.00    +0.000 C 
ATOM     31  O   UNL     1       1.875  16.717  20.801  0.00  0.00    +0.000 OA
ENDBRANCH  24  31
ENDBRANCH  20  28
ENDBRANCH  19  21
ENDBRANCH   1  19
TORSDOF 5
ENDMDL
MODEL 8
REMARK VINA RESULT:      -7.4      2.355      3.284
REMARK  Name = 
REMARK  8 active torsions:
REMARK  status: ('A' for Active; 'I' for Inactive)
REMARK    1  A    between atoms: C_1  and  O_2
REMARK    2  A    between atoms: O_2  and  C_3
REMARK    3  A    between atoms: C_7  and  N_8
REMARK    4  A    between atoms: C_9  and  C_11
REMARK    5  A    between atoms: C_11  and  N_12
REMARK    6  A    between atoms: N_12  and  C_13
REMARK    7  A    between atoms: C_14  and  C_16
REMARK    8  A    between atoms: C_28  and  C_29
REMARK                            x       y       z     vdW  Elec       q    Type
REMARK                         _______ _______ _______ _____ _____    ______ ____
ROOT
ATOM      1  N   UNL     1       1.177   9.072  19.630  0.00  0.00    +0.000 N 
ATOM      2  C   UNL     1       1.334   8.375  20.908  0.00  0.00    +0.000 C 
ATOM      3  C   UNL     1       1.742   8.626  18.415  0.00  0.00    +0.000 C 
ATOM      4  O   UNL     1       1.422   9.136  17.338  0.00  0.00    +0.000 OA
ENDROOT
BRANCH   3   5
ATOM      5  C   UNL     1       2.719   7.558  18.487  0.00  0.00    +0.000 A 
ATOM      6  O   UNL     1       3.832   7.676  17.681  0.00  0.00    +0.000 OA
ATOM      7  C   UNL     1       4.518   6.514  17.835  0.00  0.00    +0.000 A 
ATOM      8  C   UNL     1       4.054   5.848  18.957  0.00  0.00    +0.000 A 
ATOM      9  C   UNL     1       4.788   4.725  19.405  0.00  0.00    +0.000 A 
ATOM     10  C   UNL     1       5.898   4.294  18.646  0.00  0.00    +0.000 A 
ATOM     11  C   UNL     1       6.102   4.796  17.344  0.00  0.00    +0.000 A 
ATOM     12  C   UNL     1       6.914   4.192  16.375  0.00  0.00    +0.000 A 
ATOM     13  C   UNL     1       6.756   4.521  15.017  0.00  0.00    +0.000 A 
ATOM     14  C   UNL     1       5.808   5.464  14.612  0.00  0.00    +0.000 A 
ATOM     15  C   UNL     1       5.135   6.203  15.565  0.00  0.00    +0.000 A 
ATOM     16  C   UNL     1       5.333   5.887  16.913  0.00  0.00    +0.000 A 
ATOM     17  C   UNL     1       2.668   6.189  18.781  0.00  0.00    +0.000 A 
ATOM     18  C   UNL     1       1.735   5.259  18.038  0.00  0.00    +0.000 C 
ENDBRANCH   3   5
BRANCH   1  19
ATOM     19  C   UNL     1       0.069  10.021  19.551  0.00  0.00    +0.000 C 
BRANCH  19  21
ATOM     20  N   UNL     1      -0.896  11.979  20.735  0.00  0.00    +0.000 N 
ATOM     21  C   UNL     1       0.264  11.382  20.254  0.00  0.00    +0.000 C 
ATOM     22  O   UNL     1       1.395  11.827  20.348  0.00  0.00    +0.000 OA
ATOM     23  H   UNL     1      -1.733  11.406  20.714  0.00  0.00    +0.000 HD
BRANCH  20  28
ATOM     24  C   UNL     1      -1.008  14.582  23.393  0.00  0.00    +0.000 A 
ATOM     25  C   UNL     1      -1.098  15.748  22.631  0.00  0.00    +0.000 A 
ATOM     26  C   UNL     1      -1.145  15.678  21.244  0.00  0.00    +0.000 A 
ATOM     27  C   UNL     1      -1.090  14.437  20.611  0.00  0.00    +0.000 A 
ATOM     28  C   UNL     1      -0.973  13.253  21.347  0.00  0.00    +0.000 A 
ATOM     29  C   UNL     1      -0.949  13.336  22.751  0.00  0.00    +0.000 A 
BRANCH  24  31
ATOM     30  C   UNL     1      -0.817  16.151  25.183  0.00  0.00    +0.000 C 
ATOM     31  O   UNL     1      -0.993  14.815  24.741  0.00  0.00    +0.000 OA
ENDBRANCH  24  31
ENDBRANCH  20  28
ENDBRANCH  19  21
ENDBRANCH   1  19
TORSDOF 5
ENDMDL
MODEL 9
REMARK VINA RESULT:      -7.3      2.353      3.040
REMARK  Name = 
REMARK  8 active torsions:
REMARK  status: ('A' for Active; 'I' for Inactive)
REMARK    1  A    between atoms: C_1  and  O_2
REMARK    2  A    between atoms: O_2  and  C_3
REMARK    3  A    between atoms: C_7  and  N_8
REMARK    4  A    between atoms: C_9  and  C_11
REMARK    5  A    between atoms: C_11  and  N_12
REMARK    6  A    between atoms: N_12  and  C_13
REMARK    7  A    between atoms: C_14  and  C_16
REMARK    8  A    between atoms: C_28  and  C_29
REMARK                            x       y       z     vdW  Elec       q    Type
REMARK                         _______ _______ _______ _____ _____    ______ ____
ROOT
ATOM      1  N   UNL     1       1.183   9.080  19.550  0.00  0.00    +0.000 N 
ATOM      2  C   UNL     1       1.360   8.420  20.845  0.00  0.00    +0.000 C 
ATOM      3  C   UNL     1       1.731   8.600  18.340  0.00  0.00    +0.000 C 
ATOM      4  O   UNL     1       1.394   9.079  17.254  0.00  0.00    +0.000 OA
ENDROOT
BRANCH   3   5
ATOM      5  C   UNL     1       2.709   7.535  18.428  0.00  0.00    +0.000 A 
ATOM      6  O   UNL     1       3.832   7.653  17.635  0.00  0.00    +0.000 OA
ATOM      7  C   UNL     1       4.519   6.493  17.802  0.00  0.00    +0.000 A 
ATOM      8  C   UNL     1       4.043   5.830  18.921  0.00  0.00    +0.000 A 
ATOM      9  C   UNL     1       4.774   4.711  19.381  0.00  0.00    +0.000 A 
ATOM     10  C   UNL     1       5.894   4.279  18.638  0.00  0.00    +0.000 A 
ATOM     11  C   UNL     1       6.113   4.778  17.336  0.00  0.00    +0.000 A 
ATOM     12  C   UNL     1       6.938   4.171  16.380  0.00  0.00    +0.000 A 
ATOM     13  C   UNL     1       6.796   4.495  15.018  0.00  0.00    +0.000 A 
ATOM     14  C   UNL     1       5.850   5.434  14.598  0.00  0.00    +0.000 A 
ATOM     15  C   UNL     1       5.164   6.175  15.541  0.00  0.00    +0.000 A 
ATOM     16  C   UNL     1       5.346   5.865  16.892  0.00  0.00    +0.000 A 
ATOM     17  C   UNL     1       2.658   6.167  18.726  0.00  0.00    +0.000 A 
ATOM     18  C   UNL     1       1.737   5.232  17.975  0.00  0.00    +0.000 C 
ENDBRANCH   3   5
BRANCH   1  19
ATOM     19  C   UNL     1       0.074  10.026  19.460  0.00  0.00    +0.000 C 
BRANCH  19  21
ATOM     20  N   UNL     1      -0.982  11.760  20.891  0.00  0.00    +0.000 N 
ATOM     21  C   UNL     1       0.193  11.323  20.290  0.00  0.00    +0.000 C 
ATOM     22  O   UNL     1       1.285  11.859  20.371  0.00  0.00    +0.000 OA
ATOM     23  H   UNL     1      -1.767  11.117  20.855  0.00  0.00    +0.000 HD
BRANCH  20  28
ATOM     24  C   UNL     1      -1.388  15.380  21.654  0.00  0.00    +0.000 A 
ATOM     25  C   UNL     1      -1.455  15.360  23.049  0.00  0.00    +0.000 A 
ATOM     26  C   UNL     1      -1.344  14.160  23.740  0.00  0.00    +0.000 A 
ATOM     27  C   UNL     1      -1.177  12.968  23.036  0.00  0.00    +0.000 A 
ATOM     28  C   UNL     1      -1.132  12.954  21.637  0.00  0.00    +0.000 A 
ATOM     29  C   UNL     1      -1.223  14.178  20.950  0.00  0.00    +0.000 A 
BRANCH  24  31
ATOM     30  C   UNL     1      -1.347  16.782  19.722  0.00  0.00    +0.000 C 
ATOM     31  O   UNL     1      -1.492  16.637  21.125  0.00  0.00    +0.000 OA
ENDBRANCH  24  31
ENDBRANCH  20  28
ENDBRANCH  19  21
ENDBRANCH   1  19
TORSDOF 5
ENDMDL
