MODEL 1
REMARK VINA RESULT:      -7.8      0.000      0.000
REMARK  Name = 
REMARK  8 active torsions:
REMARK  status: ('A' for Active; 'I' for Inactive)
REMARK    1  A    between atoms: C_1  and  C_2
REMARK    2  A    between atoms: C_2  and  N_3
REMARK    3  A    between atoms: C_2  and  C_4
REMARK    4  A    between atoms: N_6  and  C_7
REMARK    5  A    between atoms: C_14  and  C_15
REMARK    6  A    between atoms: N_17  and  C_18
REMARK    7  A    between atoms: C_18  and  C_19
REMARK    8  A    between atoms: C_18  and  C_25
REMARK                            x       y       z     vdW  Elec       q    Type
REMARK                         _______ _______ _______ _____ _____    ______ ____
ROOT
ATOM      1  C   UNL     1      -1.787  11.633  19.509  0.00  0.00    +0.000 C 
ATOM      2  C   UNL     1      -1.577  12.602  18.346  0.00  0.00    +0.000 C 
ATOM      3  C   UNL     1      -0.285  13.423  18.472  0.00  0.00    +0.000 C 
ATOM      4  C   UNL     1       0.947  12.657  18.983  0.00  0.00    +0.000 C 
ATOM      5  C   UNL     1       1.046  11.294  18.332  0.00  0.00    +0.000 C 
ATOM      6  C   UNL     1       2.466  10.749  18.234  0.00  0.00    +0.000 C 
ATOM      7  C   UNL     1       2.182   9.300  17.868  0.00  0.00    +0.000 C 
ATOM      8  C   UNL     1       1.038   8.940  18.831  0.00  0.00    +0.000 C 
ATOM      9  N   UNL     1       0.309  10.238  19.020  0.00  0.00    +0.000 N 
ATOM     10  C   UNL     1      -1.084  10.288  19.079  0.00  0.00    +0.000 C 
ATOM     11  O   UNL     1      -1.766   9.315  18.756  0.00  0.00    +0.000 OA
ENDROOT
BRANCH   1  14
ATOM     12  C   UNL     1      -2.426  12.846  21.620  0.00  0.00    +0.000 C 
ATOM     13  O   UNL     1      -3.622  12.823  21.335  0.00  0.00    +0.000 OA
ATOM     14  N   UNL     1      -1.449  12.273  20.807  0.00  0.00    +0.000 N 
ATOM     15  H   UNL     1      -0.563  12.062  21.241  0.00  0.00    +0.000 HD
BRANCH  12  17
ATOM     16  C   UNL     1      -1.858  15.119  22.623  0.00  0.00    +0.000 C 
ATOM     17  C   UNL     1      -1.895  13.608  22.865  0.00  0.00    +0.000 C 
BRANCH  17  18
ATOM     18  N   UNL     1      -0.520  13.169  23.190  0.00  0.00    +0.000 NA
ATOM     19  H   UNL     1      -0.391  12.216  22.840  0.00  0.00    +0.000 HD
ATOM     20  H   UNL     1      -0.404  13.113  24.198  0.00  0.00    +0.000 HD
ENDBRANCH  17  18
ENDBRANCH  12  17
ENDBRANCH   1  14
BRANCH   8  21
ATOM     21  C   UNL     1       1.661   8.245  20.089  0.00  0.00    +0.000 C 
ATOM     22  O   UNL     1       1.706   8.830  21.178  0.00  0.00    +0.000 OA
ATOM     23  N   UNL     1       2.336   7.065  20.034  0.00  0.00    +0.000 N 
ATOM     24  H   UNL     1       2.768   6.804  20.910  0.00  0.00    +0.000 HD
BRANCH  23  25
ATOM     25  C   UNL     1       2.634   6.238  18.896  0.00  0.00    +0.000 C 
BRANCH  25  26
ATOM     26  C   UNL     1       4.098   6.269  18.463  0.00  0.00    +0.000 A 
ATOM     27  C   UNL     1       5.079   5.597  19.219  0.00  0.00    +0.000 A 
ATOM     28  C   UNL     1       6.415   5.566  18.814  0.00  0.00    +0.000 A 
ATOM     29  C   UNL     1       6.794   6.148  17.609  0.00  0.00    +0.000 A 
ATOM     30  C   UNL     1       5.833   6.743  16.801  0.00  0.00    +0.000 A 
ATOM     31  C   UNL     1       4.503   6.811  17.227  0.00  0.00    +0.000 A 
ENDBRANCH  25  26
BRANCH  25  32
ATOM     32  C   UNL     1       1.930   4.893  19.036  0.00  0.00    +0.000 A 
ATOM     33  C   UNL     1       1.995   3.980  17.959  0.00  0.00    +0.000 A 
ATOM     34  C   UNL     1       1.507   2.681  18.088  0.00  0.00    +0.000 A 
ATOM     35  C   UNL     1       0.901   2.292  19.278  0.00  0.00    +0.000 A 
ATOM     36  C   UNL     1       0.766   3.205  20.322  0.00  0.00    +0.000 A 
ATOM     37  C   UNL     1       1.263   4.506  20.195  0.00  0.00    +0.000 A 
ENDBRANCH  25  32
ENDBRANCH  23  25
ENDBRANCH   8  21
TORSDOF 7
ENDMDL
MODEL 2
REMARK VINA RESULT:      -7.5      4.828      7.967
REMARK  Name = 
REMARK  8 active torsions:
REMARK  status: ('A' for Active; 'I' for Inactive)
REMARK    1  A    between atoms: C_1  and  C_2
REMARK    2  A    between atoms: C_2  and  N_3
REMARK    3  A    between atoms: C_2  and  C_4
REMARK    4  A    between atoms: N_6  and  C_7
REMARK    5  A    between atoms: C_14  and  C_15
REMARK    6  A    between atoms: N_17  and  C_18
REMARK    7  A    between atoms: C_18  and  C_19
REMARK    8  A    between atoms: C_18  and  C_25
REMARK                            x       y       z     vdW  Elec       q    Type
REMARK                         _______ _______ _______ _____ _____    ______ ____
ROOT
ATOM      1  C   UNL     1       5.165  15.160  21.028  0.00  0.00    +0.000 C 
ATOM      2  C   UNL     1       4.811  16.633  21.234  0.00  0.00    +0.000 C 
ATOM      3  C   UNL     1       4.580  17.386  19.916  0.00  0.00    +0.000 C 
ATOM      4  C   UNL     1       3.801  16.620  18.834  0.00  0.00    +0.000 C 
ATOM      5  C   UNL     1       2.622  15.884  19.435  0.00  0.00    +0.000 C 
ATOM      6  C   UNL     1       1.465  15.662  18.467  0.00  0.00    +0.000 C 
ATOM      7  C   UNL     1       0.641  14.649  19.249  0.00  0.00    +0.000 C 
ATOM      8  C   UNL     1       1.719  13.677  19.757  0.00  0.00    +0.000 C 
ATOM      9  N   UNL     1       2.931  14.545  19.928  0.00  0.00    +0.000 N 
ATOM     10  C   UNL     1       3.790  14.387  21.016  0.00  0.00    +0.000 C 
ATOM     11  O   UNL     1       3.469  13.692  21.980  0.00  0.00    +0.000 OA
ENDROOT
BRANCH   1  14
ATOM     12  C   UNL     1       7.487  14.780  20.135  0.00  0.00    +0.000 C 
ATOM     13  O   UNL     1       7.963  14.679  21.264  0.00  0.00    +0.000 OA
ATOM     14  N   UNL     1       6.128  14.993  19.909  0.00  0.00    +0.000 N 
ATOM     15  H   UNL     1       5.778  14.758  18.991  0.00  0.00    +0.000 HD
BRANCH  12  17
ATOM     16  C   UNL     1       7.547  14.903  17.590  0.00  0.00    +0.000 C 
ATOM     17  C   UNL     1       8.383  14.780  18.865  0.00  0.00    +0.000 C 
BRANCH  17  18
ATOM     18  N   UNL     1       9.155  13.521  18.780  0.00  0.00    +0.000 NA
ATOM     19  H   UNL     1       8.547  12.745  19.056  0.00  0.00    +0.000 HD
ATOM     20  H   UNL     1       9.913  13.533  19.456  0.00  0.00    +0.000 HD
ENDBRANCH  17  18
ENDBRANCH  12  17
ENDBRANCH   1  14
BRANCH   8  21
ATOM     21  C   UNL     1       1.799  12.474  18.756  0.00  0.00    +0.000 C 
ATOM     22  O   UNL     1       2.717  12.398  17.929  0.00  0.00    +0.000 OA
ATOM     23  N   UNL     1       0.805  11.557  18.607  0.00  0.00    +0.000 N 
ATOM     24  H   UNL     1       0.963  10.909  17.848  0.00  0.00    +0.000 HD
BRANCH  23  25
ATOM     25  C   UNL     1      -0.470  11.480  19.268  0.00  0.00    +0.000 C 
BRANCH  25  26
ATOM     26  C   UNL     1      -1.625  11.068  18.358  0.00  0.00    +0.000 A 
ATOM     27  C   UNL     1      -2.846  11.770  18.395  0.00  0.00    +0.000 A 
ATOM     28  C   UNL     1      -3.898  11.447  17.535  0.00  0.00    +0.000 A 
ATOM     29  C   UNL     1      -3.733  10.459  16.570  0.00  0.00    +0.000 A 
ATOM     30  C   UNL     1      -2.510   9.809  16.454  0.00  0.00    +0.000 A 
ATOM     31  C   UNL     1      -1.472  10.104  17.342  0.00  0.00    +0.000 A 
ENDBRANCH  25  26
BRANCH  25  32
ATOM     32  C   UNL     1      -0.310  10.795  20.621  0.00  0.00    +0.000 A 
ATOM     33  C   UNL     1      -0.787  11.458  21.774  0.00  0.00    +0.000 A 
ATOM     34  C   UNL     1      -0.811  10.818  23.012  0.00  0.00    +0.000 A 
ATOM     35  C   UNL     1      -0.310   9.525  23.124  0.00  0.00    +0.000 A 
ATOM     36  C   UNL     1       0.230   8.888  22.008  0.00  0.00    +0.000 A 
ATOM     37  C   UNL     1       0.246   9.528  20.766  0.00  0.00    +0.000 A 
ENDBRANCH  25  32
ENDBRANCH  23  25
ENDBRANCH   8  21
TORSDOF 7
ENDMDL
MODEL 3
REMARK VINA RESULT:      -7.2      4.843      7.981
REMARK  Name = 
REMARK  8 active torsions:
REMARK  status: ('A' for Active; 'I' for Inactive)
REMARK    1  A    between atoms: C_1  and  C_2
REMARK    2  A    between atoms: C_2  and  N_3
REMARK    3  A    between atoms: C_2  and  C_4
REMARK    4  A    between atoms: N_6  and  C_7
REMARK    5  A    between atoms: C_14  and  C_15
REMARK    6  A    between atoms: N_17  and  C_18
REMARK    7  A    between atoms: C_18  and  C_19
REMARK    8  A    between atoms: C_18  and  C_25
REMARK                            x       y       z     vdW  Elec       q    Type
REMARK                         _______ _______ _______ _____ _____    ______ ____
ROOT
ATOM      1  C   UNL     1       5.086  15.070  21.527  0.00  0.00    +0.000 C 
ATOM      2  C   UNL     1       4.966  16.592  21.457  0.00  0.00    +0.000 C 
ATOM      3  C   UNL     1       5.231  17.152  20.051  0.00  0.00    +0.000 C 
ATOM      4  C   UNL     1       4.637  16.344  18.885  0.00  0.00    +0.000 C 
ATOM      5  C   UNL     1       3.227  15.891  19.203  0.00  0.00    +0.000 C 
ATOM      6  C   UNL     1       2.344  15.688  17.977  0.00  0.00    +0.000 C 
ATOM      7  C   UNL     1       1.174  14.942  18.599  0.00  0.00    +0.000 C 
ATOM      8  C   UNL     1       1.883  13.918  19.500  0.00  0.00    +0.000 C 
ATOM      9  N   UNL     1       3.146  14.617  19.912  0.00  0.00    +0.000 N 
ATOM     10  C   UNL     1       3.645  14.512  21.210  0.00  0.00    +0.000 C 
ATOM     11  O   UNL     1       2.960  14.033  22.114  0.00  0.00    +0.000 OA
ENDROOT
BRANCH   1  14
ATOM     12  C   UNL     1       7.442  14.195  21.385  0.00  0.00    +0.000 C 
ATOM     13  O   UNL     1       7.567  14.184  22.608  0.00  0.00    +0.000 OA
ATOM     14  N   UNL     1       6.261  14.590  20.756  0.00  0.00    +0.000 N 
ATOM     15  H   UNL     1       6.131  14.284  19.803  0.00  0.00    +0.000 HD
BRANCH  12  17
ATOM     16  C   UNL     1       9.962  14.315  21.032  0.00  0.00    +0.000 C 
ATOM     17  C   UNL     1       8.627  13.867  20.436  0.00  0.00    +0.000 C 
BRANCH  17  18
ATOM     18  N   UNL     1       8.455  14.559  19.139  0.00  0.00    +0.000 NA
ATOM     19  H   UNL     1       9.342  14.526  18.631  0.00  0.00    +0.000 HD
ATOM     20  H   UNL     1       8.260  15.543  19.296  0.00  0.00    +0.000 HD
ENDBRANCH  17  18
ENDBRANCH  12  17
ENDBRANCH   1  14
BRANCH   8  21
ATOM     21  C   UNL     1       2.002  12.572  18.706  0.00  0.00    +0.000 C 
ATOM     22  O   UNL     1       2.929  12.388  17.907  0.00  0.00    +0.000 OA
ATOM     23  N   UNL     1       1.032  11.618  18.701  0.00  0.00    +0.000 N 
ATOM     24  H   UNL     1       1.212  10.860  18.057  0.00  0.00    +0.000 HD
BRANCH  23  25
ATOM     25  C   UNL     1      -0.246  11.615  19.359  0.00  0.00    +0.000 C 
BRANCH  25  26
ATOM     26  C   UNL     1      -1.422  11.274  18.446  0.00  0.00    +0.000 A 
ATOM     27  C   UNL     1      -1.326  10.210  17.529  0.00  0.00    +0.000 A 
ATOM     28  C   UNL     1      -2.405   9.844  16.722  0.00  0.00    +0.000 A 
ATOM     29  C   UNL     1      -3.630  10.489  16.859  0.00  0.00    +0.000 A 
ATOM     30  C   UNL     1      -3.778  11.486  17.815  0.00  0.00    +0.000 A 
ATOM     31  C   UNL     1      -2.686  11.880  18.593  0.00  0.00    +0.000 A 
ENDBRANCH  25  26
BRANCH  25  32
ATOM     32  C   UNL     1      -0.130  10.920  20.711  0.00  0.00    +0.000 A 
ATOM     33  C   UNL     1      -0.775  11.500  21.827  0.00  0.00    +0.000 A 
ATOM     34  C   UNL     1      -0.836  10.832  23.049  0.00  0.00    +0.000 A 
ATOM     35  C   UNL     1      -0.208   9.598  23.187  0.00  0.00    +0.000 A 
ATOM     36  C   UNL     1       0.493   9.049  22.114  0.00  0.00    +0.000 A 
ATOM     37  C   UNL     1       0.546   9.716  20.887  0.00  0.00    +0.000 A 
ENDBRANCH  25  32
ENDBRANCH  23  25
ENDBRANCH   8  21
TORSDOF 7
ENDMDL
MODEL 4
REMARK VINA RESULT:      -7.2      1.865      2.036
REMARK  Name = 
REMARK  8 active torsions:
REMARK  status: ('A' for Active; 'I' for Inactive)
REMARK    1  A    between atoms: C_1  and  C_2
REMARK    2  A    between atoms: C_2  and  N_3
REMARK    3  A    between atoms: C_2  and  C_4
REMARK    4  A    between atoms: N_6  and  C_7
REMARK    5  A    between atoms: C_14  and  C_15
REMARK    6  A    between atoms: N_17  and  C_18
REMARK    7  A    between atoms: C_18  and  C_19
REMARK    8  A    between atoms: C_18  and  C_25
REMARK                            x       y       z     vdW  Elec       q    Type
REMARK                         _______ _______ _______ _____ _____    ______ ____
ROOT
ATOM      1  C   UNL     1       0.111  12.818  20.016  0.00  0.00    +0.000 C 
ATOM      2  C   UNL     1       0.115  13.361  18.588  0.00  0.00    +0.000 C 
ATOM      3  C   UNL     1       1.521  13.420  17.971  0.00  0.00    +0.000 C 
ATOM      4  C   UNL     1       2.434  12.220  18.271  0.00  0.00    +0.000 C 
ATOM      5  C   UNL     1       1.673  10.917  18.152  0.00  0.00    +0.000 C 
ATOM      6  C   UNL     1       2.539   9.719  17.780  0.00  0.00    +0.000 C 
ATOM      7  C   UNL     1       1.573   8.579  18.070  0.00  0.00    +0.000 C 
ATOM      8  C   UNL     1       0.975   8.998  19.424  0.00  0.00    +0.000 C 
ATOM      9  N   UNL     1       0.995  10.498  19.375  0.00  0.00    +0.000 N 
ATOM     10  C   UNL     1      -0.061  11.256  19.879  0.00  0.00    +0.000 C 
ATOM     11  O   UNL     1      -1.135  10.729  20.173  0.00  0.00    +0.000 OA
ENDROOT
BRANCH   1  14
ATOM     12  C   UNL     1       1.117  14.588  21.496  0.00  0.00    +0.000 C 
ATOM     13  O   UNL     1       0.072  15.234  21.524  0.00  0.00    +0.000 OA
ATOM     14  N   UNL     1       1.235  13.381  20.807  0.00  0.00    +0.000 N 
ATOM     15  H   UNL     1       1.995  12.775  21.079  0.00  0.00    +0.000 HD
BRANCH  12  17
ATOM     16  C   UNL     1       2.989  16.312  21.375  0.00  0.00    +0.000 C 
ATOM     17  C   UNL     1       2.426  15.116  22.145  0.00  0.00    +0.000 C 
BRANCH  17  18
ATOM     18  N   UNL     1       3.459  14.057  22.156  0.00  0.00    +0.000 NA
ATOM     19  H   UNL     1       2.998  13.152  22.273  0.00  0.00    +0.000 HD
ATOM     20  H   UNL     1       4.061  14.170  22.966  0.00  0.00    +0.000 HD
ENDBRANCH  17  18
ENDBRANCH  12  17
ENDBRANCH   1  14
BRANCH   8  21
ATOM     21  C   UNL     1       1.782   8.277  20.556  0.00  0.00    +0.000 C 
ATOM     22  O   UNL     1       1.957   8.821  21.654  0.00  0.00    +0.000 OA
ATOM     23  N   UNL     1       2.477   7.123  20.362  0.00  0.00    +0.000 N 
ATOM     24  H   UNL     1       3.031   6.845  21.160  0.00  0.00    +0.000 HD
BRANCH  23  25
ATOM     25  C   UNL     1       2.642   6.351  19.161  0.00  0.00    +0.000 C 
BRANCH  25  26
ATOM     26  C   UNL     1       4.071   6.323  18.622  0.00  0.00    +0.000 A 
ATOM     27  C   UNL     1       5.075   5.610  19.306  0.00  0.00    +0.000 A 
ATOM     28  C   UNL     1       6.376   5.524  18.805  0.00  0.00    +0.000 A 
ATOM     29  C   UNL     1       6.690   6.093  17.575  0.00  0.00    +0.000 A 
ATOM     30  C   UNL     1       5.698   6.729  16.839  0.00  0.00    +0.000 A 
ATOM     31  C   UNL     1       4.407   6.850  17.360  0.00  0.00    +0.000 A 
ENDBRANCH  25  26
BRANCH  25  32
ATOM     32  C   UNL     1       1.867   5.043  19.278  0.00  0.00    +0.000 A 
ATOM     33  C   UNL     1       1.687   4.258  18.116  0.00  0.00    +0.000 A 
ATOM     34  C   UNL     1       1.127   2.983  18.190  0.00  0.00    +0.000 A 
ATOM     35  C   UNL     1       0.691   2.498  19.419  0.00  0.00    +0.000 A 
ATOM     36  C   UNL     1       0.797   3.291  20.559  0.00  0.00    +0.000 A 
ATOM     37  C   UNL     1       1.366   4.566  20.485  0.00  0.00    +0.000 A 
ENDBRANCH  25  32
ENDBRANCH  23  25
ENDBRANCH   8  21
TORSDOF 7
ENDMDL
MODEL 5
REMARK VINA RESULT:      -7.2      0.422      1.235
REMARK  Name = 
REMARK  8 active torsions:
REMARK  status: ('A' for Active; 'I' for Inactive)
REMARK    1  A    between atoms: C_1  and  C_2
REMARK    2  A    between atoms: C_2  and  N_3
REMARK    3  A    between atoms: C_2  and  C_4
REMARK    4  A    between atoms: N_6  and  C_7
REMARK    5  A    between atoms: C_14  and  C_15
REMARK    6  A    between atoms: N_17  and  C_18
REMARK    7  A    between atoms: C_18  and  C_19
REMARK    8  A    between atoms: C_18  and  C_25
REMARK                            x       y       z     vdW  Elec       q    Type
REMARK                         _______ _______ _______ _____ _____    ______ ____
ROOT
ATOM      1  C   UNL     1      -1.609  11.589  19.441  0.00  0.00    +0.000 C 
ATOM      2  C   UNL     1      -1.410  12.491  18.224  0.00  0.00    +0.000 C 
ATOM      3  C   UNL     1      -0.095  13.284  18.272  0.00  0.00    +0.000 C 
ATOM      4  C   UNL     1       1.132  12.514  18.788  0.00  0.00    +0.000 C 
ATOM      5  C   UNL     1       1.179  11.117  18.206  0.00  0.00    +0.000 C 
ATOM      6  C   UNL     1       2.583  10.532  18.098  0.00  0.00    +0.000 C 
ATOM      7  C   UNL     1       2.253   9.074  17.816  0.00  0.00    +0.000 C 
ATOM      8  C   UNL     1       1.129   8.793  18.828  0.00  0.00    +0.000 C 
ATOM      9  N   UNL     1       0.437  10.118  18.969  0.00  0.00    +0.000 N 
ATOM     10  C   UNL     1      -0.952  10.207  19.063  0.00  0.00    +0.000 C 
ATOM     11  O   UNL     1      -1.666   9.236  18.810  0.00  0.00    +0.000 OA
ENDROOT
BRANCH   1  14
ATOM     12  C   UNL     1      -2.066  13.200  21.322  0.00  0.00    +0.000 C 
ATOM     13  O   UNL     1      -3.193  13.453  20.902  0.00  0.00    +0.000 OA
ATOM     14  N   UNL     1      -1.219  12.286  20.694  0.00  0.00    +0.000 N 
ATOM     15  H   UNL     1      -0.465  11.910  21.250  0.00  0.00    +0.000 HD
BRANCH  12  17
ATOM     16  C   UNL     1      -0.728  15.229  22.088  0.00  0.00    +0.000 C 
ATOM     17  C   UNL     1      -1.452  13.956  22.532  0.00  0.00    +0.000 C 
BRANCH  17  18
ATOM     18  N   UNL     1      -0.471  13.098  23.231  0.00  0.00    +0.000 NA
ATOM     19  H   UNL     1      -0.870  12.807  24.127  0.00  0.00    +0.000 HD
ATOM     20  H   UNL     1       0.360  13.636  23.459  0.00  0.00    +0.000 HD
ENDBRANCH  17  18
ENDBRANCH  12  17
ENDBRANCH   1  14
BRANCH   8  21
ATOM     21  C   UNL     1       1.771   8.148  20.103  0.00  0.00    +0.000 C 
ATOM     22  O   UNL     1       1.821   8.771  21.171  0.00  0.00    +0.000 OA
ATOM     23  N   UNL     1       2.456   6.973  20.082  0.00  0.00    +0.000 N 
ATOM     24  H   UNL     1       2.899   6.747  20.962  0.00  0.00    +0.000 HD
BRANCH  23  25
ATOM     25  C   UNL     1       2.750   6.109  18.971  0.00  0.00    +0.000 C 
BRANCH  25  26
ATOM     26  C   UNL     1       4.212   6.128  18.529  0.00  0.00    +0.000 A 
ATOM     27  C   UNL     1       4.618   6.930  17.445  0.00  0.00    +0.000 A 
ATOM     28  C   UNL     1       5.957   7.007  17.057  0.00  0.00    +0.000 A 
ATOM     29  C   UNL     1       6.934   6.337  17.785  0.00  0.00    +0.000 A 
ATOM     30  C   UNL     1       6.573   5.607  18.911  0.00  0.00    +0.000 A 
ATOM     31  C   UNL     1       5.228   5.497  19.274  0.00  0.00    +0.000 A 
ENDBRANCH  25  26
BRANCH  25  32
ATOM     32  C   UNL     1       2.049   4.768  19.159  0.00  0.00    +0.000 A 
ATOM     33  C   UNL     1       1.785   4.323  20.474  0.00  0.00    +0.000 A 
ATOM     34  C   UNL     1       1.011   3.186  20.706  0.00  0.00    +0.000 A 
ATOM     35  C   UNL     1       0.535   2.451  19.626  0.00  0.00    +0.000 A 
ATOM     36  C   UNL     1       0.850   2.839  18.325  0.00  0.00    +0.000 A 
ATOM     37  C   UNL     1       1.618   3.984  18.093  0.00  0.00    +0.000 A 
ENDBRANCH  25  32
ENDBRANCH  23  25
ENDBRANCH   8  21
TORSDOF 7
ENDMDL
MODEL 6
REMARK VINA RESULT:      -7.1      1.820      4.472
REMARK  Name = 
REMARK  8 active torsions:
REMARK  status: ('A' for Active; 'I' for Inactive)
REMARK    1  A    between atoms: C_1  and  C_2
REMARK    2  A    between atoms: C_2  and  N_3
REMARK    3  A    between atoms: C_2  and  C_4
REMARK    4  A    between atoms: N_6  and  C_7
REMARK    5  A    between atoms: C_14  and  C_15
REMARK    6  A    between atoms: N_17  and  C_18
REMARK    7  A    between atoms: C_18  and  C_19
REMARK    8  A    between atoms: C_18  and  C_25
REMARK                            x       y       z     vdW  Elec       q    Type
REMARK                         _______ _______ _______ _____ _____    ______ ____
ROOT
ATOM      1  C   UNL     1      -0.419  12.045  20.500  0.00  0.00    +0.000 C 
ATOM      2  C   UNL     1      -0.347  12.002  22.025  0.00  0.00    +0.000 C 
ATOM      3  C   UNL     1      -1.063  10.783  22.627  0.00  0.00    +0.000 C 
ATOM      4  C   UNL     1      -0.873   9.456  21.875  0.00  0.00    +0.000 C 
ATOM      5  C   UNL     1       0.568   9.278  21.447  0.00  0.00    +0.000 C 
ATOM      6  C   UNL     1       1.004   7.823  21.309  0.00  0.00    +0.000 C 
ATOM      7  C   UNL     1       2.323   7.999  20.571  0.00  0.00    +0.000 C 
ATOM      8  C   UNL     1       1.959   9.039  19.498  0.00  0.00    +0.000 C 
ATOM      9  N   UNL     1       0.892   9.869  20.152  0.00  0.00    +0.000 N 
ATOM     10  C   UNL     1       0.846  11.253  19.989  0.00  0.00    +0.000 C 
ATOM     11  O   UNL     1       1.794  11.864  19.495  0.00  0.00    +0.000 OA
ENDROOT
BRANCH   1  14
ATOM     12  C   UNL     1      -2.175  11.911  18.701  0.00  0.00    +0.000 C 
ATOM     13  O   UNL     1      -1.421  12.389  17.855  0.00  0.00    +0.000 OA
ATOM     14  N   UNL     1      -1.776  11.680  20.017  0.00  0.00    +0.000 N 
ATOM     15  H   UNL     1      -2.325  11.020  20.549  0.00  0.00    +0.000 HD
BRANCH  12  17
ATOM     16  C   UNL     1      -3.907  11.430  16.895  0.00  0.00    +0.000 C 
ATOM     17  C   UNL     1      -3.669  11.617  18.395  0.00  0.00    +0.000 C 
BRANCH  17  18
ATOM     18  N   UNL     1      -4.518  12.739  18.852  0.00  0.00    +0.000 NA
ATOM     19  H   UNL     1      -5.292  12.360  19.404  0.00  0.00    +0.000 HD
ATOM     20  H   UNL     1      -4.945  13.197  18.053  0.00  0.00    +0.000 HD
ENDBRANCH  17  18
ENDBRANCH  12  17
ENDBRANCH   1  14
BRANCH   8  21
ATOM     21  C   UNL     1       1.604   8.273  18.179  0.00  0.00    +0.000 C 
ATOM     22  O   UNL     1       0.804   8.751  17.365  0.00  0.00    +0.000 OA
ATOM     23  N   UNL     1       1.995   6.994  17.928  0.00  0.00    +0.000 N 
ATOM     24  H   UNL     1       1.596   6.607  17.084  0.00  0.00    +0.000 HD
BRANCH  23  25
ATOM     25  C   UNL     1       2.756   6.096  18.753  0.00  0.00    +0.000 C 
BRANCH  25  26
ATOM     26  C   UNL     1       2.049   4.779  19.068  0.00  0.00    +0.000 A 
ATOM     27  C   UNL     1       1.975   3.761  18.097  0.00  0.00    +0.000 A 
ATOM     28  C   UNL     1       1.382   2.528  18.379  0.00  0.00    +0.000 A 
ATOM     29  C   UNL     1       0.906   2.258  19.658  0.00  0.00    +0.000 A 
ATOM     30  C   UNL     1       1.043   3.213  20.658  0.00  0.00    +0.000 A 
ATOM     31  C   UNL     1       1.599   4.461  20.364  0.00  0.00    +0.000 A 
ENDBRANCH  25  26
BRANCH  25  32
ATOM     32  C   UNL     1       4.206   6.065  18.282  0.00  0.00    +0.000 A 
ATOM     33  C   UNL     1       4.536   6.710  17.068  0.00  0.00    +0.000 A 
ATOM     34  C   UNL     1       5.863   6.850  16.667  0.00  0.00    +0.000 A 
ATOM     35  C   UNL     1       6.876   6.303  17.448  0.00  0.00    +0.000 A 
ATOM     36  C   UNL     1       6.558   5.602  18.610  0.00  0.00    +0.000 A 
ATOM     37  C   UNL     1       5.227   5.469  19.016  0.00  0.00    +0.000 A 
ENDBRANCH  25  32
ENDBRANCH  23  25
ENDBRANCH   8  21
TORSDOF 7
ENDMDL
MODEL 7
REMARK VINA RESULT:      -7.1      3.457      6.836
REMARK  Name = 
REMARK  8 active torsions:
REMARK  status: ('A' for Active; 'I' for Inactive)
REMARK    1  A    between atoms: C_1  and  C_2
REMARK    2  A    between atoms: C_2  and  N_3
REMARK    3  A    between atoms: C_2  and  C_4
REMARK    4  A    between atoms: N_6  and  C_7
REMARK    5  A    between atoms: C_14  and  C_15
REMARK    6  A    between atoms: N_17  and  C_18
REMARK    7  A    between atoms: C_18  and  C_19
REMARK    8  A    between atoms: C_18  and  C_25
REMARK                            x       y       z     vdW  Elec       q    Type
REMARK                         _______ _______ _______ _____ _____    ______ ____
ROOT
ATOM      1  C   UNL     1      -3.896  14.101  21.128  0.00  0.00    +0.000 C 
ATOM      2  C   UNL     1      -5.333  13.836  21.575  0.00  0.00    +0.000 C 
ATOM      3  C   UNL     1      -6.367  14.122  20.475  0.00  0.00    +0.000 C 
ATOM      4  C   UNL     1      -5.976  13.677  19.057  0.00  0.00    +0.000 C 
ATOM      5  C   UNL     1      -5.340  12.303  19.076  0.00  0.00    +0.000 C 
ATOM      6  C   UNL     1      -5.515  11.514  17.783  0.00  0.00    +0.000 C 
ATOM      7  C   UNL     1      -4.515  10.390  18.008  0.00  0.00    +0.000 C 
ATOM      8  C   UNL     1      -3.295  11.145  18.560  0.00  0.00    +0.000 C 
ATOM      9  N   UNL     1      -3.896  12.308  19.295  0.00  0.00    +0.000 N 
ATOM     10  C   UNL     1      -3.380  12.742  20.516  0.00  0.00    +0.000 C 
ATOM     11  O   UNL     1      -2.567  12.058  21.138  0.00  0.00    +0.000 OA
ENDROOT
BRANCH   1  14
ATOM     12  C   UNL     1      -2.815  16.311  20.596  0.00  0.00    +0.000 C 
ATOM     13  O   UNL     1      -1.944  16.151  21.449  0.00  0.00    +0.000 OA
ATOM     14  N   UNL     1      -3.802  15.359  20.344  0.00  0.00    +0.000 N 
ATOM     15  H   UNL     1      -4.271  15.417  19.452  0.00  0.00    +0.000 HD
BRANCH  12  17
ATOM     16  C   UNL     1      -4.361  17.821  19.247  0.00  0.00    +0.000 C 
ATOM     17  C   UNL     1      -2.946  17.637  19.797  0.00  0.00    +0.000 C 
BRANCH  17  18
ATOM     18  N   UNL     1      -2.011  17.641  18.651  0.00  0.00    +0.000 NA
ATOM     19  H   UNL     1      -1.273  18.327  18.833  0.00  0.00    +0.000 HD
ATOM     20  H   UNL     1      -2.489  17.963  17.815  0.00  0.00    +0.000 HD
ENDBRANCH  17  18
ENDBRANCH  12  17
ENDBRANCH   1  14
BRANCH   8  21
ATOM     21  C   UNL     1      -2.324  11.440  17.366  0.00  0.00    +0.000 C 
ATOM     22  O   UNL     1      -2.709  11.326  16.195  0.00  0.00    +0.000 OA
ATOM     23  N   UNL     1      -0.990  11.658  17.521  0.00  0.00    +0.000 N 
ATOM     24  H   UNL     1      -0.487  11.725  16.648  0.00  0.00    +0.000 HD
BRANCH  23  25
ATOM     25  C   UNL     1      -0.201  11.656  18.724  0.00  0.00    +0.000 C 
BRANCH  25  26
ATOM     26  C   UNL     1       0.490  10.326  19.019  0.00  0.00    +0.000 A 
ATOM     27  C   UNL     1       1.264   9.691  18.029  0.00  0.00    +0.000 A 
ATOM     28  C   UNL     1       1.950   8.503  18.291  0.00  0.00    +0.000 A 
ATOM     29  C   UNL     1       1.934   7.955  19.570  0.00  0.00    +0.000 A 
ATOM     30  C   UNL     1       1.248   8.606  20.588  0.00  0.00    +0.000 A 
ATOM     31  C   UNL     1       0.528   9.772  20.314  0.00  0.00    +0.000 A 
ENDBRANCH  25  26
BRANCH  25  32
ATOM     32  C   UNL     1       0.603  12.947  18.815  0.00  0.00    +0.000 A 
ATOM     33  C   UNL     1       2.009  12.879  18.680  0.00  0.00    +0.000 A 
ATOM     34  C   UNL     1       2.780  14.037  18.599  0.00  0.00    +0.000 A 
ATOM     35  C   UNL     1       2.162  15.279  18.702  0.00  0.00    +0.000 A 
ATOM     36  C   UNL     1       0.786  15.358  18.908  0.00  0.00    +0.000 A 
ATOM     37  C   UNL     1       0.012  14.196  18.981  0.00  0.00    +0.000 A 
ENDBRANCH  25  32
ENDBRANCH  23  25
ENDBRANCH   8  21
TORSDOF 7
ENDMDL
MODEL 8
REMARK VINA RESULT:      -7.1      1.854      4.522
REMARK  Name = 
REMARK  8 active torsions:
REMARK  status: ('A' for Active; 'I' for Inactive)
REMARK    1  A    between atoms: C_1  and  C_2
REMARK    2  A    between atoms: C_2  and  N_3
REMARK    3  A    between atoms: C_2  and  C_4
REMARK    4  A    between atoms: N_6  and  C_7
REMARK    5  A    between atoms: C_14  and  C_15
REMARK    6  A    between atoms: N_17  and  C_18
REMARK    7  A    between atoms: C_18  and  C_19
REMARK    8  A    between atoms: C_18  and  C_25
REMARK                            x       y       z     vdW  Elec       q    Type
REMARK                         _______ _______ _______ _____ _____    ______ ____
ROOT
ATOM      1  C   UNL     1      -0.517  12.255  20.314  0.00  0.00    +0.000 C 
ATOM      2  C   UNL     1      -0.427  12.282  21.839  0.00  0.00    +0.000 C 
ATOM      3  C   UNL     1      -1.115  11.080  22.504  0.00  0.00    +0.000 C 
ATOM      4  C   UNL     1      -0.911   9.724  21.810  0.00  0.00    +0.000 C 
ATOM      5  C   UNL     1       0.528   9.550  21.372  0.00  0.00    +0.000 C 
ATOM      6  C   UNL     1       0.988   8.099  21.295  0.00  0.00    +0.000 C 
ATOM      7  C   UNL     1       2.295   8.263  20.534  0.00  0.00    +0.000 C 
ATOM      8  C   UNL     1       1.901   9.247  19.420  0.00  0.00    +0.000 C 
ATOM      9  N   UNL     1       0.828  10.087  20.048  0.00  0.00    +0.000 N 
ATOM     10  C   UNL     1       0.755  11.462  19.824  0.00  0.00    +0.000 C 
ATOM     11  O   UNL     1       1.688  12.066  19.292  0.00  0.00    +0.000 OA
ENDROOT
BRANCH   1  14
ATOM     12  C   UNL     1      -2.216  11.797  18.514  0.00  0.00    +0.000 C 
ATOM     13  O   UNL     1      -1.413  12.048  17.618  0.00  0.00    +0.000 OA
ATOM     14  N   UNL     1      -1.873  11.846  19.865  0.00  0.00    +0.000 N 
ATOM     15  H   UNL     1      -2.470  11.342  20.503  0.00  0.00    +0.000 HD
BRANCH  12  17
ATOM     16  C   UNL     1      -3.969  10.000  18.078  0.00  0.00    +0.000 C 
ATOM     17  C   UNL     1      -3.712  11.502  18.216  0.00  0.00    +0.000 C 
BRANCH  17  18
ATOM     18  N   UNL     1      -4.122  12.150  16.951  0.00  0.00    +0.000 NA
ATOM     19  H   UNL     1      -5.139  12.257  16.953  0.00  0.00    +0.000 HD
ATOM     20  H   UNL     1      -3.908  11.542  16.166  0.00  0.00    +0.000 HD
ENDBRANCH  17  18
ENDBRANCH  12  17
ENDBRANCH   1  14
BRANCH   8  21
ATOM     21  C   UNL     1       1.544   8.416  18.140  0.00  0.00    +0.000 C 
ATOM     22  O   UNL     1       0.701   8.827  17.333  0.00  0.00    +0.000 OA
ATOM     23  N   UNL     1       1.984   7.147  17.926  0.00  0.00    +0.000 N 
ATOM     24  H   UNL     1       1.580   6.710  17.109  0.00  0.00    +0.000 HD
BRANCH  23  25
ATOM     25  C   UNL     1       2.807   6.315  18.761  0.00  0.00    +0.000 C 
BRANCH  25  26
ATOM     26  C   UNL     1       2.118   5.045  19.258  0.00  0.00    +0.000 A 
ATOM     27  C   UNL     1       1.621   4.100  18.339  0.00  0.00    +0.000 A 
ATOM     28  C   UNL     1       1.035   2.906  18.768  0.00  0.00    +0.000 A 
ATOM     29  C   UNL     1       0.993   2.597  20.124  0.00  0.00    +0.000 A 
ATOM     30  C   UNL     1       1.553   3.472  21.046  0.00  0.00    +0.000 A 
ATOM     31  C   UNL     1       2.101   4.685  20.620  0.00  0.00    +0.000 A 
ENDBRANCH  25  26
BRANCH  25  32
ATOM     32  C   UNL     1       4.209   6.215  18.170  0.00  0.00    +0.000 A 
ATOM     33  C   UNL     1       5.197   5.504  18.889  0.00  0.00    +0.000 A 
ATOM     34  C   UNL     1       6.447   5.247  18.328  0.00  0.00    +0.000 A 
ATOM     35  C   UNL     1       6.745   5.742  17.063  0.00  0.00    +0.000 A 
ATOM     36  C   UNL     1       5.805   6.507  16.375  0.00  0.00    +0.000 A 
ATOM     37  C   UNL     1       4.549   6.757  16.934  0.00  0.00    +0.000 A 
ENDBRANCH  25  32
ENDBRANCH  23  25
ENDBRANCH   8  21
TORSDOF 7
ENDMDL
MODEL 9
REMARK VINA RESULT:      -6.9      4.435      7.445
REMARK  Name = 
REMARK  8 active torsions:
REMARK  status: ('A' for Active; 'I' for Inactive)
REMARK    1  A    between atoms: C_1  and  C_2
REMARK    2  A    between atoms: C_2  and  N_3
REMARK    3  A    between atoms: C_2  and  C_4
REMARK    4  A    between atoms: N_6  and  C_7
REMARK    5  A    between atoms: C_14  and  C_15
REMARK    6  A    between atoms: N_17  and  C_18
REMARK    7  A    between atoms: C_18  and  C_19
REMARK    8  A    between atoms: C_18  and  C_25
REMARK                            x       y       z     vdW  Elec       q    Type
REMARK                         _______ _______ _______ _____ _____    ______ ____
ROOT
ATOM      1  C   UNL     1       4.505  15.575  21.285  0.00  0.00    +0.000 C 
ATOM      2  C   UNL     1       3.811  16.679  22.081  0.00  0.00    +0.000 C 
ATOM      3  C   UNL     1       3.097  17.706  21.189  0.00  0.00    +0.000 C 
ATOM      4  C   UNL     1       2.344  17.131  19.978  0.00  0.00    +0.000 C 
ATOM      5  C   UNL     1       1.578  15.882  20.358  0.00  0.00    +0.000 C 
ATOM      6  C   UNL     1       0.344  15.620  19.501  0.00  0.00    +0.000 C 
ATOM      7  C   UNL     1       0.027  14.188  19.905  0.00  0.00    +0.000 C 
ATOM      8  C   UNL     1       1.416  13.529  19.886  0.00  0.00    +0.000 C 
ATOM      9  N   UNL     1       2.347  14.645  20.260  0.00  0.00    +0.000 N 
ATOM     10  C   UNL     1       3.432  14.433  21.110  0.00  0.00    +0.000 C 
ATOM     11  O   UNL     1       3.536  13.389  21.754  0.00  0.00    +0.000 OA
ENDROOT
BRANCH   1  14
ATOM     12  C   UNL     1       6.497  15.729  19.753  0.00  0.00    +0.000 C 
ATOM     13  O   UNL     1       7.112  14.867  20.379  0.00  0.00    +0.000 OA
ATOM     14  N   UNL     1       5.208  16.131  20.099  0.00  0.00    +0.000 N 
ATOM     15  H   UNL     1       4.669  16.593  19.382  0.00  0.00    +0.000 HD
BRANCH  12  17
ATOM     16  C   UNL     1       8.419  15.821  18.083  0.00  0.00    +0.000 C 
ATOM     17  C   UNL     1       7.150  16.513  18.582  0.00  0.00    +0.000 C 
BRANCH  17  18
ATOM     18  N   UNL     1       7.520  17.877  19.019  0.00  0.00    +0.000 NA
ATOM     19  H   UNL     1       8.350  17.815  19.615  0.00  0.00    +0.000 HD
ATOM     20  H   UNL     1       6.786  18.264  19.604  0.00  0.00    +0.000 HD
ENDBRANCH  17  18
ENDBRANCH  12  17
ENDBRANCH   1  14
BRANCH   8  21
ATOM     21  C   UNL     1       1.606  12.835  18.493  0.00  0.00    +0.000 C 
ATOM     22  O   UNL     1       2.184  13.420  17.568  0.00  0.00    +0.000 OA
ATOM     23  N   UNL     1       1.013  11.658  18.156  0.00  0.00    +0.000 N 
ATOM     24  H   UNL     1       1.147  11.399  17.189  0.00  0.00    +0.000 HD
BRANCH  23  25
ATOM     25  C   UNL     1       0.124  10.833  18.929  0.00  0.00    +0.000 C 
BRANCH  25  26
ATOM     26  C   UNL     1      -1.314  10.803  18.412  0.00  0.00    +0.000 A 
ATOM     27  C   UNL     1      -2.288  11.653  18.971  0.00  0.00    +0.000 A 
ATOM     28  C   UNL     1      -3.595  11.683  18.479  0.00  0.00    +0.000 A 
ATOM     29  C   UNL     1      -3.944  10.915  17.373  0.00  0.00    +0.000 A 
ATOM     30  C   UNL     1      -2.980  10.132  16.749  0.00  0.00    +0.000 A 
ATOM     31  C   UNL     1      -1.684  10.071  17.267  0.00  0.00    +0.000 A 
ENDBRANCH  25  26
BRANCH  25  32
ATOM     32  C   UNL     1       0.813   9.519  19.280  0.00  0.00    +0.000 A 
ATOM     33  C   UNL     1       1.586   8.875  18.287  0.00  0.00    +0.000 A 
ATOM     34  C   UNL     1       2.364   7.759  18.594  0.00  0.00    +0.000 A 
ATOM     35  C   UNL     1       2.338   7.241  19.885  0.00  0.00    +0.000 A 
ATOM     36  C   UNL     1       1.524   7.824  20.854  0.00  0.00    +0.000 A 
ATOM     37  C   UNL     1       0.751   8.948  20.548  0.00  0.00    +0.000 A 
ENDBRANCH  25  32
ENDBRANCH  23  25
ENDBRANCH   8  21
TORSDOF 7
ENDMDL
