MODEL 1
REMARK VINA RESULT:      -8.3      0.000      0.000
REMARK  Name = 
REMARK  0 active torsions:
REMARK  status: ('A' for Active; 'I' for Inactive)
REMARK                            x       y       z     vdW  Elec       q    Type
REMARK                         _______ _______ _______ _____ _____    ______ ____
ROOT
ATOM      1  O   UNL     1       6.732   4.945  19.056  0.00  0.00    +0.000 OA
ATOM      2  C   UNL     1       6.679   4.752  17.850  0.00  0.00    +0.000 C 
ATOM      3  N   UNL     1       7.715   5.025  16.971  0.00  0.00    +0.000 N 
ATOM      4  C   UNL     1       7.357   4.570  15.708  0.00  0.00    +0.000 A 
ATOM      5  C   UNL     1       7.499   5.393  14.596  0.00  0.00    +0.000 A 
ATOM      6  C   UNL     1       6.740   5.083  13.470  0.00  0.00    +0.000 A 
ATOM      7  C   UNL     1       6.033   3.871  13.428  0.00  0.00    +0.000 A 
ATOM      8 BR   UNL     1       5.245   3.350  11.789  0.00  0.00    +0.000 Br
ATOM      9  C   UNL     1       5.861   3.076  14.577  0.00  0.00    +0.000 A 
ATOM     10  C   UNL     1       6.339   3.568  15.794  0.00  0.00    +0.000 A 
ATOM     11  C   UNL     1       5.470   4.188  16.956  0.00  0.00    +0.000 C 
ATOM     12  N   UNL     1       4.788   5.285  16.115  0.00  0.00    +0.000 NA
ATOM     13  C   UNL     1       4.494   6.481  16.854  0.00  0.00    +0.000 C 
ATOM     14  C   UNL     1       3.437   6.196  17.907  0.00  0.00    +0.000 C 
ATOM     15  C   UNL     1       3.467   4.770  18.369  0.00  0.00    +0.000 A 
ATOM     16  C   UNL     1       4.344   3.778  17.896  0.00  0.00    +0.000 A 
ATOM     17  N   UNL     1       4.120   2.678  18.719  0.00  0.00    +0.000 N 
ATOM     18  C   UNL     1       3.094   2.972  19.630  0.00  0.00    +0.000 A 
ATOM     19  C   UNL     1       2.514   2.220  20.668  0.00  0.00    +0.000 A 
ATOM     20  C   UNL     1       1.514   2.828  21.450  0.00  0.00    +0.000 A 
ATOM     21  C   UNL     1       1.099   4.119  21.208  0.00  0.00    +0.000 A 
ATOM     22  C   UNL     1       1.683   4.869  20.191  0.00  0.00    +0.000 A 
ATOM     23  C   UNL     1       2.679   4.266  19.403  0.00  0.00    +0.000 A 
ATOM     24  H   UNL     1       8.432   5.694  17.203  0.00  0.00    +0.000 HD
ATOM     25  H   UNL     1       3.940   4.846  15.755  0.00  0.00    +0.000 HD
ATOM     26  H   UNL     1       4.678   1.832  18.727  0.00  0.00    +0.000 HD
ENDROOT
TORSDOF 0
ENDMDL
MODEL 2
REMARK VINA RESULT:      -7.3      8.478     11.136
REMARK  Name = 
REMARK  0 active torsions:
REMARK  status: ('A' for Active; 'I' for Inactive)
REMARK                            x       y       z     vdW  Elec       q    Type
REMARK                         _______ _______ _______ _____ _____    ______ ____
ROOT
ATOM      1  O   UNL     1       1.434  12.851  21.496  0.00  0.00    +0.000 OA
ATOM      2  C   UNL     1       0.221  12.981  21.573  0.00  0.00    +0.000 C 
ATOM      3  N   UNL     1      -0.411  14.042  22.202  0.00  0.00    +0.000 N 
ATOM      4  C   UNL     1      -1.780  13.932  21.991  0.00  0.00    +0.000 A 
ATOM      5  C   UNL     1      -2.669  14.045  23.054  0.00  0.00    +0.000 A 
ATOM      6  C   UNL     1      -3.939  13.501  22.885  0.00  0.00    +0.000 A 
ATOM      7  C   UNL     1      -4.333  13.052  21.615  0.00  0.00    +0.000 A 
ATOM      8 BR   UNL     1      -6.147  12.581  21.353  0.00  0.00    +0.000 Br
ATOM      9  C   UNL     1      -3.407  12.900  20.565  0.00  0.00    +0.000 A 
ATOM     10  C   UNL     1      -2.057  13.125  20.842  0.00  0.00    +0.000 A 
ATOM     11  C   UNL     1      -0.947  12.020  21.035  0.00  0.00    +0.000 C 
ATOM     12  N   UNL     1      -1.650  11.244  22.166  0.00  0.00    +0.000 NA
ATOM     13  C   UNL     1      -0.744  10.638  23.101  0.00  0.00    +0.000 C 
ATOM     14  C   UNL     1       0.051   9.538  22.418  0.00  0.00    +0.000 C 
ATOM     15  C   UNL     1       0.218   9.788  20.949  0.00  0.00    +0.000 A 
ATOM     16  C   UNL     1      -0.298  10.890  20.246  0.00  0.00    +0.000 A 
ATOM     17  N   UNL     1       0.243  10.787  18.968  0.00  0.00    +0.000 N 
ATOM     18  C   UNL     1       1.021   9.621  18.877  0.00  0.00    +0.000 A 
ATOM     19  C   UNL     1       1.782   9.079  17.828  0.00  0.00    +0.000 A 
ATOM     20  C   UNL     1       2.502   7.894  18.073  0.00  0.00    +0.000 A 
ATOM     21  C   UNL     1       2.460   7.268  19.300  0.00  0.00    +0.000 A 
ATOM     22  C   UNL     1       1.717   7.814  20.344  0.00  0.00    +0.000 A 
ATOM     23  C   UNL     1       0.993   8.994  20.104  0.00  0.00    +0.000 A 
ATOM     24  H   UNL     1       0.061  14.583  22.910  0.00  0.00    +0.000 HD
ATOM     25  H   UNL     1      -2.220  10.546  21.687  0.00  0.00    +0.000 HD
ATOM     26  H   UNL     1       0.171  11.493  18.244  0.00  0.00    +0.000 HD
ENDROOT
TORSDOF 0
ENDMDL
MODEL 3
REMARK VINA RESULT:      -6.8     10.463     12.080
REMARK  Name = 
REMARK  0 active torsions:
REMARK  status: ('A' for Active; 'I' for Inactive)
REMARK                            x       y       z     vdW  Elec       q    Type
REMARK                         _______ _______ _______ _____ _____    ______ ____
ROOT
ATOM      1  O   UNL     1       8.740  16.872  18.906  0.00  0.00    +0.000 OA
ATOM      2  C   UNL     1       7.561  16.550  18.912  0.00  0.00    +0.000 C 
ATOM      3  N   UNL     1       6.508  17.450  18.951  0.00  0.00    +0.000 N 
ATOM      4  C   UNL     1       5.317  16.746  18.820  0.00  0.00    +0.000 A 
ATOM      5  C   UNL     1       4.263  16.974  19.697  0.00  0.00    +0.000 A 
ATOM      6  C   UNL     1       3.300  15.975  19.813  0.00  0.00    +0.000 A 
ATOM      7  C   UNL     1       3.317  14.894  18.917  0.00  0.00    +0.000 A 
ATOM      8 BR   UNL     1       1.844  13.707  18.916  0.00  0.00    +0.000 Br
ATOM      9  C   UNL     1       4.416  14.655  18.070  0.00  0.00    +0.000 A 
ATOM     10  C   UNL     1       5.539  15.474  18.203  0.00  0.00    +0.000 A 
ATOM     11  C   UNL     1       6.899  15.087  18.905  0.00  0.00    +0.000 C 
ATOM     12  N   UNL     1       6.300  14.696  20.270  0.00  0.00    +0.000 NA
ATOM     13  C   UNL     1       7.170  14.966  21.381  0.00  0.00    +0.000 C 
ATOM     14  C   UNL     1       8.396  14.073  21.312  0.00  0.00    +0.000 C 
ATOM     15  C   UNL     1       8.736  13.683  19.905  0.00  0.00    +0.000 A 
ATOM     16  C   UNL     1       8.021  14.067  18.758  0.00  0.00    +0.000 A 
ATOM     17  N   UNL     1       8.789  13.618  17.688  0.00  0.00    +0.000 N 
ATOM     18  C   UNL     1       9.913  12.929  18.170  0.00  0.00    +0.000 A 
ATOM     19  C   UNL     1      10.991  12.310  17.512  0.00  0.00    +0.000 A 
ATOM     20  C   UNL     1      12.006  11.733  18.298  0.00  0.00    +0.000 A 
ATOM     21  C   UNL     1      11.951  11.758  19.675  0.00  0.00    +0.000 A 
ATOM     22  C   UNL     1      10.891  12.384  20.327  0.00  0.00    +0.000 A 
ATOM     23  C   UNL     1       9.873  12.958  19.548  0.00  0.00    +0.000 A 
ATOM     24  H   UNL     1       6.634  18.383  19.310  0.00  0.00    +0.000 HD
ATOM     25  H   UNL     1       6.094  13.700  20.188  0.00  0.00    +0.000 HD
ATOM     26  H   UNL     1       8.619  13.839  16.713  0.00  0.00    +0.000 HD
ENDROOT
TORSDOF 0
ENDMDL
MODEL 4
REMARK VINA RESULT:      -6.7      6.930      9.383
REMARK  Name = 
REMARK  0 active torsions:
REMARK  status: ('A' for Active; 'I' for Inactive)
REMARK                            x       y       z     vdW  Elec       q    Type
REMARK                         _______ _______ _______ _____ _____    ______ ____
ROOT
ATOM      1  O   UNL     1       2.155  11.897  20.118  0.00  0.00    +0.000 OA
ATOM      2  C   UNL     1       0.962  12.000  19.870  0.00  0.00    +0.000 C 
ATOM      3  N   UNL     1       0.198  13.117  20.170  0.00  0.00    +0.000 N 
ATOM      4  C   UNL     1      -1.074  12.940  19.638  0.00  0.00    +0.000 A 
ATOM      5  C   UNL     1      -2.202  13.167  20.419  0.00  0.00    +0.000 A 
ATOM      6  C   UNL     1      -3.392  12.569  20.013  0.00  0.00    +0.000 A 
ATOM      7  C   UNL     1      -3.455  11.944  18.757  0.00  0.00    +0.000 A 
ATOM      8 BR   UNL     1      -5.147  11.390  18.116  0.00  0.00    +0.000 Br
ATOM      9  C   UNL     1      -2.295  11.681  18.004  0.00  0.00    +0.000 A 
ATOM     10  C   UNL     1      -1.057  11.980  18.577  0.00  0.00    +0.000 A 
ATOM     11  C   UNL     1      -0.038  10.943  19.191  0.00  0.00    +0.000 C 
ATOM     12  N   UNL     1      -1.008  10.304  20.204  0.00  0.00    +0.000 NA
ATOM     13  C   UNL     1      -0.371   9.854  21.410  0.00  0.00    +0.000 C 
ATOM     14  C   UNL     1       0.565   8.697  21.104  0.00  0.00    +0.000 C 
ATOM     15  C   UNL     1       1.098   8.754  19.705  0.00  0.00    +0.000 A 
ATOM     16  C   UNL     1       0.783   9.738  18.752  0.00  0.00    +0.000 A 
ATOM     17  N   UNL     1       1.629   9.481  17.676  0.00  0.00    +0.000 N 
ATOM     18  C   UNL     1       2.398   8.337  17.943  0.00  0.00    +0.000 A 
ATOM     19  C   UNL     1       3.397   7.681  17.202  0.00  0.00    +0.000 A 
ATOM     20  C   UNL     1       4.024   6.561  17.779  0.00  0.00    +0.000 A 
ATOM     21  C   UNL     1       3.670   6.103  19.029  0.00  0.00    +0.000 A 
ATOM     22  C   UNL     1       2.691   6.761  19.770  0.00  0.00    +0.000 A 
ATOM     23  C   UNL     1       2.058   7.878  19.198  0.00  0.00    +0.000 A 
ATOM     24  H   UNL     1       0.478  13.761  20.893  0.00  0.00    +0.000 HD
ATOM     25  H   UNL     1      -1.442   9.532  19.697  0.00  0.00    +0.000 HD
ATOM     26  H   UNL     1       1.745  10.082  16.869  0.00  0.00    +0.000 HD
ENDROOT
TORSDOF 0
ENDMDL
MODEL 5
REMARK VINA RESULT:      -6.5      8.512     10.334
REMARK  Name = 
REMARK  0 active torsions:
REMARK  status: ('A' for Active; 'I' for Inactive)
REMARK                            x       y       z     vdW  Elec       q    Type
REMARK                         _______ _______ _______ _____ _____    ______ ____
ROOT
ATOM      1  O   UNL     1      -0.676  13.633  18.061  0.00  0.00    +0.000 OA
ATOM      2  C   UNL     1      -0.147  12.581  18.389  0.00  0.00    +0.000 C 
ATOM      3  N   UNL     1       1.133  12.203  18.016  0.00  0.00    +0.000 N 
ATOM      4  C   UNL     1       1.453  11.016  18.664  0.00  0.00    +0.000 A 
ATOM      5  C   UNL     1       1.984   9.946  17.954  0.00  0.00    +0.000 A 
ATOM      6  C   UNL     1       1.870   8.680  18.524  0.00  0.00    +0.000 A 
ATOM      7  C   UNL     1       1.418   8.559  19.848  0.00  0.00    +0.000 A 
ATOM      8 BR   UNL     1       1.540   6.867  20.685  0.00  0.00    +0.000 Br
ATOM      9  C   UNL     1       0.839   9.645  20.533  0.00  0.00    +0.000 A 
ATOM     10  C   UNL     1       0.642  10.836  19.830  0.00  0.00    +0.000 A 
ATOM     11  C   UNL     1      -0.732  11.372  19.269  0.00  0.00    +0.000 C 
ATOM     12  N   UNL     1      -1.084  10.133  18.422  0.00  0.00    +0.000 NA
ATOM     13  C   UNL     1      -1.830  10.439  17.234  0.00  0.00    +0.000 C 
ATOM     14  C   UNL     1      -3.207  10.964  17.603  0.00  0.00    +0.000 C 
ATOM     15  C   UNL     1      -3.214  11.645  18.939  0.00  0.00    +0.000 A 
ATOM     16  C   UNL     1      -2.102  11.789  19.786  0.00  0.00    +0.000 A 
ATOM     17  N   UNL     1      -2.538  12.620  20.814  0.00  0.00    +0.000 N 
ATOM     18  C   UNL     1      -3.896  12.927  20.629  0.00  0.00    +0.000 A 
ATOM     19  C   UNL     1      -4.787  13.729  21.363  0.00  0.00    +0.000 A 
ATOM     20  C   UNL     1      -6.101  13.876  20.880  0.00  0.00    +0.000 A 
ATOM     21  C   UNL     1      -6.517  13.246  19.727  0.00  0.00    +0.000 A 
ATOM     22  C   UNL     1      -5.631  12.463  18.992  0.00  0.00    +0.000 A 
ATOM     23  C   UNL     1      -4.319  12.310  19.471  0.00  0.00    +0.000 A 
ATOM     24  H   UNL     1       1.575  12.596  17.199  0.00  0.00    +0.000 HD
ATOM     25  H   UNL     1      -1.612   9.529  19.053  0.00  0.00    +0.000 HD
ATOM     26  H   UNL     1      -1.946  13.024  21.530  0.00  0.00    +0.000 HD
ENDROOT
TORSDOF 0
ENDMDL
MODEL 6
REMARK VINA RESULT:      -6.4     11.910     14.591
REMARK  Name = 
REMARK  0 active torsions:
REMARK  status: ('A' for Active; 'I' for Inactive)
REMARK                            x       y       z     vdW  Elec       q    Type
REMARK                         _______ _______ _______ _____ _____    ______ ____
ROOT
ATOM      1  O   UNL     1      -6.863  10.230  19.825  0.00  0.00    +0.000 OA
ATOM      2  C   UNL     1      -6.747  11.315  20.377  0.00  0.00    +0.000 C 
ATOM      3  N   UNL     1      -7.545  11.745  21.425  0.00  0.00    +0.000 N 
ATOM      4  C   UNL     1      -7.058  12.961  21.886  0.00  0.00    +0.000 A 
ATOM      5  C   UNL     1      -7.916  14.038  22.078  0.00  0.00    +0.000 A 
ATOM      6  C   UNL     1      -7.352  15.310  22.101  0.00  0.00    +0.000 A 
ATOM      7  C   UNL     1      -5.954  15.443  22.131  0.00  0.00    +0.000 A 
ATOM      8 BR   UNL     1      -5.224  17.160  22.444  0.00  0.00    +0.000 Br
ATOM      9  C   UNL     1      -5.102  14.349  21.886  0.00  0.00    +0.000 A 
ATOM     10  C   UNL     1      -5.684  13.133  21.522  0.00  0.00    +0.000 A 
ATOM     11  C   UNL     1      -5.727  12.517  20.070  0.00  0.00    +0.000 C 
ATOM     12  N   UNL     1      -6.407  13.715  19.379  0.00  0.00    +0.000 NA
ATOM     13  C   UNL     1      -7.259  13.343  18.284  0.00  0.00    +0.000 C 
ATOM     14  C   UNL     1      -6.429  12.762  17.152  0.00  0.00    +0.000 C 
ATOM     15  C   UNL     1      -5.170  12.115  17.646  0.00  0.00    +0.000 A 
ATOM     16  C   UNL     1      -4.762  12.047  18.989  0.00  0.00    +0.000 A 
ATOM     17  N   UNL     1      -3.641  11.223  18.983  0.00  0.00    +0.000 N 
ATOM     18  C   UNL     1      -3.339  10.846  17.665  0.00  0.00    +0.000 A 
ATOM     19  C   UNL     1      -2.335  10.021  17.129  0.00  0.00    +0.000 A 
ATOM     20  C   UNL     1      -2.329   9.799  15.739  0.00  0.00    +0.000 A 
ATOM     21  C   UNL     1      -3.269  10.378  14.915  0.00  0.00    +0.000 A 
ATOM     22  C   UNL     1      -4.272  11.184  15.447  0.00  0.00    +0.000 A 
ATOM     23  C   UNL     1      -4.281  11.412  16.833  0.00  0.00    +0.000 A 
ATOM     24  H   UNL     1      -8.462  11.353  21.576  0.00  0.00    +0.000 HD
ATOM     25  H   UNL     1      -5.637  14.309  19.071  0.00  0.00    +0.000 HD
ATOM     26  H   UNL     1      -3.173  10.867  19.809  0.00  0.00    +0.000 HD
ENDROOT
TORSDOF 0
ENDMDL
MODEL 7
REMARK VINA RESULT:      -6.3     11.363     13.951
REMARK  Name = 
REMARK  0 active torsions:
REMARK  status: ('A' for Active; 'I' for Inactive)
REMARK                            x       y       z     vdW  Elec       q    Type
REMARK                         _______ _______ _______ _____ _____    ______ ____
ROOT
ATOM      1  O   UNL     1      -4.593  12.270  22.280  0.00  0.00    +0.000 OA
ATOM      2  C   UNL     1      -4.221  13.228  22.943  0.00  0.00    +0.000 C 
ATOM      3  N   UNL     1      -5.067  14.203  23.446  0.00  0.00    +0.000 N 
ATOM      4  C   UNL     1      -4.326  15.063  24.248  0.00  0.00    +0.000 A 
ATOM      5  C   UNL     1      -4.429  16.440  24.088  0.00  0.00    +0.000 A 
ATOM      6  C   UNL     1      -3.382  17.220  24.572  0.00  0.00    +0.000 A 
ATOM      7  C   UNL     1      -2.387  16.624  25.363  0.00  0.00    +0.000 A 
ATOM      8 BR   UNL     1      -1.141  17.749  26.236  0.00  0.00    +0.000 Br
ATOM      9  C   UNL     1      -2.272  15.225  25.474  0.00  0.00    +0.000 A 
ATOM     10  C   UNL     1      -3.124  14.432  24.702  0.00  0.00    +0.000 A 
ATOM     11  C   UNL     1      -2.737  13.651  23.387  0.00  0.00    +0.000 C 
ATOM     12  N   UNL     1      -2.200  14.862  22.600  0.00  0.00    +0.000 NA
ATOM     13  C   UNL     1      -2.409  14.769  21.182  0.00  0.00    +0.000 C 
ATOM     14  C   UNL     1      -1.580  13.634  20.607  0.00  0.00    +0.000 C 
ATOM     15  C   UNL     1      -1.332  12.548  21.610  0.00  0.00    +0.000 A 
ATOM     16  C   UNL     1      -1.783  12.549  22.941  0.00  0.00    +0.000 A 
ATOM     17  N   UNL     1      -1.465  11.286  23.430  0.00  0.00    +0.000 N 
ATOM     18  C   UNL     1      -0.786  10.555  22.442  0.00  0.00    +0.000 A 
ATOM     19  C   UNL     1      -0.276   9.245  22.426  0.00  0.00    +0.000 A 
ATOM     20  C   UNL     1       0.324   8.780  21.240  0.00  0.00    +0.000 A 
ATOM     21  C   UNL     1       0.423   9.581  20.124  0.00  0.00    +0.000 A 
ATOM     22  C   UNL     1      -0.096  10.873  20.135  0.00  0.00    +0.000 A 
ATOM     23  C   UNL     1      -0.691  11.344  21.317  0.00  0.00    +0.000 A 
ATOM     24  H   UNL     1      -5.970  14.374  23.031  0.00  0.00    +0.000 HD
ATOM     25  H   UNL     1      -1.207  14.904  22.832  0.00  0.00    +0.000 HD
ATOM     26  H   UNL     1      -1.764  10.913  24.324  0.00  0.00    +0.000 HD
ENDROOT
TORSDOF 0
ENDMDL
MODEL 8
REMARK VINA RESULT:      -6.1     10.099     12.019
REMARK  Name = 
REMARK  0 active torsions:
REMARK  status: ('A' for Active; 'I' for Inactive)
REMARK                            x       y       z     vdW  Elec       q    Type
REMARK                         _______ _______ _______ _____ _____    ______ ____
ROOT
ATOM      1  O   UNL     1      -2.513  11.541  19.182  0.00  0.00    +0.000 OA
ATOM      2  C   UNL     1      -1.559  12.304  19.118  0.00  0.00    +0.000 C 
ATOM      3  N   UNL     1      -0.591  12.259  18.127  0.00  0.00    +0.000 N 
ATOM      4  C   UNL     1       0.265  13.341  18.293  0.00  0.00    +0.000 A 
ATOM      5  C   UNL     1       1.643  13.157  18.286  0.00  0.00    +0.000 A 
ATOM      6  C   UNL     1       2.423  14.145  18.882  0.00  0.00    +0.000 A 
ATOM      7  C   UNL     1       1.823  15.351  19.276  0.00  0.00    +0.000 A 
ATOM      8 BR   UNL     1       2.945  16.774  19.821  0.00  0.00    +0.000 Br
ATOM      9  C   UNL     1       0.423  15.500  19.322  0.00  0.00    +0.000 A 
ATOM     10  C   UNL     1      -0.366  14.382  19.046  0.00  0.00    +0.000 A 
ATOM     11  C   UNL     1      -1.135  13.498  20.103  0.00  0.00    +0.000 C 
ATOM     12  N   UNL     1       0.085  13.147  20.976  0.00  0.00    +0.000 NA
ATOM     13  C   UNL     1       0.003  11.850  21.590  0.00  0.00    +0.000 C 
ATOM     14  C   UNL     1      -1.124  11.826  22.607  0.00  0.00    +0.000 C 
ATOM     15  C   UNL     1      -2.218  12.793  22.266  0.00  0.00    +0.000 A 
ATOM     16  C   UNL     1      -2.229  13.650  21.152  0.00  0.00    +0.000 A 
ATOM     17  N   UNL     1      -3.496  14.227  21.156  0.00  0.00    +0.000 N 
ATOM     18  C   UNL     1      -4.216  13.778  22.274  0.00  0.00    +0.000 A 
ATOM     19  C   UNL     1      -5.524  14.041  22.717  0.00  0.00    +0.000 A 
ATOM     20  C   UNL     1      -5.977  13.384  23.877  0.00  0.00    +0.000 A 
ATOM     21  C   UNL     1      -5.167  12.514  24.573  0.00  0.00    +0.000 A 
ATOM     22  C   UNL     1      -3.876  12.242  24.125  0.00  0.00    +0.000 A 
ATOM     23  C   UNL     1      -3.417  12.898  22.971  0.00  0.00    +0.000 A 
ATOM     24  H   UNL     1      -0.420  11.414  17.605  0.00  0.00    +0.000 HD
ATOM     25  H   UNL     1       0.129  13.891  21.674  0.00  0.00    +0.000 HD
ATOM     26  H   UNL     1      -3.877  14.804  20.414  0.00  0.00    +0.000 HD
ENDROOT
TORSDOF 0
ENDMDL
MODEL 9
REMARK VINA RESULT:      -6.1     13.852     16.018
REMARK  Name = 
REMARK  0 active torsions:
REMARK  status: ('A' for Active; 'I' for Inactive)
REMARK                            x       y       z     vdW  Elec       q    Type
REMARK                         _______ _______ _______ _____ _____    ______ ____
ROOT
ATOM      1  O   UNL     1      -6.803  12.759  24.576  0.00  0.00    +0.000 OA
ATOM      2  C   UNL     1      -6.952  12.635  23.369  0.00  0.00    +0.000 C 
ATOM      3  N   UNL     1      -7.545  11.538  22.765  0.00  0.00    +0.000 N 
ATOM      4  C   UNL     1      -7.660  11.787  21.403  0.00  0.00    +0.000 A 
ATOM      5  C   UNL     1      -7.240  10.841  20.475  0.00  0.00    +0.000 A 
ATOM      6  C   UNL     1      -6.960  11.289  19.187  0.00  0.00    +0.000 A 
ATOM      7  C   UNL     1      -7.297  12.603  18.826  0.00  0.00    +0.000 A 
ATOM      8 BR   UNL     1      -7.167  13.094  17.004  0.00  0.00    +0.000 Br
ATOM      9  C   UNL     1      -7.675  13.560  19.789  0.00  0.00    +0.000 A 
ATOM     10  C   UNL     1      -7.622  13.193  21.135  0.00  0.00    +0.000 A 
ATOM     11  C   UNL     1      -6.516  13.619  22.177  0.00  0.00    +0.000 C 
ATOM     12  N   UNL     1      -5.302  13.096  21.385  0.00  0.00    +0.000 NA
ATOM     13  C   UNL     1      -4.226  12.631  22.216  0.00  0.00    +0.000 C 
ATOM     14  C   UNL     1      -3.620  13.793  22.982  0.00  0.00    +0.000 C 
ATOM     15  C   UNL     1      -4.611  14.891  23.227  0.00  0.00    +0.000 A 
ATOM     16  C   UNL     1      -5.950  14.888  22.801  0.00  0.00    +0.000 A 
ATOM     17  N   UNL     1      -6.518  16.014  23.391  0.00  0.00    +0.000 N 
ATOM     18  C   UNL     1      -5.536  16.714  24.111  0.00  0.00    +0.000 A 
ATOM     19  C   UNL     1      -5.597  17.884  24.889  0.00  0.00    +0.000 A 
ATOM     20  C   UNL     1      -4.422  18.314  25.534  0.00  0.00    +0.000 A 
ATOM     21  C   UNL     1      -3.237  17.622  25.405  0.00  0.00    +0.000 A 
ATOM     22  C   UNL     1      -3.181  16.455  24.646  0.00  0.00    +0.000 A 
ATOM     23  C   UNL     1      -4.349  16.024  23.997  0.00  0.00    +0.000 A 
ATOM     24  H   UNL     1      -7.584  10.645  23.233  0.00  0.00    +0.000 HD
ATOM     25  H   UNL     1      -5.013  13.882  20.802  0.00  0.00    +0.000 HD
ATOM     26  H   UNL     1      -7.506  16.240  23.388  0.00  0.00    +0.000 HD
ENDROOT
TORSDOF 0
ENDMDL
