MODEL 1
REMARK VINA RESULT:      -5.6      0.000      0.000
REMARK  Name = 
REMARK  0 active torsions:
REMARK  status: ('A' for Active; 'I' for Inactive)
REMARK                            x       y       z     vdW  Elec       q    Type
REMARK                         _______ _______ _______ _____ _____    ______ ____
ROOT
ATOM      1  O   UNL     1       7.460   5.275  15.321  0.00  0.00    +0.000 OA
ATOM      2  S   UNL     1       5.916   5.450  15.541  0.00  0.00    +0.000 S 
ATOM      3  C   UNL     1       5.294   3.977  16.390  0.00  0.00    +0.000 C 
ATOM      4  C   UNL     1       3.973   4.153  17.109  0.00  0.00    +0.000 A 
ATOM      5  C   UNL     1       3.220   2.980  17.330  0.00  0.00    +0.000 A 
ATOM      6  C   UNL     1       2.008   3.013  18.015  0.00  0.00    +0.000 A 
ATOM      7  C   UNL     1       1.524   4.218  18.500  0.00  0.00    +0.000 A 
ATOM      8  C   UNL     1       2.262   5.386  18.310  0.00  0.00    +0.000 A 
ATOM      9  C   UNL     1       3.501   5.376  17.636  0.00  0.00    +0.000 A 
ATOM     10  C   UNL     1       4.177   6.725  17.471  0.00  0.00    +0.000 C 
ATOM     11  S   UNL     1       5.940   6.720  17.100  0.00  0.00    +0.000 S 
ENDROOT
TORSDOF 0
ENDMDL
MODEL 2
REMARK VINA RESULT:      -5.6      1.025      2.372
REMARK  Name = 
REMARK  0 active torsions:
REMARK  status: ('A' for Active; 'I' for Inactive)
REMARK                            x       y       z     vdW  Elec       q    Type
REMARK                         _______ _______ _______ _____ _____    ______ ____
ROOT
ATOM      1  O   UNL     1       7.652   7.362  16.698  0.00  0.00    +0.000 OA
ATOM      2  S   UNL     1       6.818   6.169  17.282  0.00  0.00    +0.000 S 
ATOM      3  C   UNL     1       5.090   6.695  17.411  0.00  0.00    +0.000 C 
ATOM      4  C   UNL     1       4.076   5.573  17.485  0.00  0.00    +0.000 A 
ATOM      5  C   UNL     1       2.836   5.889  18.082  0.00  0.00    +0.000 A 
ATOM      6  C   UNL     1       1.811   4.949  18.171  0.00  0.00    +0.000 A 
ATOM      7  C   UNL     1       2.001   3.675  17.659  0.00  0.00    +0.000 A 
ATOM      8  C   UNL     1       3.210   3.348  17.047  0.00  0.00    +0.000 A 
ATOM      9  C   UNL     1       4.257   4.287  16.928  0.00  0.00    +0.000 A 
ATOM     10  C   UNL     1       5.528   3.783  16.271  0.00  0.00    +0.000 C 
ATOM     11  S   UNL     1       6.671   5.022  15.636  0.00  0.00    +0.000 S 
ENDROOT
TORSDOF 0
ENDMDL
MODEL 3
REMARK VINA RESULT:      -5.6      1.784      2.102
REMARK  Name = 
REMARK  0 active torsions:
REMARK  status: ('A' for Active; 'I' for Inactive)
REMARK                            x       y       z     vdW  Elec       q    Type
REMARK                         _______ _______ _______ _____ _____    ______ ____
ROOT
ATOM      1  O   UNL     1       6.031   3.761  15.914  0.00  0.00    +0.000 OA
ATOM      2  S   UNL     1       4.860   4.438  16.709  0.00  0.00    +0.000 S 
ATOM      3  C   UNL     1       3.747   3.135  17.295  0.00  0.00    +0.000 C 
ATOM      4  C   UNL     1       2.856   3.520  18.457  0.00  0.00    +0.000 A 
ATOM      5  C   UNL     1       1.668   2.771  18.609  0.00  0.00    +0.000 A 
ATOM      6  C   UNL     1       0.789   3.008  19.664  0.00  0.00    +0.000 A 
ATOM      7  C   UNL     1       1.081   3.994  20.594  0.00  0.00    +0.000 A 
ATOM      8  C   UNL     1       2.259   4.731  20.474  0.00  0.00    +0.000 A 
ATOM      9  C   UNL     1       3.174   4.498  19.426  0.00  0.00    +0.000 A 
ATOM     10  C   UNL     1       4.395   5.398  19.399  0.00  0.00    +0.000 C 
ATOM     11  S   UNL     1       5.810   4.834  18.437  0.00  0.00    +0.000 S 
ENDROOT
TORSDOF 0
ENDMDL
MODEL 4
REMARK VINA RESULT:      -5.5      1.926      2.904
REMARK  Name = 
REMARK  0 active torsions:
REMARK  status: ('A' for Active; 'I' for Inactive)
REMARK                            x       y       z     vdW  Elec       q    Type
REMARK                         _______ _______ _______ _____ _____    ______ ____
ROOT
ATOM      1  O   UNL     1       6.663   6.025  18.167  0.00  0.00    +0.000 OA
ATOM      2  S   UNL     1       5.744   4.797  18.494  0.00  0.00    +0.000 S 
ATOM      3  C   UNL     1       4.342   5.384  19.478  0.00  0.00    +0.000 C 
ATOM      4  C   UNL     1       3.128   4.480  19.479  0.00  0.00    +0.000 A 
ATOM      5  C   UNL     1       2.253   4.608  20.580  0.00  0.00    +0.000 A 
ATOM      6  C   UNL     1       1.083   3.857  20.671  0.00  0.00    +0.000 A 
ATOM      7  C   UNL     1       0.758   2.965  19.660  0.00  0.00    +0.000 A 
ATOM      8  C   UNL     1       1.598   2.838  18.554  0.00  0.00    +0.000 A 
ATOM      9  C   UNL     1       2.779   3.600  18.430  0.00  0.00    +0.000 A 
ATOM     10  C   UNL     1       3.614   3.332  17.192  0.00  0.00    +0.000 C 
ATOM     11  S   UNL     1       4.813   4.592  16.722  0.00  0.00    +0.000 S 
ENDROOT
TORSDOF 0
ENDMDL
MODEL 5
REMARK VINA RESULT:      -5.4      1.444      1.452
REMARK  Name = 
REMARK  0 active torsions:
REMARK  status: ('A' for Active; 'I' for Inactive)
REMARK                            x       y       z     vdW  Elec       q    Type
REMARK                         _______ _______ _______ _____ _____    ______ ____
ROOT
ATOM      1  O   UNL     1       7.442   5.354  15.313  0.00  0.00    +0.000 OA
ATOM      2  S   UNL     1       6.274   5.651  16.317  0.00  0.00    +0.000 S 
ATOM      3  C   UNL     1       5.047   4.328  16.165  0.00  0.00    +0.000 C 
ATOM      4  C   UNL     1       4.118   4.167  17.349  0.00  0.00    +0.000 A 
ATOM      5  C   UNL     1       2.877   3.545  17.091  0.00  0.00    +0.000 A 
ATOM      6  C   UNL     1       1.957   3.307  18.111  0.00  0.00    +0.000 A 
ATOM      7  C   UNL     1       2.259   3.681  19.411  0.00  0.00    +0.000 A 
ATOM      8  C   UNL     1       3.487   4.279  19.691  0.00  0.00    +0.000 A 
ATOM      9  C   UNL     1       4.444   4.514  18.680  0.00  0.00    +0.000 A 
ATOM     10  C   UNL     1       5.721   5.204  19.123  0.00  0.00    +0.000 C 
ATOM     11  S   UNL     1       7.148   5.067  18.032  0.00  0.00    +0.000 S 
ENDROOT
TORSDOF 0
ENDMDL
MODEL 6
REMARK VINA RESULT:      -5.4      3.614      4.785
REMARK  Name = 
REMARK  0 active torsions:
REMARK  status: ('A' for Active; 'I' for Inactive)
REMARK                            x       y       z     vdW  Elec       q    Type
REMARK                         _______ _______ _______ _____ _____    ______ ____
ROOT
ATOM      1  O   UNL     1       1.039   3.879  20.741  0.00  0.00    +0.000 OA
ATOM      2  S   UNL     1       1.534   3.934  19.254  0.00  0.00    +0.000 S 
ATOM      3  C   UNL     1       2.655   5.346  19.082  0.00  0.00    +0.000 C 
ATOM      4  C   UNL     1       3.592   5.288  17.895  0.00  0.00    +0.000 A 
ATOM      5  C   UNL     1       4.091   6.525  17.431  0.00  0.00    +0.000 A 
ATOM      6  C   UNL     1       4.992   6.593  16.370  0.00  0.00    +0.000 A 
ATOM      7  C   UNL     1       5.418   5.427  15.753  0.00  0.00    +0.000 A 
ATOM      8  C   UNL     1       4.953   4.194  16.208  0.00  0.00    +0.000 A 
ATOM      9  C   UNL     1       4.055   4.096  17.293  0.00  0.00    +0.000 A 
ATOM     10  C   UNL     1       3.605   2.694  17.657  0.00  0.00    +0.000 C 
ATOM     11  S   UNL     1       2.900   2.458  19.298  0.00  0.00    +0.000 S 
ENDROOT
TORSDOF 0
ENDMDL
MODEL 7
REMARK VINA RESULT:      -5.3      4.102      5.123
REMARK  Name = 
REMARK  0 active torsions:
REMARK  status: ('A' for Active; 'I' for Inactive)
REMARK                            x       y       z     vdW  Elec       q    Type
REMARK                         _______ _______ _______ _____ _____    ______ ____
ROOT
ATOM      1  O   UNL     1       1.549   2.544  22.118  0.00  0.00    +0.000 OA
ATOM      2  S   UNL     1       1.649   3.157  20.677  0.00  0.00    +0.000 S 
ATOM      3  C   UNL     1       1.902   4.943  20.837  0.00  0.00    +0.000 C 
ATOM      4  C   UNL     1       2.495   5.624  19.622  0.00  0.00    +0.000 A 
ATOM      5  C   UNL     1       2.240   7.007  19.494  0.00  0.00    +0.000 A 
ATOM      6  C   UNL     1       2.767   7.748  18.439  0.00  0.00    +0.000 A 
ATOM      7  C   UNL     1       3.564   7.125  17.491  0.00  0.00    +0.000 A 
ATOM      8  C   UNL     1       3.845   5.765  17.610  0.00  0.00    +0.000 A 
ATOM      9  C   UNL     1       3.339   4.995  18.679  0.00  0.00    +0.000 A 
ATOM     10  C   UNL     1       3.695   3.521  18.662  0.00  0.00    +0.000 C 
ATOM     11  S   UNL     1       3.531   2.618  20.213  0.00  0.00    +0.000 S 
ENDROOT
TORSDOF 0
ENDMDL
MODEL 8
REMARK VINA RESULT:      -5.2      1.229      2.611
REMARK  Name = 
REMARK  0 active torsions:
REMARK  status: ('A' for Active; 'I' for Inactive)
REMARK                            x       y       z     vdW  Elec       q    Type
REMARK                         _______ _______ _______ _____ _____    ______ ____
ROOT
ATOM      1  O   UNL     1       7.669   5.530  14.834  0.00  0.00    +0.000 OA
ATOM      2  S   UNL     1       6.846   5.302  16.149  0.00  0.00    +0.000 S 
ATOM      3  C   UNL     1       5.547   6.562  16.231  0.00  0.00    +0.000 C 
ATOM      4  C   UNL     1       4.380   6.230  17.135  0.00  0.00    +0.000 A 
ATOM      5  C   UNL     1       3.637   7.327  17.625  0.00  0.00    +0.000 A 
ATOM      6  C   UNL     1       2.517   7.143  18.434  0.00  0.00    +0.000 A 
ATOM      7  C   UNL     1       2.112   5.859  18.766  0.00  0.00    +0.000 A 
ATOM      8  C   UNL     1       2.819   4.762  18.276  0.00  0.00    +0.000 A 
ATOM      9  C   UNL     1       3.945   4.921  17.440  0.00  0.00    +0.000 A 
ATOM     10  C   UNL     1       4.638   3.641  17.012  0.00  0.00    +0.000 C 
ATOM     11  S   UNL     1       5.722   3.736  15.575  0.00  0.00    +0.000 S 
ENDROOT
TORSDOF 0
ENDMDL
MODEL 9
REMARK VINA RESULT:      -5.2      2.186      2.478
REMARK  Name = 
REMARK  0 active torsions:
REMARK  status: ('A' for Active; 'I' for Inactive)
REMARK                            x       y       z     vdW  Elec       q    Type
REMARK                         _______ _______ _______ _____ _____    ______ ____
ROOT
ATOM      1  O   UNL     1       6.417   4.998  16.935  0.00  0.00    +0.000 OA
ATOM      2  S   UNL     1       4.966   4.486  17.237  0.00  0.00    +0.000 S 
ATOM      3  C   UNL     1       4.947   3.791  18.909  0.00  0.00    +0.000 C 
ATOM      4  C   UNL     1       3.582   3.694  19.555  0.00  0.00    +0.000 A 
ATOM      5  C   UNL     1       3.442   2.734  20.581  0.00  0.00    +0.000 A 
ATOM      6  C   UNL     1       2.243   2.582  21.275  0.00  0.00    +0.000 A 
ATOM      7  C   UNL     1       1.160   3.390  20.963  0.00  0.00    +0.000 A 
ATOM      8  C   UNL     1       1.284   4.358  19.968  0.00  0.00    +0.000 A 
ATOM      9  C   UNL     1       2.492   4.545  19.263  0.00  0.00    +0.000 A 
ATOM     10  C   UNL     1       2.471   5.610  18.182  0.00  0.00    +0.000 C 
ATOM     11  S   UNL     1       4.063   6.242  17.623  0.00  0.00    +0.000 S 
ENDROOT
TORSDOF 0
ENDMDL
