MODEL 1
REMARK VINA RESULT:      -6.5      0.000      0.000
REMARK  Name = 
REMARK  6 active torsions:
REMARK  status: ('A' for Active; 'I' for Inactive)
REMARK    1  A    between atoms: C_1  and  O_2
REMARK    2  A    between atoms: O_2  and  C_3
REMARK    3  A    between atoms: C_6  and  C_7
REMARK    4  A    between atoms: C_7  and  N_15
REMARK    5  A    between atoms: C_8  and  C_9
REMARK    6  A    between atoms: N_12  and  C_13
REMARK                            x       y       z     vdW  Elec       q    Type
REMARK                         _______ _______ _______ _____ _____    ______ ____
ROOT
ATOM      1  C   UNL     1       3.433   6.561  17.961  0.00  0.00    +0.000 C 
ATOM      2  C   UNL     1       4.444   6.939  17.148  0.00  0.00    +0.000 C 
ENDROOT
BRANCH   1   6
ATOM      3  C   UNL     1       0.875   9.304  20.106  0.00  0.00    +0.000 A 
ATOM      4  C   UNL     1       1.215   9.549  18.777  0.00  0.00    +0.000 A 
ATOM      5  C   UNL     1       2.027   8.655  18.068  0.00  0.00    +0.000 A 
ATOM      6  C   UNL     1       2.547   7.507  18.688  0.00  0.00    +0.000 A 
ATOM      7  C   UNL     1       2.195   7.277  20.030  0.00  0.00    +0.000 A 
ATOM      8  C   UNL     1       1.368   8.163  20.732  0.00  0.00    +0.000 A 
BRANCH   3  10
ATOM      9  C   UNL     1      -0.146  10.100  22.088  0.00  0.00    +0.000 C 
ATOM     10  O   UNL     1       0.093  10.258  20.693  0.00  0.00    +0.000 OA
ENDBRANCH   3  10
ENDBRANCH   1   6
BRANCH   2  11
ATOM     11  C   UNL     1       5.401   6.157  16.428  0.00  0.00    +0.000 A 
ATOM     12  C   UNL     1       6.681   5.767  16.880  0.00  0.00    +0.000 A 
ATOM     13  N   UNL     1       7.327   5.005  15.993  0.00  0.00    +0.000 NA
ATOM     14  N   UNL     1       6.456   4.902  14.973  0.00  0.00    +0.000 N 
ATOM     15  C   UNL     1       6.735   4.033  13.857  0.00  0.00    +0.000 C 
ATOM     16  C   UNL     1       5.316   5.635  15.157  0.00  0.00    +0.000 A 
ENDBRANCH   2  11
BRANCH   1  17
ATOM     17  N   UNL     1       3.298   5.133  18.203  0.00  0.00    +0.000 N 
ATOM     18  O   UNL     1       4.074   4.627  19.022  0.00  0.00    +0.000 OA
ATOM     19  O   UNL     1       2.457   4.522  17.526  0.00  0.00    +0.000 OA
ENDBRANCH   1  17
TORSDOF 4
ENDMDL
MODEL 2
REMARK VINA RESULT:      -6.4      0.384      1.165
REMARK  Name = 
REMARK  6 active torsions:
REMARK  status: ('A' for Active; 'I' for Inactive)
REMARK    1  A    between atoms: C_1  and  O_2
REMARK    2  A    between atoms: O_2  and  C_3
REMARK    3  A    between atoms: C_6  and  C_7
REMARK    4  A    between atoms: C_7  and  N_15
REMARK    5  A    between atoms: C_8  and  C_9
REMARK    6  A    between atoms: N_12  and  C_13
REMARK                            x       y       z     vdW  Elec       q    Type
REMARK                         _______ _______ _______ _____ _____    ______ ____
ROOT
ATOM      1  C   UNL     1       3.567   6.520  18.083  0.00  0.00    +0.000 C 
ATOM      2  C   UNL     1       4.403   6.963  17.118  0.00  0.00    +0.000 C 
ENDROOT
BRANCH   1   6
ATOM      3  C   UNL     1       0.814   9.056  20.243  0.00  0.00    +0.000 A 
ATOM      4  C   UNL     1       1.279   7.872  20.813  0.00  0.00    +0.000 A 
ATOM      5  C   UNL     1       2.188   7.055  20.129  0.00  0.00    +0.000 A 
ATOM      6  C   UNL     1       2.625   7.389  18.837  0.00  0.00    +0.000 A 
ATOM      7  C   UNL     1       2.144   8.585  18.276  0.00  0.00    +0.000 A 
ATOM      8  C   UNL     1       1.249   9.410  18.970  0.00  0.00    +0.000 A 
BRANCH   3  10
ATOM      9  C   UNL     1      -0.132   9.413  22.383  0.00  0.00    +0.000 C 
ATOM     10  O   UNL     1      -0.081   9.756  21.002  0.00  0.00    +0.000 OA
ENDBRANCH   3  10
ENDBRANCH   1   6
BRANCH   2  11
ATOM     11  C   UNL     1       5.387   6.267  16.349  0.00  0.00    +0.000 A 
ATOM     12  C   UNL     1       6.750   6.096  16.681  0.00  0.00    +0.000 A 
ATOM     13  N   UNL     1       7.409   5.363  15.779  0.00  0.00    +0.000 NA
ATOM     14  N   UNL     1       6.464   5.060  14.870  0.00  0.00    +0.000 N 
ATOM     15  C   UNL     1       6.755   4.152  13.787  0.00  0.00    +0.000 C 
ATOM     16  C   UNL     1       5.254   5.639  15.131  0.00  0.00    +0.000 A 
ENDBRANCH   2  11
BRANCH   1  17
ATOM     17  N   UNL     1       3.698   5.121  18.459  0.00  0.00    +0.000 N 
ATOM     18  O   UNL     1       4.584   4.840  19.274  0.00  0.00    +0.000 OA
ATOM     19  O   UNL     1       2.952   4.311  17.888  0.00  0.00    +0.000 OA
ENDBRANCH   1  17
TORSDOF 4
ENDMDL
MODEL 3
REMARK VINA RESULT:      -6.4      0.795      1.533
REMARK  Name = 
REMARK  6 active torsions:
REMARK  status: ('A' for Active; 'I' for Inactive)
REMARK    1  A    between atoms: C_1  and  O_2
REMARK    2  A    between atoms: O_2  and  C_3
REMARK    3  A    between atoms: C_6  and  C_7
REMARK    4  A    between atoms: C_7  and  N_15
REMARK    5  A    between atoms: C_8  and  C_9
REMARK    6  A    between atoms: N_12  and  C_13
REMARK                            x       y       z     vdW  Elec       q    Type
REMARK                         _______ _______ _______ _____ _____    ______ ____
ROOT
ATOM      1  C   UNL     1       3.269   6.936  18.040  0.00  0.00    +0.000 C 
ATOM      2  C   UNL     1       4.262   7.328  17.209  0.00  0.00    +0.000 C 
ENDROOT
BRANCH   1   6
ATOM      3  C   UNL     1       0.469   9.640  19.915  0.00  0.00    +0.000 A 
ATOM      4  C   UNL     1       1.049   8.605  20.647  0.00  0.00    +0.000 A 
ATOM      5  C   UNL     1       1.973   7.736  20.052  0.00  0.00    +0.000 A 
ATOM      6  C   UNL     1       2.313   7.865  18.696  0.00  0.00    +0.000 A 
ATOM      7  C   UNL     1       1.716   8.913  17.972  0.00  0.00    +0.000 A 
ATOM      8  C   UNL     1       0.806   9.791  18.574  0.00  0.00    +0.000 A 
BRANCH   3  10
ATOM      9  C   UNL     1      -1.094  11.415  19.849  0.00  0.00    +0.000 C 
ATOM     10  O   UNL     1      -0.429  10.406  20.602  0.00  0.00    +0.000 OA
ENDBRANCH   3  10
ENDBRANCH   1   6
BRANCH   2  11
ATOM     11  C   UNL     1       5.278   6.567  16.551  0.00  0.00    +0.000 A 
ATOM     12  C   UNL     1       6.621   6.420  16.962  0.00  0.00    +0.000 A 
ATOM     13  N   UNL     1       7.318   5.614  16.158  0.00  0.00    +0.000 NA
ATOM     14  N   UNL     1       6.418   5.239  15.231  0.00  0.00    +0.000 N 
ATOM     15  C   UNL     1       6.755   4.243  14.243  0.00  0.00    +0.000 C 
ATOM     16  C   UNL     1       5.200   5.841  15.384  0.00  0.00    +0.000 A 
ENDBRANCH   2  11
BRANCH   1  17
ATOM     17  N   UNL     1       3.230   5.522  18.376  0.00  0.00    +0.000 N 
ATOM     18  O   UNL     1       2.405   4.825  17.774  0.00  0.00    +0.000 OA
ATOM     19  O   UNL     1       3.985   5.135  19.282  0.00  0.00    +0.000 OA
ENDBRANCH   1  17
TORSDOF 4
ENDMDL
MODEL 4
REMARK VINA RESULT:      -6.3      1.362      1.570
REMARK  Name = 
REMARK  6 active torsions:
REMARK  status: ('A' for Active; 'I' for Inactive)
REMARK    1  A    between atoms: C_1  and  O_2
REMARK    2  A    between atoms: O_2  and  C_3
REMARK    3  A    between atoms: C_6  and  C_7
REMARK    4  A    between atoms: C_7  and  N_15
REMARK    5  A    between atoms: C_8  and  C_9
REMARK    6  A    between atoms: N_12  and  C_13
REMARK                            x       y       z     vdW  Elec       q    Type
REMARK                         _______ _______ _______ _____ _____    ______ ____
ROOT
ATOM      1  C   UNL     1       4.070   5.436  17.956  0.00  0.00    +0.000 C 
ATOM      2  C   UNL     1       4.572   6.018  16.844  0.00  0.00    +0.000 C 
ENDROOT
BRANCH   1   6
ATOM      3  C   UNL     1       1.335   7.339  20.707  0.00  0.00    +0.000 A 
ATOM      4  C   UNL     1       1.892   8.061  19.653  0.00  0.00    +0.000 A 
ATOM      5  C   UNL     1       2.763   7.447  18.744  0.00  0.00    +0.000 A 
ATOM      6  C   UNL     1       3.125   6.098  18.893  0.00  0.00    +0.000 A 
ATOM      7  C   UNL     1       2.556   5.386  19.964  0.00  0.00    +0.000 A 
ATOM      8  C   UNL     1       1.671   5.998  20.861  0.00  0.00    +0.000 A 
BRANCH   3  10
ATOM      9  C   UNL     1       1.119   9.143  22.224  0.00  0.00    +0.000 C 
ATOM     10  O   UNL     1       0.515   8.054  21.533  0.00  0.00    +0.000 OA
ENDBRANCH   3  10
ENDBRANCH   1   6
BRANCH   2  11
ATOM     11  C   UNL     1       5.515   5.533  15.885  0.00  0.00    +0.000 A 
ATOM     12  C   UNL     1       6.923   5.583  15.989  0.00  0.00    +0.000 A 
ATOM     13  N   UNL     1       7.534   5.013  14.947  0.00  0.00    +0.000 NA
ATOM     14  N   UNL     1       6.514   4.592  14.177  0.00  0.00    +0.000 N 
ATOM     15  C   UNL     1       6.766   3.794  13.002  0.00  0.00    +0.000 C 
ATOM     16  C   UNL     1       5.286   4.945  14.663  0.00  0.00    +0.000 A 
ENDBRANCH   2  11
BRANCH   1  17
ATOM     17  N   UNL     1       4.592   4.119  18.286  0.00  0.00    +0.000 N 
ATOM     18  O   UNL     1       5.590   4.077  19.015  0.00  0.00    +0.000 OA
ATOM     19  O   UNL     1       4.033   3.143  17.764  0.00  0.00    +0.000 OA
ENDBRANCH   1  17
TORSDOF 4
ENDMDL
MODEL 5
REMARK VINA RESULT:      -6.0      3.848      4.221
REMARK  Name = 
REMARK  6 active torsions:
REMARK  status: ('A' for Active; 'I' for Inactive)
REMARK    1  A    between atoms: C_1  and  O_2
REMARK    2  A    between atoms: O_2  and  C_3
REMARK    3  A    between atoms: C_6  and  C_7
REMARK    4  A    between atoms: C_7  and  N_15
REMARK    5  A    between atoms: C_8  and  C_9
REMARK    6  A    between atoms: N_12  and  C_13
REMARK                            x       y       z     vdW  Elec       q    Type
REMARK                         _______ _______ _______ _____ _____    ______ ____
ROOT
ATOM      1  C   UNL     1       4.515   4.824  17.119  0.00  0.00    +0.000 C 
ATOM      2  C   UNL     1       4.980   4.065  16.101  0.00  0.00    +0.000 C 
ENDROOT
BRANCH   1   6
ATOM      3  C   UNL     1       1.576   3.471  19.982  0.00  0.00    +0.000 A 
ATOM      4  C   UNL     1       2.878   3.756  20.389  0.00  0.00    +0.000 A 
ATOM      5  C   UNL     1       3.832   4.214  19.471  0.00  0.00    +0.000 A 
ATOM      6  C   UNL     1       3.510   4.366  18.113  0.00  0.00    +0.000 A 
ATOM      7  C   UNL     1       2.192   4.071  17.719  0.00  0.00    +0.000 A 
ATOM      8  C   UNL     1       1.235   3.630  18.642  0.00  0.00    +0.000 A 
BRANCH   3  10
ATOM      9  C   UNL     1       1.379   2.439  22.103  0.00  0.00    +0.000 C 
ATOM     10  O   UNL     1       0.745   3.015  20.966  0.00  0.00    +0.000 OA
ENDBRANCH   3  10
ENDBRANCH   1   6
BRANCH   2  11
ATOM     11  C   UNL     1       5.898   4.378  15.051  0.00  0.00    +0.000 A 
ATOM     12  C   UNL     1       7.133   5.051  15.184  0.00  0.00    +0.000 A 
ATOM     13  N   UNL     1       7.784   5.161  14.023  0.00  0.00    +0.000 NA
ATOM     14  N   UNL     1       6.966   4.553  13.145  0.00  0.00    +0.000 N 
ATOM     15  C   UNL     1       7.384   4.342  11.781  0.00  0.00    +0.000 C 
ATOM     16  C   UNL     1       5.790   4.131  13.701  0.00  0.00    +0.000 A 
ENDBRANCH   2  11
BRANCH   1  17
ATOM     17  N   UNL     1       4.967   6.206  17.151  0.00  0.00    +0.000 N 
ATOM     18  O   UNL     1       4.389   7.003  16.402  0.00  0.00    +0.000 OA
ATOM     19  O   UNL     1       5.935   6.467  17.881  0.00  0.00    +0.000 OA
ENDBRANCH   1  17
TORSDOF 4
ENDMDL
MODEL 6
REMARK VINA RESULT:      -6.0      3.727      4.461
REMARK  Name = 
REMARK  6 active torsions:
REMARK  status: ('A' for Active; 'I' for Inactive)
REMARK    1  A    between atoms: C_1  and  O_2
REMARK    2  A    between atoms: O_2  and  C_3
REMARK    3  A    between atoms: C_6  and  C_7
REMARK    4  A    between atoms: C_7  and  N_15
REMARK    5  A    between atoms: C_8  and  C_9
REMARK    6  A    between atoms: N_12  and  C_13
REMARK                            x       y       z     vdW  Elec       q    Type
REMARK                         _______ _______ _______ _____ _____    ______ ____
ROOT
ATOM      1  C   UNL     1       4.765   4.584  16.546  0.00  0.00    +0.000 C 
ATOM      2  C   UNL     1       5.163   3.854  15.480  0.00  0.00    +0.000 C 
ENDROOT
BRANCH   1   6
ATOM      3  C   UNL     1       1.903   3.231  19.487  0.00  0.00    +0.000 A 
ATOM      4  C   UNL     1       1.692   4.421  18.792  0.00  0.00    +0.000 A 
ATOM      5  C   UNL     1       2.605   4.856  17.822  0.00  0.00    +0.000 A 
ATOM      6  C   UNL     1       3.772   4.124  17.551  0.00  0.00    +0.000 A 
ATOM      7  C   UNL     1       3.970   2.928  18.263  0.00  0.00    +0.000 A 
ATOM      8  C   UNL     1       3.047   2.484  19.220  0.00  0.00    +0.000 A 
BRANCH   3  10
ATOM      9  C   UNL     1       1.426   2.678  21.738  0.00  0.00    +0.000 C 
ATOM     10  O   UNL     1       0.952   2.924  20.418  0.00  0.00    +0.000 OA
ENDBRANCH   3  10
ENDBRANCH   1   6
BRANCH   2  11
ATOM     11  C   UNL     1       6.061   4.177  14.415  0.00  0.00    +0.000 A 
ATOM     12  C   UNL     1       6.012   3.682  13.092  0.00  0.00    +0.000 A 
ATOM     13  N   UNL     1       6.968   4.200  12.316  0.00  0.00    +0.000 NA
ATOM     14  N   UNL     1       7.627   5.032  13.142  0.00  0.00    +0.000 N 
ATOM     15  C   UNL     1       8.666   5.895  12.636  0.00  0.00    +0.000 C 
ATOM     16  C   UNL     1       7.165   4.998  14.429  0.00  0.00    +0.000 A 
ENDBRANCH   2  11
BRANCH   1  17
ATOM     17  N   UNL     1       5.281   5.941  16.627  0.00  0.00    +0.000 N 
ATOM     18  O   UNL     1       6.160   6.159  17.469  0.00  0.00    +0.000 OA
ATOM     19  O   UNL     1       4.758   6.789  15.887  0.00  0.00    +0.000 OA
ENDBRANCH   1  17
TORSDOF 4
ENDMDL
MODEL 7
REMARK VINA RESULT:      -6.0      4.096      4.627
REMARK  Name = 
REMARK  6 active torsions:
REMARK  status: ('A' for Active; 'I' for Inactive)
REMARK    1  A    between atoms: C_1  and  O_2
REMARK    2  A    between atoms: O_2  and  C_3
REMARK    3  A    between atoms: C_6  and  C_7
REMARK    4  A    between atoms: C_7  and  N_15
REMARK    5  A    between atoms: C_8  and  C_9
REMARK    6  A    between atoms: N_12  and  C_13
REMARK                            x       y       z     vdW  Elec       q    Type
REMARK                         _______ _______ _______ _____ _____    ______ ____
ROOT
ATOM      1  C   UNL     1       4.760   4.539  16.650  0.00  0.00    +0.000 C 
ATOM      2  C   UNL     1       5.155   3.813  15.580  0.00  0.00    +0.000 C 
ENDROOT
BRANCH   1   6
ATOM      3  C   UNL     1       1.891   3.160  19.572  0.00  0.00    +0.000 A 
ATOM      4  C   UNL     1       3.258   3.071  19.829  0.00  0.00    +0.000 A 
ATOM      5  C   UNL     1       4.195   3.534  18.896  0.00  0.00    +0.000 A 
ATOM      6  C   UNL     1       3.781   4.068  17.665  0.00  0.00    +0.000 A 
ATOM      7  C   UNL     1       2.399   4.147  17.421  0.00  0.00    +0.000 A 
ATOM      8  C   UNL     1       1.463   3.700  18.363  0.00  0.00    +0.000 A 
BRANCH   3  10
ATOM      9  C   UNL     1       1.614   2.671  21.871  0.00  0.00    +0.000 C 
ATOM     10  O   UNL     1       1.081   2.658  20.551  0.00  0.00    +0.000 OA
ENDBRANCH   3  10
ENDBRANCH   1   6
BRANCH   2  11
ATOM     11  C   UNL     1       6.039   4.145  14.507  0.00  0.00    +0.000 A 
ATOM     12  C   UNL     1       5.962   3.676  13.176  0.00  0.00    +0.000 A 
ATOM     13  N   UNL     1       6.911   4.197  12.394  0.00  0.00    +0.000 NA
ATOM     14  N   UNL     1       7.594   5.006  13.224  0.00  0.00    +0.000 N 
ATOM     15  C   UNL     1       8.635   5.866  12.716  0.00  0.00    +0.000 C 
ATOM     16  C   UNL     1       7.153   4.953  14.517  0.00  0.00    +0.000 A 
ENDBRANCH   2  11
BRANCH   1  17
ATOM     17  N   UNL     1       5.261   5.902  16.725  0.00  0.00    +0.000 N 
ATOM     18  O   UNL     1       4.705   6.744  16.010  0.00  0.00    +0.000 OA
ATOM     19  O   UNL     1       6.244   6.104  17.454  0.00  0.00    +0.000 OA
ENDBRANCH   1  17
TORSDOF 4
ENDMDL
MODEL 8
REMARK VINA RESULT:      -5.9      3.097      4.376
REMARK  Name = 
REMARK  6 active torsions:
REMARK  status: ('A' for Active; 'I' for Inactive)
REMARK    1  A    between atoms: C_1  and  O_2
REMARK    2  A    between atoms: O_2  and  C_3
REMARK    3  A    between atoms: C_6  and  C_7
REMARK    4  A    between atoms: C_7  and  N_15
REMARK    5  A    between atoms: C_8  and  C_9
REMARK    6  A    between atoms: N_12  and  C_13
REMARK                            x       y       z     vdW  Elec       q    Type
REMARK                         _______ _______ _______ _____ _____    ______ ____
ROOT
ATOM      1  C   UNL     1       5.794   4.662  16.540  0.00  0.00    +0.000 C 
ATOM      2  C   UNL     1       5.385   4.281  15.309  0.00  0.00    +0.000 C 
ENDROOT
BRANCH   1   6
ATOM      3  C   UNL     1       3.172   5.002  19.957  0.00  0.00    +0.000 A 
ATOM      4  C   UNL     1       3.831   3.804  19.690  0.00  0.00    +0.000 A 
ATOM      5  C   UNL     1       4.699   3.690  18.596  0.00  0.00    +0.000 A 
ATOM      6  C   UNL     1       4.899   4.771  17.722  0.00  0.00    +0.000 A 
ATOM      7  C   UNL     1       4.224   5.971  18.004  0.00  0.00    +0.000 A 
ATOM      8  C   UNL     1       3.371   6.088  19.109  0.00  0.00    +0.000 A 
BRANCH   3  10
ATOM      9  C   UNL     1       2.035   3.695  21.569  0.00  0.00    +0.000 C 
ATOM     10  O   UNL     1       2.340   4.981  21.041  0.00  0.00    +0.000 OA
ENDBRANCH   3  10
ENDBRANCH   1   6
BRANCH   2  11
ATOM     11  C   UNL     1       6.108   4.177  14.079  0.00  0.00    +0.000 A 
ATOM     12  C   UNL     1       7.105   5.061  13.611  0.00  0.00    +0.000 A 
ATOM     13  N   UNL     1       7.624   4.675  12.442  0.00  0.00    +0.000 NA
ATOM     14  N   UNL     1       6.961   3.538  12.164  0.00  0.00    +0.000 N 
ATOM     15  C   UNL     1       7.335   2.732  11.028  0.00  0.00    +0.000 C 
ATOM     16  C   UNL     1       5.992   3.237  13.081  0.00  0.00    +0.000 A 
ENDBRANCH   2  11
BRANCH   1  17
ATOM     17  N   UNL     1       7.180   5.088  16.656  0.00  0.00    +0.000 N 
ATOM     18  O   UNL     1       8.010   4.221  16.954  0.00  0.00    +0.000 OA
ATOM     19  O   UNL     1       7.414   6.297  16.507  0.00  0.00    +0.000 OA
ENDBRANCH   1  17
TORSDOF 4
ENDMDL
MODEL 9
REMARK VINA RESULT:      -5.9      3.646      4.246
REMARK  Name = 
REMARK  6 active torsions:
REMARK  status: ('A' for Active; 'I' for Inactive)
REMARK    1  A    between atoms: C_1  and  O_2
REMARK    2  A    between atoms: O_2  and  C_3
REMARK    3  A    between atoms: C_6  and  C_7
REMARK    4  A    between atoms: C_7  and  N_15
REMARK    5  A    between atoms: C_8  and  C_9
REMARK    6  A    between atoms: N_12  and  C_13
REMARK                            x       y       z     vdW  Elec       q    Type
REMARK                         _______ _______ _______ _____ _____    ______ ____
ROOT
ATOM      1  C   UNL     1       4.791   4.983  16.613  0.00  0.00    +0.000 C 
ATOM      2  C   UNL     1       5.186   4.135  15.637  0.00  0.00    +0.000 C 
ENDROOT
BRANCH   1   6
ATOM      3  C   UNL     1       1.949   4.008  19.719  0.00  0.00    +0.000 A 
ATOM      4  C   UNL     1       1.719   3.613  18.402  0.00  0.00    +0.000 A 
ATOM      5  C   UNL     1       2.644   3.907  17.393  0.00  0.00    +0.000 A 
ATOM      6  C   UNL     1       3.811   4.637  17.675  0.00  0.00    +0.000 A 
ATOM      7  C   UNL     1       4.026   5.029  19.008  0.00  0.00    +0.000 A 
ATOM      8  C   UNL     1       3.107   4.719  20.020  0.00  0.00    +0.000 A 
BRANCH   3  10
ATOM      9  C   UNL     1       1.332   2.765  21.635  0.00  0.00    +0.000 C 
ATOM     10  O   UNL     1       0.965   3.678  20.606  0.00  0.00    +0.000 OA
ENDBRANCH   3  10
ENDBRANCH   1   6
BRANCH   2  11
ATOM     11  C   UNL     1       6.071   4.337  14.532  0.00  0.00    +0.000 A 
ATOM     12  C   UNL     1       5.966   3.752  13.251  0.00  0.00    +0.000 A 
ATOM     13  N   UNL     1       6.926   4.166  12.419  0.00  0.00    +0.000 NA
ATOM     14  N   UNL     1       7.644   5.022  13.168  0.00  0.00    +0.000 N 
ATOM     15  C   UNL     1       8.709   5.795  12.578  0.00  0.00    +0.000 C 
ATOM     16  C   UNL     1       7.213   5.102  14.463  0.00  0.00    +0.000 A 
ENDBRANCH   2  11
BRANCH   1  17
ATOM     17  N   UNL     1       5.293   6.345  16.527  0.00  0.00    +0.000 N 
ATOM     18  O   UNL     1       4.770   7.084  15.684  0.00  0.00    +0.000 OA
ATOM     19  O   UNL     1       6.247   6.643  17.262  0.00  0.00    +0.000 OA
ENDBRANCH   1  17
TORSDOF 4
ENDMDL
