MODEL 1
REMARK VINA RESULT:      -8.6      0.000      0.000
REMARK  Name = 
REMARK  5 active torsions:
REMARK  status: ('A' for Active; 'I' for Inactive)
REMARK    1  A    between atoms: C_2  and  C_10
REMARK    2  A    between atoms: N_3  and  C_4
REMARK    3  A    between atoms: C_4  and  C_5
REMARK    4  A    between atoms: C_17  and  C_19
REMARK    5  A    between atoms: C_19  and  C_20
REMARK                            x       y       z     vdW  Elec       q    Type
REMARK                         _______ _______ _______ _____ _____    ______ ____
ROOT
ATOM      1  C   UNL     1       3.766   4.809  17.448  0.00  0.00    +0.000 A 
ATOM      2  N   UNL     1       3.194   3.624  17.053  0.00  0.00    +0.000 N 
ATOM      3  N   UNL     1       2.210   3.182  17.862  0.00  0.00    +0.000 NA
ATOM      4  C   UNL     1       2.114   4.148  18.775  0.00  0.00    +0.000 A 
ATOM      5  C   UNL     1       3.049   5.187  18.569  0.00  0.00    +0.000 A 
ATOM      6  C   UNL     1       3.136   6.390  19.434  0.00  0.00    +0.000 C 
ATOM      7  N   UNL     1       1.958   6.476  20.300  0.00  0.00    +0.000 N 
ATOM      8  C   UNL     1       1.478   7.748  20.569  0.00  0.00    +0.000 C 
ATOM      9  O   UNL     1       1.994   8.752  20.067  0.00  0.00    +0.000 OA
ATOM     10  C   UNL     1       1.515   5.208  20.922  0.00  0.00    +0.000 C 
ATOM     11  C   UNL     1       1.112   4.158  19.871  0.00  0.00    +0.000 C 
ATOM     12  H   UNL     1       3.443   3.073  16.236  0.00  0.00    +0.000 HD
ENDROOT
BRANCH   1  14
ATOM     13  O   UNL     1       4.792   6.566  16.306  0.00  0.00    +0.000 OA
ATOM     14  C   UNL     1       4.845   5.406  16.703  0.00  0.00    +0.000 C 
ATOM     15  N   UNL     1       5.925   4.599  16.442  0.00  0.00    +0.000 N 
ATOM     16  H   UNL     1       5.875   3.602  16.573  0.00  0.00    +0.000 HD
BRANCH  15  17
ATOM     17  C   UNL     1       7.030   5.079  15.651  0.00  0.00    +0.000 C 
BRANCH  17  18
ATOM     18  C   UNL     1       6.883   4.664  14.232  0.00  0.00    +0.000 A 
ATOM     19  C   UNL     1       6.103   3.702  13.624  0.00  0.00    +0.000 A 
ATOM     20  C   UNL     1       6.441   3.712  12.251  0.00  0.00    +0.000 A 
ATOM     21  C   UNL     1       7.391   4.695  12.101  0.00  0.00    +0.000 A 
ATOM     22  O   UNL     1       7.670   5.279  13.297  0.00  0.00    +0.000 OA
ENDBRANCH  17  18
ENDBRANCH  15  17
ENDBRANCH   1  14
BRANCH   8  23
ATOM     23  C   UNL     1       0.277   7.922  21.481  0.00  0.00    +0.000 C 
BRANCH  23  24
ATOM     24  C   UNL     1      -0.242   9.340  21.520  0.00  0.00    +0.000 A 
ATOM     25  C   UNL     1      -0.444   9.994  22.746  0.00  0.00    +0.000 A 
ATOM     26  C   UNL     1      -0.956  11.293  22.785  0.00  0.00    +0.000 A 
ATOM     27  C   UNL     1      -1.273  11.958  21.597  0.00  0.00    +0.000 A 
ATOM     28 CL   UNL     1      -1.902  13.563  21.716  0.00  0.00    +0.000 Cl
ATOM     29  C   UNL     1      -1.077  11.316  20.369  0.00  0.00    +0.000 A 
ATOM     30 CL   UNL     1      -1.454  12.068  18.860  0.00  0.00    +0.000 Cl
ATOM     31  C   UNL     1      -0.566  10.012  20.336  0.00  0.00    +0.000 A 
ENDBRANCH  23  24
ENDBRANCH   8  23
TORSDOF 5
ENDMDL
MODEL 2
REMARK VINA RESULT:      -8.4      3.687      5.534
REMARK  Name = 
REMARK  5 active torsions:
REMARK  status: ('A' for Active; 'I' for Inactive)
REMARK    1  A    between atoms: C_2  and  C_10
REMARK    2  A    between atoms: N_3  and  C_4
REMARK    3  A    between atoms: C_4  and  C_5
REMARK    4  A    between atoms: C_17  and  C_19
REMARK    5  A    between atoms: C_19  and  C_20
REMARK                            x       y       z     vdW  Elec       q    Type
REMARK                         _______ _______ _______ _____ _____    ______ ____
ROOT
ATOM      1  C   UNL     1       1.817   8.300  19.241  0.00  0.00    +0.000 A 
ATOM      2  N   UNL     1       2.388   8.779  18.086  0.00  0.00    +0.000 N 
ATOM      3  N   UNL     1       1.908   9.972  17.681  0.00  0.00    +0.000 NA
ATOM      4  C   UNL     1       1.040  10.291  18.640  0.00  0.00    +0.000 A 
ATOM      5  C   UNL     1       0.943   9.295  19.639  0.00  0.00    +0.000 A 
ATOM      6  C   UNL     1       0.063   9.415  20.828  0.00  0.00    +0.000 C 
ATOM      7  N   UNL     1      -0.427  10.789  20.957  0.00  0.00    +0.000 N 
ATOM      8  C   UNL     1      -0.575  11.276  22.246  0.00  0.00    +0.000 C 
ATOM      9  O   UNL     1      -0.266  10.597  23.232  0.00  0.00    +0.000 OA
ATOM     10  C   UNL     1      -0.865  11.444  19.705  0.00  0.00    +0.000 C 
ATOM     11  C   UNL     1       0.281  11.566  18.684  0.00  0.00    +0.000 C 
ATOM     12  H   UNL     1       3.110   8.326  17.533  0.00  0.00    +0.000 HD
ENDROOT
BRANCH   1  14
ATOM     13  O   UNL     1       1.621   6.539  20.759  0.00  0.00    +0.000 OA
ATOM     14  C   UNL     1       2.204   7.028  19.797  0.00  0.00    +0.000 C 
ATOM     15  N   UNL     1       3.275   6.405  19.205  0.00  0.00    +0.000 N 
ATOM     16  H   UNL     1       3.881   6.899  18.570  0.00  0.00    +0.000 HD
BRANCH  15  17
ATOM     17  C   UNL     1       3.782   5.160  19.723  0.00  0.00    +0.000 C 
BRANCH  17  18
ATOM     18  C   UNL     1       3.187   4.006  19.002  0.00  0.00    +0.000 A 
ATOM     19  C   UNL     1       3.122   3.684  17.661  0.00  0.00    +0.000 A 
ATOM     20  C   UNL     1       2.363   2.495  17.564  0.00  0.00    +0.000 A 
ATOM     21  C   UNL     1       2.030   2.151  18.854  0.00  0.00    +0.000 A 
ATOM     22  O   UNL     1       2.522   3.061  19.736  0.00  0.00    +0.000 OA
ENDBRANCH  17  18
ENDBRANCH  15  17
ENDBRANCH   1  14
BRANCH   8  23
ATOM     23  C   UNL     1      -1.104  12.682  22.465  0.00  0.00    +0.000 C 
BRANCH  23  24
ATOM     24  C   UNL     1      -2.578  12.721  22.794  0.00  0.00    +0.000 A 
ATOM     25  C   UNL     1      -3.014  12.664  24.128  0.00  0.00    +0.000 A 
ATOM     26  C   UNL     1      -4.378  12.667  24.432  0.00  0.00    +0.000 A 
ATOM     27  C   UNL     1      -5.325  12.728  23.406  0.00  0.00    +0.000 A 
ATOM     28 CL   UNL     1      -6.995  12.727  23.852  0.00  0.00    +0.000 Cl
ATOM     29  C   UNL     1      -4.903  12.783  22.074  0.00  0.00    +0.000 A 
ATOM     30 CL   UNL     1      -6.013  12.850  20.752  0.00  0.00    +0.000 Cl
ATOM     31  C   UNL     1      -3.534  12.777  21.774  0.00  0.00    +0.000 A 
ENDBRANCH  23  24
ENDBRANCH   8  23
TORSDOF 5
ENDMDL
MODEL 3
REMARK VINA RESULT:      -8.3      2.048      2.818
REMARK  Name = 
REMARK  5 active torsions:
REMARK  status: ('A' for Active; 'I' for Inactive)
REMARK    1  A    between atoms: C_2  and  C_10
REMARK    2  A    between atoms: N_3  and  C_4
REMARK    3  A    between atoms: C_4  and  C_5
REMARK    4  A    between atoms: C_17  and  C_19
REMARK    5  A    between atoms: C_19  and  C_20
REMARK                            x       y       z     vdW  Elec       q    Type
REMARK                         _______ _______ _______ _____ _____    ______ ____
ROOT
ATOM      1  C   UNL     1       4.189   5.145  16.887  0.00  0.00    +0.000 A 
ATOM      2  N   UNL     1       3.794   3.877  17.241  0.00  0.00    +0.000 N 
ATOM      3  N   UNL     1       3.003   3.823  18.332  0.00  0.00    +0.000 NA
ATOM      4  C   UNL     1       2.844   5.107  18.653  0.00  0.00    +0.000 A 
ATOM      5  C   UNL     1       3.551   5.975  17.791  0.00  0.00    +0.000 A 
ATOM      6  C   UNL     1       3.523   7.454  17.919  0.00  0.00    +0.000 C 
ATOM      7  N   UNL     1       2.456   7.861  18.837  0.00  0.00    +0.000 N 
ATOM      8  C   UNL     1       1.794   9.039  18.532  0.00  0.00    +0.000 C 
ATOM      9  O   UNL     1       2.062   9.687  17.515  0.00  0.00    +0.000 OA
ATOM     10  C   UNL     1       2.319   7.057  20.072  0.00  0.00    +0.000 C 
ATOM     11  C   UNL     1       1.990   5.584  19.770  0.00  0.00    +0.000 C 
ATOM     12  H   UNL     1       4.040   3.011  16.770  0.00  0.00    +0.000 HD
ENDROOT
BRANCH   1  14
ATOM     13  O   UNL     1       5.219   6.494  15.286  0.00  0.00    +0.000 OA
ATOM     14  C   UNL     1       5.052   5.373  15.757  0.00  0.00    +0.000 C 
ATOM     15  N   UNL     1       5.660   4.264  15.220  0.00  0.00    +0.000 N 
ATOM     16  H   UNL     1       5.356   3.335  15.462  0.00  0.00    +0.000 HD
BRANCH  15  17
ATOM     17  C   UNL     1       6.493   4.374  14.050  0.00  0.00    +0.000 C 
BRANCH  17  18
ATOM     18  C   UNL     1       5.884   3.657  12.900  0.00  0.00    +0.000 A 
ATOM     19  C   UNL     1       4.674   3.802  12.252  0.00  0.00    +0.000 A 
ATOM     20  C   UNL     1       4.613   2.785  11.271  0.00  0.00    +0.000 A 
ATOM     21  C   UNL     1       5.799   2.095  11.366  0.00  0.00    +0.000 A 
ATOM     22  O   UNL     1       6.578   2.612  12.352  0.00  0.00    +0.000 OA
ENDBRANCH  17  18
ENDBRANCH  15  17
ENDBRANCH   1  14
BRANCH   8  23
ATOM     23  C   UNL     1       0.694   9.544  19.450  0.00  0.00    +0.000 C 
BRANCH  23  24
ATOM     24  C   UNL     1      -0.545   9.989  18.709  0.00  0.00    +0.000 A 
ATOM     25  C   UNL     1      -0.821   9.503  17.421  0.00  0.00    +0.000 A 
ATOM     26  C   UNL     1      -1.949   9.940  16.722  0.00  0.00    +0.000 A 
ATOM     27  C   UNL     1      -2.818  10.868  17.302  0.00  0.00    +0.000 A 
ATOM     28 CL   UNL     1      -4.194  11.366  16.382  0.00  0.00    +0.000 Cl
ATOM     29  C   UNL     1      -2.552  11.360  18.584  0.00  0.00    +0.000 A 
ATOM     30 CL   UNL     1      -3.574  12.516  19.362  0.00  0.00    +0.000 Cl
ATOM     31  C   UNL     1      -1.419  10.922  19.280  0.00  0.00    +0.000 A 
ENDBRANCH  23  24
ENDBRANCH   8  23
TORSDOF 5
ENDMDL
MODEL 4
REMARK VINA RESULT:      -8.3      4.684     10.388
REMARK  Name = 
REMARK  5 active torsions:
REMARK  status: ('A' for Active; 'I' for Inactive)
REMARK    1  A    between atoms: C_2  and  C_10
REMARK    2  A    between atoms: N_3  and  C_4
REMARK    3  A    between atoms: C_4  and  C_5
REMARK    4  A    between atoms: C_17  and  C_19
REMARK    5  A    between atoms: C_19  and  C_20
REMARK                            x       y       z     vdW  Elec       q    Type
REMARK                         _______ _______ _______ _____ _____    ______ ____
ROOT
ATOM      1  C   UNL     1       0.420  10.327  20.668  0.00  0.00    +0.000 A 
ATOM      2  N   UNL     1       0.161  11.219  19.655  0.00  0.00    +0.000 N 
ATOM      3  N   UNL     1       0.648  10.853  18.452  0.00  0.00    +0.000 NA
ATOM      4  C   UNL     1       1.188   9.660  18.695  0.00  0.00    +0.000 A 
ATOM      5  C   UNL     1       1.074   9.276  20.050  0.00  0.00    +0.000 A 
ATOM      6  C   UNL     1       1.577   7.983  20.578  0.00  0.00    +0.000 C 
ATOM      7  N   UNL     1       1.912   7.082  19.472  0.00  0.00    +0.000 N 
ATOM      8  C   UNL     1       1.658   5.735  19.673  0.00  0.00    +0.000 C 
ATOM      9  O   UNL     1       1.136   5.323  20.715  0.00  0.00    +0.000 OA
ATOM     10  C   UNL     1       2.633   7.691  18.333  0.00  0.00    +0.000 C 
ATOM     11  C   UNL     1       1.812   8.802  17.655  0.00  0.00    +0.000 C 
ATOM     12  H   UNL     1      -0.343  12.097  19.735  0.00  0.00    +0.000 HD
ENDROOT
BRANCH   1  14
ATOM     13  O   UNL     1       0.602  10.146  22.987  0.00  0.00    +0.000 OA
ATOM     14  C   UNL     1      -0.014  10.579  22.018  0.00  0.00    +0.000 C 
ATOM     15  N   UNL     1      -1.166  11.312  22.162  0.00  0.00    +0.000 N 
ATOM     16  H   UNL     1      -1.780  11.476  21.380  0.00  0.00    +0.000 HD
BRANCH  15  17
ATOM     17  C   UNL     1      -1.721  11.567  23.466  0.00  0.00    +0.000 C 
BRANCH  17  18
ATOM     18  C   UNL     1      -2.960  12.380  23.364  0.00  0.00    +0.000 A 
ATOM     19  C   UNL     1      -3.269  13.511  22.638  0.00  0.00    +0.000 A 
ATOM     20  C   UNL     1      -4.585  13.882  23.001  0.00  0.00    +0.000 A 
ATOM     21  C   UNL     1      -5.006  12.941  23.912  0.00  0.00    +0.000 A 
ATOM     22  O   UNL     1      -4.029  12.025  24.143  0.00  0.00    +0.000 OA
ENDBRANCH  17  18
ENDBRANCH  15  17
ENDBRANCH   1  14
BRANCH   8  23
ATOM     23  C   UNL     1       2.003   4.733  18.585  0.00  0.00    +0.000 C 
BRANCH  23  24
ATOM     24  C   UNL     1       3.486   4.628  18.317  0.00  0.00    +0.000 A 
ATOM     25  C   UNL     1       4.413   4.792  19.358  0.00  0.00    +0.000 A 
ATOM     26  C   UNL     1       5.786   4.728  19.105  0.00  0.00    +0.000 A 
ATOM     27  C   UNL     1       6.250   4.499  17.807  0.00  0.00    +0.000 A 
ATOM     28 CL   UNL     1       7.960   4.432  17.564  0.00  0.00    +0.000 Cl
ATOM     29  C   UNL     1       5.335   4.336  16.762  0.00  0.00    +0.000 A 
ATOM     30 CL   UNL     1       5.833   4.059  15.130  0.00  0.00    +0.000 Cl
ATOM     31  C   UNL     1       3.960   4.403  17.020  0.00  0.00    +0.000 A 
ENDBRANCH  23  24
ENDBRANCH   8  23
TORSDOF 5
ENDMDL
MODEL 5
REMARK VINA RESULT:      -8.3      2.570      3.007
REMARK  Name = 
REMARK  5 active torsions:
REMARK  status: ('A' for Active; 'I' for Inactive)
REMARK    1  A    between atoms: C_2  and  C_10
REMARK    2  A    between atoms: N_3  and  C_4
REMARK    3  A    between atoms: C_4  and  C_5
REMARK    4  A    between atoms: C_17  and  C_19
REMARK    5  A    between atoms: C_19  and  C_20
REMARK                            x       y       z     vdW  Elec       q    Type
REMARK                         _______ _______ _______ _____ _____    ______ ____
ROOT
ATOM      1  C   UNL     1       3.705   4.482  19.698  0.00  0.00    +0.000 A 
ATOM      2  N   UNL     1       2.943   3.645  20.479  0.00  0.00    +0.000 N 
ATOM      3  N   UNL     1       1.895   4.243  21.079  0.00  0.00    +0.000 NA
ATOM      4  C   UNL     1       1.958   5.493  20.622  0.00  0.00    +0.000 A 
ATOM      5  C   UNL     1       3.056   5.701  19.757  0.00  0.00    +0.000 A 
ATOM      6  C   UNL     1       3.340   7.000  19.097  0.00  0.00    +0.000 C 
ATOM      7  N   UNL     1       2.188   7.896  19.229  0.00  0.00    +0.000 N 
ATOM      8  C   UNL     1       1.928   8.732  18.155  0.00  0.00    +0.000 C 
ATOM      9  O   UNL     1       2.608   8.691  17.124  0.00  0.00    +0.000 OA
ATOM     10  C   UNL     1       1.535   7.924  20.556  0.00  0.00    +0.000 C 
ATOM     11  C   UNL     1       0.966   6.548  20.950  0.00  0.00    +0.000 C 
ATOM     12  H   UNL     1       3.101   2.653  20.637  0.00  0.00    +0.000 HD
ENDROOT
BRANCH   1  14
ATOM     13  O   UNL     1       5.159   2.810  18.968  0.00  0.00    +0.000 OA
ATOM     14  C   UNL     1       4.873   4.003  19.005  0.00  0.00    +0.000 C 
ATOM     15  N   UNL     1       5.660   4.955  18.405  0.00  0.00    +0.000 N 
ATOM     16  H   UNL     1       5.548   5.933  18.618  0.00  0.00    +0.000 HD
BRANCH  15  17
ATOM     17  C   UNL     1       6.883   4.588  17.739  0.00  0.00    +0.000 C 
BRANCH  17  18
ATOM     18  C   UNL     1       6.681   4.505  16.270  0.00  0.00    +0.000 A 
ATOM     19  C   UNL     1       5.861   3.714  15.491  0.00  0.00    +0.000 A 
ATOM     20  C   UNL     1       6.154   4.028  14.143  0.00  0.00    +0.000 A 
ATOM     21  C   UNL     1       7.119   5.007  14.183  0.00  0.00    +0.000 A 
ATOM     22  O   UNL     1       7.450   5.304  15.467  0.00  0.00    +0.000 OA
ENDBRANCH  17  18
ENDBRANCH  15  17
ENDBRANCH   1  14
BRANCH   8  23
ATOM     23  C   UNL     1       0.769   9.710  18.225  0.00  0.00    +0.000 C 
BRANCH  23  24
ATOM     24  C   UNL     1       1.117  11.001  18.928  0.00  0.00    +0.000 A 
ATOM     25  C   UNL     1       0.498  11.344  20.141  0.00  0.00    +0.000 A 
ATOM     26  C   UNL     1       0.795  12.553  20.775  0.00  0.00    +0.000 A 
ATOM     27  C   UNL     1       1.717  13.436  20.205  0.00  0.00    +0.000 A 
ATOM     28 CL   UNL     1       2.038  14.914  21.041  0.00  0.00    +0.000 Cl
ATOM     29  C   UNL     1       2.338  13.106  18.997  0.00  0.00    +0.000 A 
ATOM     30 CL   UNL     1       3.480  14.149  18.226  0.00  0.00    +0.000 Cl
ATOM     31  C   UNL     1       2.035  11.894  18.363  0.00  0.00    +0.000 A 
ENDBRANCH  23  24
ENDBRANCH   8  23
TORSDOF 5
ENDMDL
MODEL 6
REMARK VINA RESULT:      -8.3      3.121      5.587
REMARK  Name = 
REMARK  5 active torsions:
REMARK  status: ('A' for Active; 'I' for Inactive)
REMARK    1  A    between atoms: C_2  and  C_10
REMARK    2  A    between atoms: N_3  and  C_4
REMARK    3  A    between atoms: C_4  and  C_5
REMARK    4  A    between atoms: C_17  and  C_19
REMARK    5  A    between atoms: C_19  and  C_20
REMARK                            x       y       z     vdW  Elec       q    Type
REMARK                         _______ _______ _______ _____ _____    ______ ____
ROOT
ATOM      1  C   UNL     1       1.483   8.191  20.840  0.00  0.00    +0.000 A 
ATOM      2  N   UNL     1       1.610   8.609  22.143  0.00  0.00    +0.000 N 
ATOM      3  N   UNL     1       1.216   9.880  22.362  0.00  0.00    +0.000 NA
ATOM      4  C   UNL     1       0.772  10.268  21.168  0.00  0.00    +0.000 A 
ATOM      5  C   UNL     1       0.907   9.263  20.184  0.00  0.00    +0.000 A 
ATOM      6  C   UNL     1       0.468   9.435  18.775  0.00  0.00    +0.000 C 
ATOM      7  N   UNL     1      -0.366  10.633  18.649  0.00  0.00    +0.000 N 
ATOM      8  C   UNL     1      -1.413  10.565  17.744  0.00  0.00    +0.000 C 
ATOM      9  O   UNL     1      -1.655   9.531  17.111  0.00  0.00    +0.000 OA
ATOM     10  C   UNL     1       0.103  11.831  19.378  0.00  0.00    +0.000 C 
ATOM     11  C   UNL     1       0.166  11.597  20.898  0.00  0.00    +0.000 C 
ATOM     12  H   UNL     1       1.964   8.063  22.924  0.00  0.00    +0.000 HD
ENDROOT
BRANCH   1  14
ATOM     13  O   UNL     1       1.227   5.874  20.746  0.00  0.00    +0.000 OA
ATOM     14  C   UNL     1       1.879   6.866  20.436  0.00  0.00    +0.000 C 
ATOM     15  N   UNL     1       3.037   6.772  19.703  0.00  0.00    +0.000 N 
ATOM     16  H   UNL     1       3.677   7.547  19.638  0.00  0.00    +0.000 HD
BRANCH  15  17
ATOM     17  C   UNL     1       3.554   5.488  19.303  0.00  0.00    +0.000 C 
BRANCH  17  18
ATOM     18  C   UNL     1       4.174   5.565  17.956  0.00  0.00    +0.000 A 
ATOM     19  C   UNL     1       4.560   4.592  17.056  0.00  0.00    +0.000 A 
ATOM     20  C   UNL     1       5.162   5.262  15.966  0.00  0.00    +0.000 A 
ATOM     21  C   UNL     1       5.086   6.604  16.257  0.00  0.00    +0.000 A 
ATOM     22  O   UNL     1       4.491   6.802  17.463  0.00  0.00    +0.000 OA
ENDBRANCH  17  18
ENDBRANCH  15  17
ENDBRANCH   1  14
BRANCH   8  23
ATOM     23  C   UNL     1      -2.307  11.774  17.535  0.00  0.00    +0.000 C 
BRANCH  23  24
ATOM     24  C   UNL     1      -3.625  11.677  18.266  0.00  0.00    +0.000 A 
ATOM     25  C   UNL     1      -4.712  10.998  17.692  0.00  0.00    +0.000 A 
ATOM     26  C   UNL     1      -5.942  10.936  18.353  0.00  0.00    +0.000 A 
ATOM     27  C   UNL     1      -6.101  11.551  19.597  0.00  0.00    +0.000 A 
ATOM     28 CL   UNL     1      -7.648  11.436  20.359  0.00  0.00    +0.000 Cl
ATOM     29  C   UNL     1      -5.026  12.231  20.178  0.00  0.00    +0.000 A 
ATOM     30 CL   UNL     1      -5.149  13.025  21.708  0.00  0.00    +0.000 Cl
ATOM     31  C   UNL     1      -3.796  12.294  19.511  0.00  0.00    +0.000 A 
ENDBRANCH  23  24
ENDBRANCH   8  23
TORSDOF 5
ENDMDL
MODEL 7
REMARK VINA RESULT:      -8.3      2.145      2.735
REMARK  Name = 
REMARK  5 active torsions:
REMARK  status: ('A' for Active; 'I' for Inactive)
REMARK    1  A    between atoms: C_2  and  C_10
REMARK    2  A    between atoms: N_3  and  C_4
REMARK    3  A    between atoms: C_4  and  C_5
REMARK    4  A    between atoms: C_17  and  C_19
REMARK    5  A    between atoms: C_19  and  C_20
REMARK                            x       y       z     vdW  Elec       q    Type
REMARK                         _______ _______ _______ _____ _____    ______ ____
ROOT
ATOM      1  C   UNL     1       3.900   3.663  17.803  0.00  0.00    +0.000 A 
ATOM      2  N   UNL     1       3.261   2.566  17.276  0.00  0.00    +0.000 N 
ATOM      3  N   UNL     1       2.091   2.262  17.873  0.00  0.00    +0.000 NA
ATOM      4  C   UNL     1       1.952   3.232  18.776  0.00  0.00    +0.000 A 
ATOM      5  C   UNL     1       3.040   4.134  18.778  0.00  0.00    +0.000 A 
ATOM      6  C   UNL     1       3.120   5.315  19.675  0.00  0.00    +0.000 C 
ATOM      7  N   UNL     1       1.820   5.559  20.304  0.00  0.00    +0.000 N 
ATOM      8  C   UNL     1       1.472   6.885  20.511  0.00  0.00    +0.000 C 
ATOM      9  O   UNL     1       2.203   7.810  20.141  0.00  0.00    +0.000 OA
ATOM     10  C   UNL     1       1.101   4.364  20.798  0.00  0.00    +0.000 C 
ATOM     11  C   UNL     1       0.770   3.378  19.663  0.00  0.00    +0.000 C 
ATOM     12  H   UNL     1       3.586   1.986  16.507  0.00  0.00    +0.000 HD
ENDROOT
BRANCH   1  14
ATOM     13  O   UNL     1       5.358   4.288  16.092  0.00  0.00    +0.000 OA
ATOM     14  C   UNL     1       5.171   4.107  17.292  0.00  0.00    +0.000 C 
ATOM     15  N   UNL     1       6.169   4.296  18.217  0.00  0.00    +0.000 N 
ATOM     16  H   UNL     1       6.083   3.942  19.156  0.00  0.00    +0.000 HD
BRANCH  15  17
ATOM     17  C   UNL     1       7.495   4.679  17.803  0.00  0.00    +0.000 C 
BRANCH  17  18
ATOM     18  C   UNL     1       7.661   6.154  17.861  0.00  0.00    +0.000 A 
ATOM     19  C   UNL     1       7.248   7.167  17.020  0.00  0.00    +0.000 A 
ATOM     20  C   UNL     1       7.763   8.372  17.551  0.00  0.00    +0.000 A 
ATOM     21  C   UNL     1       8.440   8.024  18.696  0.00  0.00    +0.000 A 
ATOM     22  O   UNL     1       8.389   6.680  18.895  0.00  0.00    +0.000 OA
ENDBRANCH  17  18
ENDBRANCH  15  17
ENDBRANCH   1  14
BRANCH   8  23
ATOM     23  C   UNL     1       0.153   7.221  21.183  0.00  0.00    +0.000 C 
BRANCH  23  24
ATOM     24  C   UNL     1      -0.039   8.701  21.417  0.00  0.00    +0.000 A 
ATOM     25  C   UNL     1      -0.238   9.199  22.714  0.00  0.00    +0.000 A 
ATOM     26  C   UNL     1      -0.448  10.564  22.928  0.00  0.00    +0.000 A 
ATOM     27  C   UNL     1      -0.461  11.450  21.847  0.00  0.00    +0.000 A 
ATOM     28 CL   UNL     1      -0.727  13.124  22.182  0.00  0.00    +0.000 Cl
ATOM     29  C   UNL     1      -0.265  10.964  20.550  0.00  0.00    +0.000 A 
ATOM     30 CL   UNL     1      -0.277  11.995  19.164  0.00  0.00    +0.000 Cl
ATOM     31  C   UNL     1      -0.058   9.595  20.340  0.00  0.00    +0.000 A 
ENDBRANCH  23  24
ENDBRANCH   8  23
TORSDOF 5
ENDMDL
MODEL 8
REMARK VINA RESULT:      -8.3      0.635      1.316
REMARK  Name = 
REMARK  5 active torsions:
REMARK  status: ('A' for Active; 'I' for Inactive)
REMARK    1  A    between atoms: C_2  and  C_10
REMARK    2  A    between atoms: N_3  and  C_4
REMARK    3  A    between atoms: C_4  and  C_5
REMARK    4  A    between atoms: C_17  and  C_19
REMARK    5  A    between atoms: C_19  and  C_20
REMARK                            x       y       z     vdW  Elec       q    Type
REMARK                         _______ _______ _______ _____ _____    ______ ____
ROOT
ATOM      1  C   UNL     1       3.789   4.769  17.433  0.00  0.00    +0.000 A 
ATOM      2  N   UNL     1       3.211   3.555  17.147  0.00  0.00    +0.000 N 
ATOM      3  N   UNL     1       2.243   3.182  18.007  0.00  0.00    +0.000 NA
ATOM      4  C   UNL     1       2.163   4.219  18.840  0.00  0.00    +0.000 A 
ATOM      5  C   UNL     1       3.093   5.237  18.532  0.00  0.00    +0.000 A 
ATOM      6  C   UNL     1       3.196   6.507  19.294  0.00  0.00    +0.000 C 
ATOM      7  N   UNL     1       2.033   6.664  20.173  0.00  0.00    +0.000 N 
ATOM      8  C   UNL     1       1.558   7.954  20.346  0.00  0.00    +0.000 C 
ATOM      9  O   UNL     1       2.063   8.914  19.754  0.00  0.00    +0.000 OA
ATOM     10  C   UNL     1       1.603   5.452  20.904  0.00  0.00    +0.000 C 
ATOM     11  C   UNL     1       1.181   4.319  19.951  0.00  0.00    +0.000 C 
ATOM     12  H   UNL     1       3.445   2.939  16.373  0.00  0.00    +0.000 HD
ENDROOT
BRANCH   1  14
ATOM     13  O   UNL     1       4.819   6.447  16.182  0.00  0.00    +0.000 OA
ATOM     14  C   UNL     1       4.853   5.302  16.622  0.00  0.00    +0.000 C 
ATOM     15  N   UNL     1       5.897   4.452  16.349  0.00  0.00    +0.000 N 
ATOM     16  H   UNL     1       5.822   3.462  16.522  0.00  0.00    +0.000 HD
BRANCH  15  17
ATOM     17  C   UNL     1       6.981   4.865  15.496  0.00  0.00    +0.000 C 
BRANCH  17  18
ATOM     18  C   UNL     1       6.740   4.442  14.093  0.00  0.00    +0.000 A 
ATOM     19  C   UNL     1       5.802   3.603  13.526  0.00  0.00    +0.000 A 
ATOM     20  C   UNL     1       6.109   3.522  12.148  0.00  0.00    +0.000 A 
ATOM     21  C   UNL     1       7.202   4.334  11.954  0.00  0.00    +0.000 A 
ATOM     22  O   UNL     1       7.597   4.897  13.126  0.00  0.00    +0.000 OA
ENDBRANCH  17  18
ENDBRANCH  15  17
ENDBRANCH   1  14
BRANCH   8  23
ATOM     23  C   UNL     1       0.374   8.203  21.263  0.00  0.00    +0.000 C 
BRANCH  23  24
ATOM     24  C   UNL     1      -0.285   9.544  21.037  0.00  0.00    +0.000 A 
ATOM     25  C   UNL     1      -0.698   9.929  19.752  0.00  0.00    +0.000 A 
ATOM     26  C   UNL     1      -1.278  11.182  19.536  0.00  0.00    +0.000 A 
ATOM     27  C   UNL     1      -1.453  12.067  20.604  0.00  0.00    +0.000 A 
ATOM     28 CL   UNL     1      -2.175  13.601  20.268  0.00  0.00    +0.000 Cl
ATOM     29  C   UNL     1      -1.044  11.694  21.888  0.00  0.00    +0.000 A 
ATOM     30 CL   UNL     1      -1.219  12.737  23.255  0.00  0.00    +0.000 Cl
ATOM     31  C   UNL     1      -0.461  10.438  22.099  0.00  0.00    +0.000 A 
ENDBRANCH  23  24
ENDBRANCH   8  23
TORSDOF 5
ENDMDL
MODEL 9
REMARK VINA RESULT:      -8.3      2.017      2.198
REMARK  Name = 
REMARK  5 active torsions:
REMARK  status: ('A' for Active; 'I' for Inactive)
REMARK    1  A    between atoms: C_2  and  C_10
REMARK    2  A    between atoms: N_3  and  C_4
REMARK    3  A    between atoms: C_4  and  C_5
REMARK    4  A    between atoms: C_17  and  C_19
REMARK    5  A    between atoms: C_19  and  C_20
REMARK                            x       y       z     vdW  Elec       q    Type
REMARK                         _______ _______ _______ _____ _____    ______ ____
ROOT
ATOM      1  C   UNL     1       4.849   4.605  18.902  0.00  0.00    +0.000 A 
ATOM      2  N   UNL     1       4.338   3.463  19.472  0.00  0.00    +0.000 N 
ATOM      3  N   UNL     1       3.176   3.640  20.131  0.00  0.00    +0.000 NA
ATOM      4  C   UNL     1       2.907   4.929  19.928  0.00  0.00    +0.000 A 
ATOM      5  C   UNL     1       3.905   5.580  19.168  0.00  0.00    +0.000 A 
ATOM      6  C   UNL     1       3.835   7.013  18.785  0.00  0.00    +0.000 C 
ATOM      7  N   UNL     1       2.491   7.538  19.038  0.00  0.00    +0.000 N 
ATOM      8  C   UNL     1       2.013   8.475  18.136  0.00  0.00    +0.000 C 
ATOM      9  O   UNL     1       2.671   8.815  17.146  0.00  0.00    +0.000 OA
ATOM     10  C   UNL     1       1.864   7.133  20.315  0.00  0.00    +0.000 C 
ATOM     11  C   UNL     1       1.677   5.608  20.410  0.00  0.00    +0.000 C 
ATOM     12  H   UNL     1       4.750   2.534  19.442  0.00  0.00    +0.000 HD
ENDROOT
BRANCH   1  14
ATOM     13  O   UNL     1       7.171   4.438  18.750  0.00  0.00    +0.000 OA
ATOM     14  C   UNL     1       6.095   4.589  18.180  0.00  0.00    +0.000 C 
ATOM     15  N   UNL     1       6.015   4.775  16.821  0.00  0.00    +0.000 N 
ATOM     16  H   UNL     1       5.170   5.114  16.390  0.00  0.00    +0.000 HD
BRANCH  15  17
ATOM     17  C   UNL     1       7.207   4.840  16.015  0.00  0.00    +0.000 C 
BRANCH  17  18
ATOM     18  C   UNL     1       6.900   4.535  14.594  0.00  0.00    +0.000 A 
ATOM     19  C   UNL     1       6.048   3.623  14.004  0.00  0.00    +0.000 A 
ATOM     20  C   UNL     1       6.233   3.737  12.607  0.00  0.00    +0.000 A 
ATOM     21  C   UNL     1       7.171   4.728  12.428  0.00  0.00    +0.000 A 
ATOM     22  O   UNL     1       7.586   5.218  13.626  0.00  0.00    +0.000 OA
ENDBRANCH  17  18
ENDBRANCH  15  17
ENDBRANCH   1  14
BRANCH   8  23
ATOM     23  C   UNL     1       0.639   9.088  18.344  0.00  0.00    +0.000 C 
BRANCH  23  24
ATOM     24  C   UNL     1       0.660  10.318  19.220  0.00  0.00    +0.000 A 
ATOM     25  C   UNL     1       0.009  10.320  20.464  0.00  0.00    +0.000 A 
ATOM     26  C   UNL     1      -0.001  11.468  21.261  0.00  0.00    +0.000 A 
ATOM     27  C   UNL     1       0.642  12.630  20.824  0.00  0.00    +0.000 A 
ATOM     28 CL   UNL     1       0.591  14.014  21.858  0.00  0.00    +0.000 Cl
ATOM     29  C   UNL     1       1.293  12.640  19.587  0.00  0.00    +0.000 A 
ATOM     30 CL   UNL     1       2.100  14.040  18.976  0.00  0.00    +0.000 Cl
ATOM     31  C   UNL     1       1.297  11.488  18.790  0.00  0.00    +0.000 A 
ENDBRANCH  23  24
ENDBRANCH   8  23
TORSDOF 5
ENDMDL
