MODEL 1
REMARK VINA RESULT:      -9.4      0.000      0.000
REMARK  Name = 
REMARK  5 active torsions:
REMARK  status: ('A' for Active; 'I' for Inactive)
REMARK    1  A    between atoms: N_14  and  C_15
REMARK    2  A    between atoms: C_15  and  C_16
REMARK    3  A    between atoms: C_16  and  C_17
REMARK    4  A    between atoms: C_17  and  C_18
REMARK    5  A    between atoms: C_18  and  N_19
REMARK                            x       y       z     vdW  Elec       q    Type
REMARK                         _______ _______ _______ _____ _____    ______ ____
ROOT
ATOM      1  C   UNL     1       7.868   7.366  18.182  0.00  0.00    +0.000 C 
ENDROOT
BRANCH   1   2
ATOM      2  C   UNL     1       6.958   6.747  17.124  0.00  0.00    +0.000 C 
BRANCH   2  16
ATOM      3  O   UNL     1       6.975   4.271  18.557  0.00  0.00    +0.000 OA
ATOM      4  C   UNL     1       5.916   4.850  18.365  0.00  0.00    +0.000 C 
ATOM      5  C   UNL     1       4.681   4.631  19.204  0.00  0.00    +0.000 C 
ATOM      6  C   UNL     1       3.950   3.269  19.418  0.00  0.00    +0.000 C 
ATOM      7  C   UNL     1       3.408   2.786  18.090  0.00  0.00    +0.000 C 
ATOM      8  C   UNL     1       2.600   3.654  17.464  0.00  0.00    +0.000 C 
ATOM      9  C   UNL     1       2.345   4.952  18.220  0.00  0.00    +0.000 C 
ATOM     10  C   UNL     1       1.748   4.614  19.633  0.00  0.00    +0.000 C 
ATOM     11  C   UNL     1       1.315   3.236  20.134  0.00  0.00    +0.000 C 
ATOM     12  C   UNL     1       2.755   3.661  20.371  0.00  0.00    +0.000 C 
ATOM     13  C   UNL     1       3.687   5.663  18.597  0.00  0.00    +0.000 C 
ATOM     14  C   UNL     1       4.528   6.406  17.619  0.00  0.00    +0.000 C 
ATOM     15  O   UNL     1       4.148   7.420  17.055  0.00  0.00    +0.000 OA
ATOM     16  N   UNL     1       5.806   5.965  17.594  0.00  0.00    +0.000 N 
ENDBRANCH   2  16
ENDBRANCH   1   2
BRANCH   1  17
ATOM     17  C   UNL     1       8.124   8.882  17.915  0.00  0.00    +0.000 C 
BRANCH  17  18
ATOM     18  C   UNL     1       9.186   9.507  18.840  0.00  0.00    +0.000 C 
BRANCH  18  19
ATOM     19  N   UNL     1       8.981  10.962  18.949  0.00  0.00    +0.000 NA
ATOM     20  C   UNL     1       9.382  11.582  20.237  0.00  0.00    +0.000 C 
ATOM     21  C   UNL     1      10.856  11.990  20.265  0.00  0.00    +0.000 C 
ATOM     22  N   UNL     1      11.133  12.777  19.075  0.00  0.00    +0.000 N 
ATOM     23  C   UNL     1      11.440  14.178  19.090  0.00  0.00    +0.000 A 
ATOM     24  C   UNL     1      11.140  14.998  20.195  0.00  0.00    +0.000 A 
ATOM     25  C   UNL     1      11.382  16.367  20.118  0.00  0.00    +0.000 A 
ATOM     26  C   UNL     1      11.927  16.899  18.954  0.00  0.00    +0.000 A 
ATOM     27 CL   UNL     1      12.240  18.617  18.816  0.00  0.00    +0.000 Cl
ATOM     28  N   UNL     1      12.205  16.077  17.912  0.00  0.00    +0.000 NA
ATOM     29  N   UNL     1      11.960  14.768  17.976  0.00  0.00    +0.000 NA
ATOM     30  C   UNL     1      10.918  12.079  17.821  0.00  0.00    +0.000 C 
ATOM     31  C   UNL     1       9.430  11.723  17.761  0.00  0.00    +0.000 C 
ENDBRANCH  18  19
ENDBRANCH  17  18
ENDBRANCH   1  17
TORSDOF 5
ENDMDL
MODEL 2
REMARK VINA RESULT:      -9.3      0.833      1.849
REMARK  Name = 
REMARK  5 active torsions:
REMARK  status: ('A' for Active; 'I' for Inactive)
REMARK    1  A    between atoms: N_14  and  C_15
REMARK    2  A    between atoms: C_15  and  C_16
REMARK    3  A    between atoms: C_16  and  C_17
REMARK    4  A    between atoms: C_17  and  C_18
REMARK    5  A    between atoms: C_18  and  N_19
REMARK                            x       y       z     vdW  Elec       q    Type
REMARK                         _______ _______ _______ _____ _____    ______ ____
ROOT
ATOM      1  C   UNL     1       7.501   7.267  17.882  0.00  0.00    +0.000 C 
ENDROOT
BRANCH   1   2
ATOM      2  C   UNL     1       6.310   6.960  16.978  0.00  0.00    +0.000 C 
BRANCH   2  16
ATOM      3  O   UNL     1       3.706   7.544  18.007  0.00  0.00    +0.000 OA
ATOM      4  C   UNL     1       4.046   6.380  17.849  0.00  0.00    +0.000 C 
ATOM      5  C   UNL     1       3.070   5.238  17.703  0.00  0.00    +0.000 C 
ATOM      6  C   UNL     1       1.981   4.827  18.742  0.00  0.00    +0.000 C 
ATOM      7  C   UNL     1       2.660   4.379  20.019  0.00  0.00    +0.000 C 
ATOM      8  C   UNL     1       3.552   3.391  19.863  0.00  0.00    +0.000 C 
ATOM      9  C   UNL     1       3.692   2.871  18.438  0.00  0.00    +0.000 C 
ATOM     10  C   UNL     1       2.287   2.388  17.927  0.00  0.00    +0.000 C 
ATOM     11  C   UNL     1       1.006   2.276  18.754  0.00  0.00    +0.000 C 
ATOM     12  C   UNL     1       1.285   3.592  18.047  0.00  0.00    +0.000 C 
ATOM     13  C   UNL     1       4.018   4.032  17.440  0.00  0.00    +0.000 C 
ATOM     14  C   UNL     1       5.357   4.672  17.331  0.00  0.00    +0.000 C 
ATOM     15  O   UNL     1       6.350   4.070  16.956  0.00  0.00    +0.000 OA
ATOM     16  N   UNL     1       5.302   6.015  17.480  0.00  0.00    +0.000 N 
ENDBRANCH   2  16
ENDBRANCH   1   2
BRANCH   1  17
ATOM     17  C   UNL     1       7.985   8.743  17.729  0.00  0.00    +0.000 C 
BRANCH  17  18
ATOM     18  C   UNL     1       8.933   9.207  18.850  0.00  0.00    +0.000 C 
BRANCH  18  19
ATOM     19  N   UNL     1       8.751  10.645  19.115  0.00  0.00    +0.000 NA
ATOM     20  C   UNL     1       9.364  11.160  20.366  0.00  0.00    +0.000 C 
ATOM     21  C   UNL     1      10.822  11.583  20.180  0.00  0.00    +0.000 C 
ATOM     22  N   UNL     1      10.895  12.471  19.032  0.00  0.00    +0.000 N 
ATOM     23  C   UNL     1      11.202  13.870  19.115  0.00  0.00    +0.000 A 
ATOM     24  C   UNL     1      11.094  14.590  20.320  0.00  0.00    +0.000 A 
ATOM     25  C   UNL     1      11.321  15.964  20.320  0.00  0.00    +0.000 A 
ATOM     26  C   UNL     1      11.663  16.599  19.130  0.00  0.00    +0.000 A 
ATOM     27 CL   UNL     1      11.950  18.327  19.088  0.00  0.00    +0.000 Cl
ATOM     28  N   UNL     1      11.760  15.871  17.991  0.00  0.00    +0.000 NA
ATOM     29  N   UNL     1      11.528  14.558  17.983  0.00  0.00    +0.000 NA
ATOM     30  C   UNL     1      10.472  11.878  17.778  0.00  0.00    +0.000 C 
ATOM     31  C   UNL     1       8.994  11.509  17.938  0.00  0.00    +0.000 C 
ENDBRANCH  18  19
ENDBRANCH  17  18
ENDBRANCH   1  17
TORSDOF 5
ENDMDL
MODEL 3
REMARK VINA RESULT:      -9.0      1.348      1.955
REMARK  Name = 
REMARK  5 active torsions:
REMARK  status: ('A' for Active; 'I' for Inactive)
REMARK    1  A    between atoms: N_14  and  C_15
REMARK    2  A    between atoms: C_15  and  C_16
REMARK    3  A    between atoms: C_16  and  C_17
REMARK    4  A    between atoms: C_17  and  C_18
REMARK    5  A    between atoms: C_18  and  N_19
REMARK                            x       y       z     vdW  Elec       q    Type
REMARK                         _______ _______ _______ _____ _____    ______ ____
ROOT
ATOM      1  C   UNL     1       7.321   7.487  17.081  0.00  0.00    +0.000 C 
ENDROOT
BRANCH   1   2
ATOM      2  C   UNL     1       7.305   5.971  17.254  0.00  0.00    +0.000 C 
BRANCH   2  16
ATOM      3  O   UNL     1       5.205   5.052  15.543  0.00  0.00    +0.000 OA
ATOM      4  C   UNL     1       5.141   4.840  16.744  0.00  0.00    +0.000 C 
ATOM      5  C   UNL     1       4.302   3.743  17.354  0.00  0.00    +0.000 C 
ATOM      6  C   UNL     1       2.759   3.576  17.195  0.00  0.00    +0.000 C 
ATOM      7  C   UNL     1       2.066   4.765  17.826  0.00  0.00    +0.000 C 
ATOM      8  C   UNL     1       2.381   4.982  19.111  0.00  0.00    +0.000 C 
ATOM      9  C   UNL     1       3.349   3.971  19.714  0.00  0.00    +0.000 C 
ATOM     10  C   UNL     1       2.743   2.529  19.564  0.00  0.00    +0.000 C 
ATOM     11  C   UNL     1       1.342   2.176  19.064  0.00  0.00    +0.000 C 
ATOM     12  C   UNL     1       2.461   2.276  18.039  0.00  0.00    +0.000 C 
ATOM     13  C   UNL     1       4.659   3.862  18.864  0.00  0.00    +0.000 C 
ATOM     14  C   UNL     1       5.735   4.890  18.877  0.00  0.00    +0.000 C 
ATOM     15  O   UNL     1       6.399   5.141  19.870  0.00  0.00    +0.000 OA
ATOM     16  N   UNL     1       6.032   5.344  17.638  0.00  0.00    +0.000 N 
ENDBRANCH   2  16
ENDBRANCH   1   2
BRANCH   1  17
ATOM     17  C   UNL     1       8.083   8.199  18.242  0.00  0.00    +0.000 C 
BRANCH  17  18
ATOM     18  C   UNL     1       8.918   9.411  17.789  0.00  0.00    +0.000 C 
BRANCH  18  19
ATOM     19  N   UNL     1       8.596  10.593  18.608  0.00  0.00    +0.000 NA
ATOM     20  C   UNL     1       9.354  10.734  19.876  0.00  0.00    +0.000 C 
ATOM     21  C   UNL     1      10.681  11.472  19.694  0.00  0.00    +0.000 C 
ATOM     22  N   UNL     1      10.420  12.707  18.977  0.00  0.00    +0.000 N 
ATOM     23  C   UNL     1      10.545  14.015  19.554  0.00  0.00    +0.000 A 
ATOM     24  C   UNL     1      10.565  14.219  20.947  0.00  0.00    +0.000 A 
ATOM     25  C   UNL     1      10.600  15.518  21.449  0.00  0.00    +0.000 A 
ATOM     26  C   UNL     1      10.627  16.591  20.563  0.00  0.00    +0.000 A 
ATOM     27 CL   UNL     1      10.664  18.239  21.155  0.00  0.00    +0.000 Cl
ATOM     28  N   UNL     1      10.608  16.354  19.229  0.00  0.00    +0.000 NA
ATOM     29  N   UNL     1      10.559  15.112  18.744  0.00  0.00    +0.000 NA
ATOM     30  C   UNL     1       9.856  12.534  17.651  0.00  0.00    +0.000 C 
ATOM     31  C   UNL     1       8.497  11.851  17.834  0.00  0.00    +0.000 C 
ENDBRANCH  18  19
ENDBRANCH  17  18
ENDBRANCH   1  17
TORSDOF 5
ENDMDL
MODEL 4
REMARK VINA RESULT:      -8.7      2.358      2.853
REMARK  Name = 
REMARK  5 active torsions:
REMARK  status: ('A' for Active; 'I' for Inactive)
REMARK    1  A    between atoms: N_14  and  C_15
REMARK    2  A    between atoms: C_15  and  C_16
REMARK    3  A    between atoms: C_16  and  C_17
REMARK    4  A    between atoms: C_17  and  C_18
REMARK    5  A    between atoms: C_18  and  N_19
REMARK                            x       y       z     vdW  Elec       q    Type
REMARK                         _______ _______ _______ _____ _____    ______ ____
ROOT
ATOM      1  C   UNL     1       7.621   8.554  17.876  0.00  0.00    +0.000 C 
ENDROOT
BRANCH   1   2
ATOM      2  C   UNL     1       7.765   7.040  17.746  0.00  0.00    +0.000 C 
BRANCH   2  16
ATOM      3  O   UNL     1       7.012   5.419  19.979  0.00  0.00    +0.000 OA
ATOM      4  C   UNL     1       6.229   5.573  19.054  0.00  0.00    +0.000 C 
ATOM      5  C   UNL     1       4.738   5.378  19.182  0.00  0.00    +0.000 C 
ATOM      6  C   UNL     1       4.022   4.065  19.629  0.00  0.00    +0.000 C 
ATOM      7  C   UNL     1       4.304   2.978  18.614  0.00  0.00    +0.000 C 
ATOM      8  C   UNL     1       3.967   3.286  17.354  0.00  0.00    +0.000 C 
ATOM      9  C   UNL     1       3.326   4.657  17.176  0.00  0.00    +0.000 C 
ATOM     10  C   UNL     1       2.053   4.750  18.092  0.00  0.00    +0.000 C 
ATOM     11  C   UNL     1       1.428   3.615  18.902  0.00  0.00    +0.000 C 
ATOM     12  C   UNL     1       2.496   4.465  19.572  0.00  0.00    +0.000 C 
ATOM     13  C   UNL     1       4.233   5.788  17.767  0.00  0.00    +0.000 C 
ATOM     14  C   UNL     1       5.467   6.286  17.100  0.00  0.00    +0.000 C 
ATOM     15  O   UNL     1       5.451   6.859  16.023  0.00  0.00    +0.000 OA
ATOM     16  N   UNL     1       6.551   6.227  17.906  0.00  0.00    +0.000 N 
ENDBRANCH   2  16
ENDBRANCH   1   2
BRANCH   1  17
ATOM     17  C   UNL     1       8.800   9.185  18.682  0.00  0.00    +0.000 C 
BRANCH  17  18
ATOM     18  C   UNL     1       9.214  10.583  18.189  0.00  0.00    +0.000 C 
BRANCH  18  19
ATOM     19  N   UNL     1      10.026  11.269  19.210  0.00  0.00    +0.000 NA
ATOM     20  C   UNL     1      10.465  12.648  18.876  0.00  0.00    +0.000 C 
ATOM     21  C   UNL     1       9.436  13.709  19.270  0.00  0.00    +0.000 C 
ATOM     22  N   UNL     1       9.061  13.487  20.656  0.00  0.00    +0.000 N 
ATOM     23  C   UNL     1       9.394  14.375  21.732  0.00  0.00    +0.000 A 
ATOM     24  C   UNL     1      10.416  15.337  21.619  0.00  0.00    +0.000 A 
ATOM     25  C   UNL     1      10.753  16.112  22.726  0.00  0.00    +0.000 A 
ATOM     26  C   UNL     1      10.063  15.931  23.921  0.00  0.00    +0.000 A 
ATOM     27 CL   UNL     1      10.461  16.882  25.337  0.00  0.00    +0.000 Cl
ATOM     28  N   UNL     1       9.083  14.997  23.989  0.00  0.00    +0.000 NA
ATOM     29  N   UNL     1       8.768  14.242  22.936  0.00  0.00    +0.000 NA
ATOM     30  C   UNL     1       8.451  12.197  20.922  0.00  0.00    +0.000 C 
ATOM     31  C   UNL     1       9.500  11.133  20.587  0.00  0.00    +0.000 C 
ENDBRANCH  18  19
ENDBRANCH  17  18
ENDBRANCH   1  17
TORSDOF 5
ENDMDL
MODEL 5
REMARK VINA RESULT:      -8.5      6.920      8.548
REMARK  Name = 
REMARK  5 active torsions:
REMARK  status: ('A' for Active; 'I' for Inactive)
REMARK    1  A    between atoms: N_14  and  C_15
REMARK    2  A    between atoms: C_15  and  C_16
REMARK    3  A    between atoms: C_16  and  C_17
REMARK    4  A    between atoms: C_17  and  C_18
REMARK    5  A    between atoms: C_18  and  N_19
REMARK                            x       y       z     vdW  Elec       q    Type
REMARK                         _______ _______ _______ _____ _____    ______ ____
ROOT
ATOM      1  C   UNL     1       2.277   4.658  20.843  0.00  0.00    +0.000 C 
ENDROOT
BRANCH   1   2
ATOM      2  C   UNL     1       3.014   3.595  20.032  0.00  0.00    +0.000 C 
BRANCH   2  16
ATOM      3  O   UNL     1       5.742   4.455  20.003  0.00  0.00    +0.000 OA
ATOM      4  C   UNL     1       5.136   4.335  18.949  0.00  0.00    +0.000 C 
ATOM      5  C   UNL     1       5.814   4.146  17.613  0.00  0.00    +0.000 C 
ATOM      6  C   UNL     1       6.843   5.122  16.963  0.00  0.00    +0.000 C 
ATOM      7  C   UNL     1       6.161   6.444  16.683  0.00  0.00    +0.000 C 
ATOM      8  C   UNL     1       5.059   6.358  15.925  0.00  0.00    +0.000 C 
ATOM      9  C   UNL     1       4.714   4.951  15.452  0.00  0.00    +0.000 C 
ATOM     10  C   UNL     1       5.936   4.362  14.659  0.00  0.00    +0.000 C 
ATOM     11  C   UNL     1       7.207   5.111  14.256  0.00  0.00    +0.000 C 
ATOM     12  C   UNL     1       7.192   4.403  15.602  0.00  0.00    +0.000 C 
ATOM     13  C   UNL     1       4.601   3.958  16.656  0.00  0.00    +0.000 C 
ATOM     14  C   UNL     1       3.439   3.922  17.587  0.00  0.00    +0.000 C 
ATOM     15  O   UNL     1       2.313   3.617  17.228  0.00  0.00    +0.000 OA
ATOM     16  N   UNL     1       3.809   4.048  18.881  0.00  0.00    +0.000 N 
ENDBRANCH   2  16
ENDBRANCH   1   2
BRANCH   1  17
ATOM     17  C   UNL     1       2.242   6.033  20.105  0.00  0.00    +0.000 C 
BRANCH  17  18
ATOM     18  C   UNL     1       1.073   6.940  20.533  0.00  0.00    +0.000 C 
BRANCH  18  19
ATOM     19  N   UNL     1       1.541   8.323  20.733  0.00  0.00    +0.000 NA
ATOM     20  C   UNL     1       1.158   9.299  19.682  0.00  0.00    +0.000 C 
ATOM     21  C   UNL     1      -0.209   9.938  19.938  0.00  0.00    +0.000 C 
ATOM     22  N   UNL     1      -0.229  10.440  21.301  0.00  0.00    +0.000 N 
ATOM     23  C   UNL     1      -0.263  11.833  21.645  0.00  0.00    +0.000 A 
ATOM     24  C   UNL     1       0.091  12.839  20.728  0.00  0.00    +0.000 A 
ATOM     25  C   UNL     1       0.123  14.168  21.145  0.00  0.00    +0.000 A 
ATOM     26  C   UNL     1      -0.211  14.477  22.460  0.00  0.00    +0.000 A 
ATOM     27 CL   UNL     1      -0.178  16.135  23.026  0.00  0.00    +0.000 Cl
ATOM     28  N   UNL     1      -0.550  13.480  23.313  0.00  0.00    +0.000 NA
ATOM     29  N   UNL     1      -0.565  12.205  22.922  0.00  0.00    +0.000 NA
ATOM     30  C   UNL     1      -0.045   9.428  22.325  0.00  0.00    +0.000 C 
ATOM     31  C   UNL     1       1.348   8.829  22.111  0.00  0.00    +0.000 C 
ENDBRANCH  18  19
ENDBRANCH  17  18
ENDBRANCH   1  17
TORSDOF 5
ENDMDL
MODEL 6
REMARK VINA RESULT:      -8.5      6.247      7.663
REMARK  Name = 
REMARK  5 active torsions:
REMARK  status: ('A' for Active; 'I' for Inactive)
REMARK    1  A    between atoms: N_14  and  C_15
REMARK    2  A    between atoms: C_15  and  C_16
REMARK    3  A    between atoms: C_16  and  C_17
REMARK    4  A    between atoms: C_17  and  C_18
REMARK    5  A    between atoms: C_18  and  N_19
REMARK                            x       y       z     vdW  Elec       q    Type
REMARK                         _______ _______ _______ _____ _____    ______ ____
ROOT
ATOM      1  C   UNL     1       2.000   3.743  20.333  0.00  0.00    +0.000 C 
ENDROOT
BRANCH   1   2
ATOM      2  C   UNL     1       3.456   3.336  20.124  0.00  0.00    +0.000 C 
BRANCH   2  16
ATOM      3  O   UNL     1       5.967   4.699  19.982  0.00  0.00    +0.000 OA
ATOM      4  C   UNL     1       5.389   4.390  18.951  0.00  0.00    +0.000 C 
ATOM      5  C   UNL     1       6.081   4.241  17.618  0.00  0.00    +0.000 C 
ATOM      6  C   UNL     1       6.898   5.349  16.883  0.00  0.00    +0.000 C 
ATOM      7  C   UNL     1       5.972   6.492  16.527  0.00  0.00    +0.000 C 
ATOM      8  C   UNL     1       4.902   6.142  15.799  0.00  0.00    +0.000 C 
ATOM      9  C   UNL     1       4.832   4.665  15.429  0.00  0.00    +0.000 C 
ATOM     10  C   UNL     1       6.141   4.268  14.654  0.00  0.00    +0.000 C 
ATOM     11  C   UNL     1       7.240   5.216  14.176  0.00  0.00    +0.000 C 
ATOM     12  C   UNL     1       7.371   4.616  15.567  0.00  0.00    +0.000 C 
ATOM     13  C   UNL     1       4.921   3.757  16.701  0.00  0.00    +0.000 C 
ATOM     14  C   UNL     1       3.794   3.564  17.654  0.00  0.00    +0.000 C 
ATOM     15  O   UNL     1       2.746   3.024  17.340  0.00  0.00    +0.000 OA
ATOM     16  N   UNL     1       4.141   3.851  18.930  0.00  0.00    +0.000 N 
ENDBRANCH   2  16
ENDBRANCH   1   2
BRANCH   1  17
ATOM     17  C   UNL     1       1.860   5.268  20.638  0.00  0.00    +0.000 C 
BRANCH  17  18
ATOM     18  C   UNL     1       1.661   6.138  19.383  0.00  0.00    +0.000 C 
BRANCH  18  19
ATOM     19  N   UNL     1       2.361   7.426  19.533  0.00  0.00    +0.000 NA
ATOM     20  C   UNL     1       2.722   8.122  18.273  0.00  0.00    +0.000 C 
ATOM     21  C   UNL     1       1.600   9.022  17.752  0.00  0.00    +0.000 C 
ATOM     22  N   UNL     1       1.161   9.879  18.840  0.00  0.00    +0.000 N 
ATOM     23  C   UNL     1       1.368  11.298  18.882  0.00  0.00    +0.000 A 
ATOM     24  C   UNL     1       2.325  11.938  18.073  0.00  0.00    +0.000 A 
ATOM     25  C   UNL     1       2.542  13.307  18.219  0.00  0.00    +0.000 A 
ATOM     26  C   UNL     1       1.797  14.018  19.155  0.00  0.00    +0.000 A 
ATOM     27 CL   UNL     1       2.044  15.739  19.373  0.00  0.00    +0.000 Cl
ATOM     28  N   UNL     1       0.882  13.366  19.913  0.00  0.00    +0.000 NA
ATOM     29  N   UNL     1       0.683  12.054  19.787  0.00  0.00    +0.000 NA
ATOM     30  C   UNL     1       0.628   9.174  19.991  0.00  0.00    +0.000 C 
ATOM     31  C   UNL     1       1.766   8.318  20.554  0.00  0.00    +0.000 C 
ENDBRANCH  18  19
ENDBRANCH  17  18
ENDBRANCH   1  17
TORSDOF 5
ENDMDL
MODEL 7
REMARK VINA RESULT:      -8.4      8.027     10.444
REMARK  Name = 
REMARK  5 active torsions:
REMARK  status: ('A' for Active; 'I' for Inactive)
REMARK    1  A    between atoms: N_14  and  C_15
REMARK    2  A    between atoms: C_15  and  C_16
REMARK    3  A    between atoms: C_16  and  C_17
REMARK    4  A    between atoms: C_17  and  C_18
REMARK    5  A    between atoms: C_18  and  N_19
REMARK                            x       y       z     vdW  Elec       q    Type
REMARK                         _______ _______ _______ _____ _____    ______ ____
ROOT
ATOM      1  C   UNL     1       0.952   9.556  18.180  0.00  0.00    +0.000 C 
ENDROOT
BRANCH   1   2
ATOM      2  C   UNL     1       2.227   9.007  18.816  0.00  0.00    +0.000 C 
BRANCH   2  16
ATOM      3  O   UNL     1       3.693   7.401  16.959  0.00  0.00    +0.000 OA
ATOM      4  C   UNL     1       3.216   6.884  17.958  0.00  0.00    +0.000 C 
ATOM      5  C   UNL     1       3.714   5.586  18.545  0.00  0.00    +0.000 C 
ATOM      6  C   UNL     1       3.774   4.212  17.808  0.00  0.00    +0.000 C 
ATOM      7  C   UNL     1       2.367   3.775  17.460  0.00  0.00    +0.000 C 
ATOM      8  C   UNL     1       1.527   3.707  18.503  0.00  0.00    +0.000 C 
ATOM      9  C   UNL     1       2.149   4.045  19.852  0.00  0.00    +0.000 C 
ATOM     10  C   UNL     1       3.371   3.089  20.107  0.00  0.00    +0.000 C 
ATOM     11  C   UNL     1       3.786   1.893  19.251  0.00  0.00    +0.000 C 
ATOM     12  C   UNL     1       4.374   3.253  18.909  0.00  0.00    +0.000 C 
ATOM     13  C   UNL     1       2.838   5.450  19.824  0.00  0.00    +0.000 C 
ATOM     14  C   UNL     1       2.087   6.735  19.858  0.00  0.00    +0.000 C 
ATOM     15  O   UNL     1       1.412   7.083  20.813  0.00  0.00    +0.000 OA
ATOM     16  N   UNL     1       2.407   7.549  18.826  0.00  0.00    +0.000 N 
ENDBRANCH   2  16
ENDBRANCH   1   2
BRANCH   1  17
ATOM     17  C   UNL     1       0.688  11.039  18.588  0.00  0.00    +0.000 C 
BRANCH  17  18
ATOM     18  C   UNL     1       0.767  11.291  20.105  0.00  0.00    +0.000 C 
BRANCH  18  19
ATOM     19  N   UNL     1      -0.506  10.932  20.754  0.00  0.00    +0.000 NA
ATOM     20  C   UNL     1      -0.539  11.047  22.233  0.00  0.00    +0.000 C 
ATOM     21  C   UNL     1      -0.924  12.449  22.709  0.00  0.00    +0.000 C 
ATOM     22  N   UNL     1      -2.139  12.846  22.020  0.00  0.00    +0.000 N 
ATOM     23  C   UNL     1      -3.412  13.010  22.662  0.00  0.00    +0.000 A 
ATOM     24  C   UNL     1      -3.691  12.451  23.924  0.00  0.00    +0.000 A 
ATOM     25  C   UNL     1      -4.972  12.568  24.458  0.00  0.00    +0.000 A 
ATOM     26  C   UNL     1      -5.950  13.249  23.740  0.00  0.00    +0.000 A 
ATOM     27 CL   UNL     1      -7.574  13.414  24.375  0.00  0.00    +0.000 Cl
ATOM     28  N   UNL     1      -5.642  13.777  22.530  0.00  0.00    +0.000 NA
ATOM     29  N   UNL     1      -4.421  13.652  22.007  0.00  0.00    +0.000 NA
ATOM     30  C   UNL     1      -2.025  12.915  20.576  0.00  0.00    +0.000 C 
ATOM     31  C   UNL     1      -1.701  11.500  20.088  0.00  0.00    +0.000 C 
ENDBRANCH  18  19
ENDBRANCH  17  18
ENDBRANCH   1  17
TORSDOF 5
ENDMDL
MODEL 8
REMARK VINA RESULT:      -8.3      6.560      7.964
REMARK  Name = 
REMARK  5 active torsions:
REMARK  status: ('A' for Active; 'I' for Inactive)
REMARK    1  A    between atoms: N_14  and  C_15
REMARK    2  A    between atoms: C_15  and  C_16
REMARK    3  A    between atoms: C_16  and  C_17
REMARK    4  A    between atoms: C_17  and  C_18
REMARK    5  A    between atoms: C_18  and  N_19
REMARK                            x       y       z     vdW  Elec       q    Type
REMARK                         _______ _______ _______ _____ _____    ______ ____
ROOT
ATOM      1  C   UNL     1       1.571   3.837  20.173  0.00  0.00    +0.000 C 
ENDROOT
BRANCH   1   2
ATOM      2  C   UNL     1       2.886   3.129  19.856  0.00  0.00    +0.000 C 
BRANCH   2  16
ATOM      3  O   UNL     1       5.531   4.200  20.045  0.00  0.00    +0.000 OA
ATOM      4  C   UNL     1       5.008   4.075  18.948  0.00  0.00    +0.000 C 
ATOM      5  C   UNL     1       5.786   3.994  17.657  0.00  0.00    +0.000 C 
ATOM      6  C   UNL     1       6.773   5.074  17.114  0.00  0.00    +0.000 C 
ATOM      7  C   UNL     1       6.007   6.348  16.834  0.00  0.00    +0.000 C 
ATOM      8  C   UNL     1       4.968   6.207  16.000  0.00  0.00    +0.000 C 
ATOM      9  C   UNL     1       4.769   4.798  15.454  0.00  0.00    +0.000 C 
ATOM     10  C   UNL     1       6.085   4.339  14.728  0.00  0.00    +0.000 C 
ATOM     11  C   UNL     1       7.315   5.201  14.440  0.00  0.00    +0.000 C 
ATOM     12  C   UNL     1       7.269   4.440  15.756  0.00  0.00    +0.000 C 
ATOM     13  C   UNL     1       4.657   3.751  16.613  0.00  0.00    +0.000 C 
ATOM     14  C   UNL     1       3.444   3.587  17.459  0.00  0.00    +0.000 C 
ATOM     15  O   UNL     1       2.372   3.210  17.012  0.00  0.00    +0.000 OA
ATOM     16  N   UNL     1       3.715   3.689  18.779  0.00  0.00    +0.000 N 
ENDBRANCH   2  16
ENDBRANCH   1   2
BRANCH   1  17
ATOM     17  C   UNL     1       1.791   5.337  20.543  0.00  0.00    +0.000 C 
BRANCH  17  18
ATOM     18  C   UNL     1       1.625   6.303  19.355  0.00  0.00    +0.000 C 
BRANCH  18  19
ATOM     19  N   UNL     1       2.241   7.606  19.661  0.00  0.00    +0.000 NA
ATOM     20  C   UNL     1       2.222   8.608  18.566  0.00  0.00    +0.000 C 
ATOM     21  C   UNL     1       0.941   9.444  18.551  0.00  0.00    +0.000 C 
ATOM     22  N   UNL     1       0.725   9.969  19.889  0.00  0.00    +0.000 N 
ATOM     23  C   UNL     1       0.827  11.357  20.235  0.00  0.00    +0.000 A 
ATOM     24  C   UNL     1       1.501  12.284  19.418  0.00  0.00    +0.000 A 
ATOM     25  C   UNL     1       1.643  13.602  19.849  0.00  0.00    +0.000 A 
ATOM     26  C   UNL     1       1.104  13.980  21.074  0.00  0.00    +0.000 A 
ATOM     27 CL   UNL     1       1.267  15.625  21.654  0.00  0.00    +0.000 Cl
ATOM     28  N   UNL     1       0.459  13.058  21.832  0.00  0.00    +0.000 NA
ATOM     29  N   UNL     1       0.335  11.793  21.430  0.00  0.00    +0.000 NA
ATOM     30  C   UNL     1       0.551   8.960  20.917  0.00  0.00    +0.000 C 
ATOM     31  C   UNL     1       1.855   8.159  20.978  0.00  0.00    +0.000 C 
ENDBRANCH  18  19
ENDBRANCH  17  18
ENDBRANCH   1  17
TORSDOF 5
ENDMDL
MODEL 9
REMARK VINA RESULT:      -8.3      7.264      9.177
REMARK  Name = 
REMARK  5 active torsions:
REMARK  status: ('A' for Active; 'I' for Inactive)
REMARK    1  A    between atoms: N_14  and  C_15
REMARK    2  A    between atoms: C_15  and  C_16
REMARK    3  A    between atoms: C_16  and  C_17
REMARK    4  A    between atoms: C_17  and  C_18
REMARK    5  A    between atoms: C_18  and  N_19
REMARK                            x       y       z     vdW  Elec       q    Type
REMARK                         _______ _______ _______ _____ _____    ______ ____
ROOT
ATOM      1  C   UNL     1       2.113   5.319  20.750  0.00  0.00    +0.000 C 
ENDROOT
BRANCH   1   2
ATOM      2  C   UNL     1       2.872   4.158  20.114  0.00  0.00    +0.000 C 
BRANCH   2  16
ATOM      3  O   UNL     1       5.646   4.853  20.061  0.00  0.00    +0.000 OA
ATOM      4  C   UNL     1       5.050   4.669  19.010  0.00  0.00    +0.000 C 
ATOM      5  C   UNL     1       5.735   4.316  17.713  0.00  0.00    +0.000 C 
ATOM      6  C   UNL     1       6.830   5.166  16.996  0.00  0.00    +0.000 C 
ATOM      7  C   UNL     1       6.232   6.492  16.580  0.00  0.00    +0.000 C 
ATOM      8  C   UNL     1       5.138   6.398  15.810  0.00  0.00    +0.000 C 
ATOM      9  C   UNL     1       4.717   4.975  15.463  0.00  0.00    +0.000 C 
ATOM     10  C   UNL     1       5.915   4.245  14.755  0.00  0.00    +0.000 C 
ATOM     11  C   UNL     1       7.234   4.879  14.310  0.00  0.00    +0.000 C 
ATOM     12  C   UNL     1       7.157   4.303  15.715  0.00  0.00    +0.000 C 
ATOM     13  C   UNL     1       4.528   4.109  16.753  0.00  0.00    +0.000 C 
ATOM     14  C   UNL     1       3.352   4.227  17.658  0.00  0.00    +0.000 C 
ATOM     15  O   UNL     1       2.216   3.955  17.306  0.00  0.00    +0.000 OA
ATOM     16  N   UNL     1       3.709   4.454  18.943  0.00  0.00    +0.000 N 
ENDBRANCH   2  16
ENDBRANCH   1   2
BRANCH   1  17
ATOM     17  C   UNL     1       1.877   6.485  19.739  0.00  0.00    +0.000 C 
BRANCH  17  18
ATOM     18  C   UNL     1       1.988   7.887  20.367  0.00  0.00    +0.000 C 
BRANCH  18  19
ATOM     19  N   UNL     1       0.660   8.517  20.458  0.00  0.00    +0.000 NA
ATOM     20  C   UNL     1      -0.036   8.386  21.763  0.00  0.00    +0.000 C 
ATOM     21  C   UNL     1       0.336   9.497  22.746  0.00  0.00    +0.000 C 
ATOM     22  N   UNL     1       0.175  10.774  22.073  0.00  0.00    +0.000 N 
ATOM     23  C   UNL     1      -0.833  11.739  22.407  0.00  0.00    +0.000 A 
ATOM     24  C   UNL     1      -1.979  11.397  23.149  0.00  0.00    +0.000 A 
ATOM     25  C   UNL     1      -2.966  12.355  23.368  0.00  0.00    +0.000 A 
ATOM     26  C   UNL     1      -2.794  13.639  22.859  0.00  0.00    +0.000 A 
ATOM     27 CL   UNL     1      -4.014  14.871  23.107  0.00  0.00    +0.000 Cl
ATOM     28  N   UNL     1      -1.675  13.931  22.151  0.00  0.00    +0.000 NA
ATOM     29  N   UNL     1      -0.736  13.011  21.926  0.00  0.00    +0.000 NA
ATOM     30  C   UNL     1       1.015  10.956  20.904  0.00  0.00    +0.000 C 
ATOM     31  C   UNL     1       0.603   9.883  19.891  0.00  0.00    +0.000 C 
ENDBRANCH  18  19
ENDBRANCH  17  18
ENDBRANCH   1  17
TORSDOF 5
ENDMDL
