MODEL 1
REMARK VINA RESULT:      -5.4      0.000      0.000
REMARK  Name = 
REMARK  3 active torsions:
REMARK  status: ('A' for Active; 'I' for Inactive)
REMARK    1  A    between atoms: C_1  and  N_2
REMARK    2  A    between atoms: N_7  and  C_8
REMARK    3  A    between atoms: C_8  and  C_9
REMARK                            x       y       z     vdW  Elec       q    Type
REMARK                         _______ _______ _______ _____ _____    ______ ____
ROOT
ATOM      1  C   UNL     1       3.564   1.452  18.485  0.00  0.00    +0.000 C 
ATOM      2  N   UNL     1       3.267   2.865  18.503  0.00  0.00    +0.000 N 
ATOM      3  C   UNL     1       1.891   3.299  18.354  0.00  0.00    +0.000 C 
ATOM      4  C   UNL     1       2.056   4.717  17.830  0.00  0.00    +0.000 C 
ATOM      5  C   UNL     1       3.335   5.217  18.494  0.00  0.00    +0.000 C 
ATOM      6  C   UNL     1       4.131   3.927  18.679  0.00  0.00    +0.000 C 
ATOM      7  N   UNL     1       5.392   3.870  18.960  0.00  0.00    +0.000 NA
ENDROOT
BRANCH   7   8
ATOM      8  C   UNL     1       6.041   5.200  19.186  0.00  0.00    +0.000 C 
BRANCH   8   9
ATOM      9  C   UNL     1       7.293   5.480  18.352  0.00  0.00    +0.000 C 
ATOM     10  F   UNL     1       7.056   6.274  17.285  0.00  0.00    +0.000 F 
ATOM     11  F   UNL     1       8.252   6.078  19.097  0.00  0.00    +0.000 F 
ATOM     12  F   UNL     1       7.828   4.321  17.883  0.00  0.00    +0.000 F 
ENDBRANCH   8   9
ENDBRANCH   7   8
TORSDOF 2
ENDMDL
MODEL 2
REMARK VINA RESULT:      -5.3      4.054      5.084
REMARK  Name = 
REMARK  3 active torsions:
REMARK  status: ('A' for Active; 'I' for Inactive)
REMARK    1  A    between atoms: C_1  and  N_2
REMARK    2  A    between atoms: N_7  and  C_8
REMARK    3  A    between atoms: C_8  and  C_9
REMARK                            x       y       z     vdW  Elec       q    Type
REMARK                         _______ _______ _______ _____ _____    ______ ____
ROOT
ATOM      1  C   UNL     1       6.289   5.344  19.320  0.00  0.00    +0.000 C 
ATOM      2  N   UNL     1       5.455   4.529  18.469  0.00  0.00    +0.000 N 
ATOM      3  C   UNL     1       5.796   4.396  17.066  0.00  0.00    +0.000 C 
ATOM      4  C   UNL     1       4.458   4.030  16.443  0.00  0.00    +0.000 C 
ATOM      5  C   UNL     1       3.754   3.209  17.520  0.00  0.00    +0.000 C 
ATOM      6  C   UNL     1       4.338   3.792  18.805  0.00  0.00    +0.000 C 
ATOM      7  N   UNL     1       3.853   3.602  19.989  0.00  0.00    +0.000 NA
ENDROOT
BRANCH   7   8
ATOM      8  C   UNL     1       2.683   2.669  20.042  0.00  0.00    +0.000 C 
BRANCH   8   9
ATOM      9  C   UNL     1       1.401   3.245  20.649  0.00  0.00    +0.000 C 
ATOM     10  F   UNL     1       0.333   3.148  19.827  0.00  0.00    +0.000 F 
ATOM     11  F   UNL     1       1.083   2.615  21.803  0.00  0.00    +0.000 F 
ATOM     12  F   UNL     1       1.561   4.561  20.952  0.00  0.00    +0.000 F 
ENDBRANCH   8   9
ENDBRANCH   7   8
TORSDOF 2
ENDMDL
MODEL 3
REMARK VINA RESULT:      -5.2      1.120      1.616
REMARK  Name = 
REMARK  3 active torsions:
REMARK  status: ('A' for Active; 'I' for Inactive)
REMARK    1  A    between atoms: C_1  and  N_2
REMARK    2  A    between atoms: N_7  and  C_8
REMARK    3  A    between atoms: C_8  and  C_9
REMARK                            x       y       z     vdW  Elec       q    Type
REMARK                         _______ _______ _______ _____ _____    ______ ____
ROOT
ATOM      1  C   UNL     1       4.320   2.062  20.735  0.00  0.00    +0.000 C 
ATOM      2  N   UNL     1       3.939   2.759  19.530  0.00  0.00    +0.000 N 
ATOM      3  C   UNL     1       2.715   2.380  18.851  0.00  0.00    +0.000 C 
ATOM      4  C   UNL     1       2.975   2.851  17.429  0.00  0.00    +0.000 C 
ATOM      5  C   UNL     1       3.836   4.100  17.599  0.00  0.00    +0.000 C 
ATOM      6  C   UNL     1       4.579   3.808  18.900  0.00  0.00    +0.000 C 
ATOM      7  N   UNL     1       5.618   4.454  19.318  0.00  0.00    +0.000 NA
ENDROOT
BRANCH   7   8
ATOM      8  C   UNL     1       6.022   5.611  18.458  0.00  0.00    +0.000 C 
BRANCH   8   9
ATOM      9  C   UNL     1       7.497   5.656  18.053  0.00  0.00    +0.000 C 
ATOM     10  F   UNL     1       7.972   4.462  17.635  0.00  0.00    +0.000 F 
ATOM     11  F   UNL     1       7.702   6.546  17.055  0.00  0.00    +0.000 F 
ATOM     12  F   UNL     1       8.271   6.056  19.098  0.00  0.00    +0.000 F 
ENDBRANCH   8   9
ENDBRANCH   7   8
TORSDOF 2
ENDMDL
MODEL 4
REMARK VINA RESULT:      -5.2      3.968      4.994
REMARK  Name = 
REMARK  3 active torsions:
REMARK  status: ('A' for Active; 'I' for Inactive)
REMARK    1  A    between atoms: C_1  and  N_2
REMARK    2  A    between atoms: N_7  and  C_8
REMARK    3  A    between atoms: C_8  and  C_9
REMARK                            x       y       z     vdW  Elec       q    Type
REMARK                         _______ _______ _______ _____ _____    ______ ____
ROOT
ATOM      1  C   UNL     1       6.340   5.275  18.940  0.00  0.00    +0.000 C 
ATOM      2  N   UNL     1       4.996   5.542  18.488  0.00  0.00    +0.000 N 
ATOM      3  C   UNL     1       4.769   6.618  17.542  0.00  0.00    +0.000 C 
ATOM      4  C   UNL     1       3.309   6.962  17.788  0.00  0.00    +0.000 C 
ATOM      5  C   UNL     1       2.667   5.629  18.162  0.00  0.00    +0.000 C 
ATOM      6  C   UNL     1       3.828   4.879  18.810  0.00  0.00    +0.000 C 
ATOM      7  N   UNL     1       3.709   3.806  19.523  0.00  0.00    +0.000 NA
ENDROOT
BRANCH   7   8
ATOM      8  C   UNL     1       2.315   3.269  19.614  0.00  0.00    +0.000 C 
BRANCH   8   9
ATOM      9  C   UNL     1       1.536   3.652  20.874  0.00  0.00    +0.000 C 
ATOM     10  F   UNL     1       2.308   4.221  21.826  0.00  0.00    +0.000 F 
ATOM     11  F   UNL     1       0.540   4.523  20.586  0.00  0.00    +0.000 F 
ATOM     12  F   UNL     1       0.949   2.558  21.429  0.00  0.00    +0.000 F 
ENDBRANCH   8   9
ENDBRANCH   7   8
TORSDOF 2
ENDMDL
MODEL 5
REMARK VINA RESULT:      -5.2      3.816      5.059
REMARK  Name = 
REMARK  3 active torsions:
REMARK  status: ('A' for Active; 'I' for Inactive)
REMARK    1  A    between atoms: C_1  and  N_2
REMARK    2  A    between atoms: N_7  and  C_8
REMARK    3  A    between atoms: C_8  and  C_9
REMARK                            x       y       z     vdW  Elec       q    Type
REMARK                         _______ _______ _______ _____ _____    ______ ____
ROOT
ATOM      1  C   UNL     1       5.620   3.957  15.780  0.00  0.00    +0.000 C 
ATOM      2  N   UNL     1       5.340   4.382  17.131  0.00  0.00    +0.000 N 
ATOM      3  C   UNL     1       6.062   5.513  17.680  0.00  0.00    +0.000 C 
ATOM      4  C   UNL     1       5.962   5.264  19.177  0.00  0.00    +0.000 C 
ATOM      5  C   UNL     1       4.603   4.594  19.356  0.00  0.00    +0.000 C 
ATOM      6  C   UNL     1       4.420   3.870  18.024  0.00  0.00    +0.000 C 
ATOM      7  N   UNL     1       3.540   2.949  17.798  0.00  0.00    +0.000 NA
ENDROOT
BRANCH   7   8
ATOM      8  C   UNL     1       2.615   2.676  18.943  0.00  0.00    +0.000 C 
BRANCH   8   9
ATOM      9  C   UNL     1       1.182   3.186  18.776  0.00  0.00    +0.000 C 
ATOM     10  F   UNL     1       0.284   2.197  18.577  0.00  0.00    +0.000 F 
ATOM     11  F   UNL     1       0.783   3.884  19.865  0.00  0.00    +0.000 F 
ATOM     12  F   UNL     1       1.094   4.033  17.715  0.00  0.00    +0.000 F 
ENDBRANCH   8   9
ENDBRANCH   7   8
TORSDOF 2
ENDMDL
MODEL 6
REMARK VINA RESULT:      -5.2      3.813      5.082
REMARK  Name = 
REMARK  3 active torsions:
REMARK  status: ('A' for Active; 'I' for Inactive)
REMARK    1  A    between atoms: C_1  and  N_2
REMARK    2  A    between atoms: N_7  and  C_8
REMARK    3  A    between atoms: C_8  and  C_9
REMARK                            x       y       z     vdW  Elec       q    Type
REMARK                         _______ _______ _______ _____ _____    ______ ____
ROOT
ATOM      1  C   UNL     1       5.607   4.050  15.725  0.00  0.00    +0.000 C 
ATOM      2  N   UNL     1       5.338   4.422  17.093  0.00  0.00    +0.000 N 
ATOM      3  C   UNL     1       6.070   5.528  17.681  0.00  0.00    +0.000 C 
ATOM      4  C   UNL     1       5.979   5.220  19.168  0.00  0.00    +0.000 C 
ATOM      5  C   UNL     1       4.618   4.549  19.330  0.00  0.00    +0.000 C 
ATOM      6  C   UNL     1       4.422   3.879  17.971  0.00  0.00    +0.000 C 
ATOM      7  N   UNL     1       3.537   2.971  17.716  0.00  0.00    +0.000 NA
ENDROOT
BRANCH   7   8
ATOM      8  C   UNL     1       2.618   2.657  18.855  0.00  0.00    +0.000 C 
BRANCH   8   9
ATOM      9  C   UNL     1       1.198   3.218  18.738  0.00  0.00    +0.000 C 
ATOM     10  F   UNL     1       1.043   4.062  17.695  0.00  0.00    +0.000 F 
ATOM     11  F   UNL     1       0.292   2.223  18.593  0.00  0.00    +0.000 F 
ATOM     12  F   UNL     1       0.855   3.898  19.865  0.00  0.00    +0.000 F 
ENDBRANCH   8   9
ENDBRANCH   7   8
TORSDOF 2
ENDMDL
MODEL 7
REMARK VINA RESULT:      -5.2      3.814      5.067
REMARK  Name = 
REMARK  3 active torsions:
REMARK  status: ('A' for Active; 'I' for Inactive)
REMARK    1  A    between atoms: C_1  and  N_2
REMARK    2  A    between atoms: N_7  and  C_8
REMARK    3  A    between atoms: C_8  and  C_9
REMARK                            x       y       z     vdW  Elec       q    Type
REMARK                         _______ _______ _______ _____ _____    ______ ____
ROOT
ATOM      1  C   UNL     1       5.588   4.076  15.723  0.00  0.00    +0.000 C 
ATOM      2  N   UNL     1       5.340   4.458  17.092  0.00  0.00    +0.000 N 
ATOM      3  C   UNL     1       6.092   5.557  17.666  0.00  0.00    +0.000 C 
ATOM      4  C   UNL     1       6.016   5.258  19.155  0.00  0.00    +0.000 C 
ATOM      5  C   UNL     1       4.649   4.604  19.337  0.00  0.00    +0.000 C 
ATOM      6  C   UNL     1       4.429   3.930  17.985  0.00  0.00    +0.000 C 
ATOM      7  N   UNL     1       3.529   3.032  17.745  0.00  0.00    +0.000 NA
ENDROOT
BRANCH   7   8
ATOM      8  C   UNL     1       2.621   2.735  18.897  0.00  0.00    +0.000 C 
BRANCH   8   9
ATOM      9  C   UNL     1       1.188   3.258  18.767  0.00  0.00    +0.000 C 
ATOM     10  F   UNL     1       0.766   3.932  19.859  0.00  0.00    +0.000 F 
ATOM     11  F   UNL     1       1.068   4.088  17.705  0.00  0.00    +0.000 F 
ATOM     12  F   UNL     1       0.319   2.232  18.562  0.00  0.00    +0.000 F 
ENDBRANCH   8   9
ENDBRANCH   7   8
TORSDOF 2
ENDMDL
MODEL 8
REMARK VINA RESULT:      -5.2      4.094      5.162
REMARK  Name = 
REMARK  3 active torsions:
REMARK  status: ('A' for Active; 'I' for Inactive)
REMARK    1  A    between atoms: C_1  and  N_2
REMARK    2  A    between atoms: N_7  and  C_8
REMARK    3  A    between atoms: C_8  and  C_9
REMARK                            x       y       z     vdW  Elec       q    Type
REMARK                         _______ _______ _______ _____ _____    ______ ____
ROOT
ATOM      1  C   UNL     1       6.068   5.223  18.930  0.00  0.00    +0.000 C 
ATOM      2  N   UNL     1       4.766   5.714  18.547  0.00  0.00    +0.000 N 
ATOM      3  C   UNL     1       4.653   6.602  17.405  0.00  0.00    +0.000 C 
ATOM      4  C   UNL     1       3.352   7.335  17.694  0.00  0.00    +0.000 C 
ATOM      5  C   UNL     1       2.491   6.301  18.413  0.00  0.00    +0.000 C 
ATOM      6  C   UNL     1       3.537   5.435  19.111  0.00  0.00    +0.000 C 
ATOM      7  N   UNL     1       3.284   4.588  20.055  0.00  0.00    +0.000 NA
ENDROOT
BRANCH   7   8
ATOM      8  C   UNL     1       1.832   4.437  20.386  0.00  0.00    +0.000 C 
BRANCH   8   9
ATOM      9  C   UNL     1       1.308   3.000  20.437  0.00  0.00    +0.000 C 
ATOM     10  F   UNL     1       2.214   2.087  20.023  0.00  0.00    +0.000 F 
ATOM     11  F   UNL     1       0.936   2.661  21.694  0.00  0.00    +0.000 F 
ATOM     12  F   UNL     1       0.206   2.862  19.653  0.00  0.00    +0.000 F 
ENDBRANCH   8   9
ENDBRANCH   7   8
TORSDOF 2
ENDMDL
MODEL 9
REMARK VINA RESULT:      -5.2      1.239      1.407
REMARK  Name = 
REMARK  3 active torsions:
REMARK  status: ('A' for Active; 'I' for Inactive)
REMARK    1  A    between atoms: C_1  and  N_2
REMARK    2  A    between atoms: N_7  and  C_8
REMARK    3  A    between atoms: C_8  and  C_9
REMARK                            x       y       z     vdW  Elec       q    Type
REMARK                         _______ _______ _______ _____ _____    ______ ____
ROOT
ATOM      1  C   UNL     1       3.687   2.369  20.534  0.00  0.00    +0.000 C 
ATOM      2  N   UNL     1       3.407   3.373  19.536  0.00  0.00    +0.000 N 
ATOM      3  C   UNL     1       2.030   3.637  19.166  0.00  0.00    +0.000 C 
ATOM      4  C   UNL     1       2.178   4.229  17.773  0.00  0.00    +0.000 C 
ATOM      5  C   UNL     1       3.502   4.987  17.826  0.00  0.00    +0.000 C 
ATOM      6  C   UNL     1       4.292   4.188  18.859  0.00  0.00    +0.000 C 
ATOM      7  N   UNL     1       5.568   4.286  19.050  0.00  0.00    +0.000 NA
ENDROOT
BRANCH   7   8
ATOM      8  C   UNL     1       6.245   5.333  18.221  0.00  0.00    +0.000 C 
BRANCH   8   9
ATOM      9  C   UNL     1       7.101   4.815  17.064  0.00  0.00    +0.000 C 
ATOM     10  F   UNL     1       7.521   5.793  16.232  0.00  0.00    +0.000 F 
ATOM     11  F   UNL     1       8.200   4.171  17.521  0.00  0.00    +0.000 F 
ATOM     12  F   UNL     1       6.405   3.918  16.315  0.00  0.00    +0.000 F 
ENDBRANCH   8   9
ENDBRANCH   7   8
TORSDOF 2
ENDMDL
