MODEL 1
REMARK VINA RESULT:      -7.7      0.000      0.000
REMARK  Name = 
REMARK  13 active torsions:
REMARK  status: ('A' for Active; 'I' for Inactive)
REMARK    1  A    between atoms: C_1  and  C_2
REMARK    2  A    between atoms: N_4  and  C_5
REMARK    3  A    between atoms: C_7  and  C_8
REMARK    4  A    between atoms: C_9  and  C_10
REMARK    5  A    between atoms: C_11  and  C_12
REMARK    6  A    between atoms: C_12  and  O_14
REMARK    7  A    between atoms: O_14  and  C_15
REMARK    8  A    between atoms: C_15  and  C_16
REMARK    9  A    between atoms: N_18  and  C_19
REMARK   10  A    between atoms: N_18  and  C_23
REMARK   11  A    between atoms: C_19  and  C_20
REMARK   12  A    between atoms: C_20  and  C_21
REMARK   13  A    between atoms: C_20  and  C_22
REMARK                            x       y       z     vdW  Elec       q    Type
REMARK                         _______ _______ _______ _____ _____    ______ ____
ROOT
ATOM      1  O   UNL     1       1.095   8.493  18.317  0.00  0.00    +0.000 OA
ENDROOT
BRANCH   1   2
ATOM      2  C   UNL     1       1.135   9.858  18.241  0.00  0.00    +0.000 C 
ATOM      3  O   UNL     1       2.039  10.459  17.660  0.00  0.00    +0.000 OA
BRANCH   2  10
ATOM      4  C   UNL     1      -1.126  11.004  18.378  0.00  0.00    +0.000 A 
ATOM      5  S   UNL     1      -2.135  11.756  19.515  0.00  0.00    +0.000 S 
ATOM      6  C   UNL     1      -1.008  11.598  20.774  0.00  0.00    +0.000 A 
ATOM      7  C   UNL     1      -1.317  12.190  22.108  0.00  0.00    +0.000 C 
ATOM      8  C   UNL     1       0.111  10.889  20.373  0.00  0.00    +0.000 A 
ATOM      9  C   UNL     1       1.243  10.522  21.282  0.00  0.00    +0.000 C 
ATOM     10  C   UNL     1       0.055  10.539  18.953  0.00  0.00    +0.000 A 
BRANCH   4  14
ATOM     11  C   UNL     1      -2.699  10.170  15.084  0.00  0.00    +0.000 C 
ATOM     12  C   UNL     1      -2.591  10.131  16.585  0.00  0.00    +0.000 C 
ATOM     13  O   UNL     1      -3.390   9.469  17.236  0.00  0.00    +0.000 OA
ATOM     14  N   UNL     1      -1.531  10.896  17.052  0.00  0.00    +0.000 N 
ATOM     15  H   UNL     1      -1.090  11.533  16.394  0.00  0.00    +0.000 HD
ENDBRANCH   4  14
ENDBRANCH   2  10
ENDBRANCH   1   2
BRANCH   1  16
ATOM     16  C   UNL     1       2.175   7.937  19.094  0.00  0.00    +0.000 C 
BRANCH  16  17
ATOM     17  C   UNL     1       3.039   7.035  18.214  0.00  0.00    +0.000 C 
ATOM     18  O   UNL     1       3.480   7.526  17.177  0.00  0.00    +0.000 OA
ATOM     19  N   UNL     1       3.303   5.705  18.561  0.00  0.00    +0.000 N 
BRANCH  19  20
ATOM     20  C   UNL     1       4.331   4.948  17.781  0.00  0.00    +0.000 C 
ATOM     21  C   UNL     1       5.455   4.388  18.677  0.00  0.00    +0.000 C 
ATOM     22  C   UNL     1       6.522   5.468  18.785  0.00  0.00    +0.000 C 
ATOM     23  S   UNL     1       6.688   6.051  17.106  0.00  0.00    +0.000 S 
ATOM     24  O   UNL     1       7.581   5.133  16.420  0.00  0.00    +0.000 OA
ATOM     25  O   UNL     1       6.934   7.475  17.092  0.00  0.00    +0.000 OA
ATOM     26  C   UNL     1       5.012   5.659  16.587  0.00  0.00    +0.000 C 
ENDBRANCH  19  20
BRANCH  19  27
ATOM     27  C   UNL     1       2.914   5.092  19.863  0.00  0.00    +0.000 C 
BRANCH  27  28
ATOM     28  C   UNL     1       1.549   4.368  19.889  0.00  0.00    +0.000 C 
ATOM     29  C   UNL     1       1.280   3.596  18.598  0.00  0.00    +0.000 C 
ATOM     30  C   UNL     1       1.436   3.407  21.083  0.00  0.00    +0.000 C 
ENDBRANCH  27  28
ENDBRANCH  19  27
ENDBRANCH  16  17
ENDBRANCH   1  16
TORSDOF 8
ENDMDL
MODEL 2
REMARK VINA RESULT:      -7.6      1.100      1.206
REMARK  Name = 
REMARK  13 active torsions:
REMARK  status: ('A' for Active; 'I' for Inactive)
REMARK    1  A    between atoms: C_1  and  C_2
REMARK    2  A    between atoms: N_4  and  C_5
REMARK    3  A    between atoms: C_7  and  C_8
REMARK    4  A    between atoms: C_9  and  C_10
REMARK    5  A    between atoms: C_11  and  C_12
REMARK    6  A    between atoms: C_12  and  O_14
REMARK    7  A    between atoms: O_14  and  C_15
REMARK    8  A    between atoms: C_15  and  C_16
REMARK    9  A    between atoms: N_18  and  C_19
REMARK   10  A    between atoms: N_18  and  C_23
REMARK   11  A    between atoms: C_19  and  C_20
REMARK   12  A    between atoms: C_20  and  C_21
REMARK   13  A    between atoms: C_20  and  C_22
REMARK                            x       y       z     vdW  Elec       q    Type
REMARK                         _______ _______ _______ _____ _____    ______ ____
ROOT
ATOM      1  O   UNL     1       0.811   9.292  18.179  0.00  0.00    +0.000 OA
ENDROOT
BRANCH   1   2
ATOM      2  C   UNL     1       0.837  10.632  18.454  0.00  0.00    +0.000 C 
ATOM      3  O   UNL     1       1.841  11.322  18.272  0.00  0.00    +0.000 OA
BRANCH   2  10
ATOM      4  C   UNL     1      -1.600  11.337  18.349  0.00  0.00    +0.000 A 
ATOM      5  S   UNL     1      -2.808  11.986  19.346  0.00  0.00    +0.000 S 
ATOM      6  C   UNL     1      -1.765  12.162  20.673  0.00  0.00    +0.000 A 
ATOM      7  C   UNL     1      -2.273  12.805  21.919  0.00  0.00    +0.000 C 
ATOM      8  C   UNL     1      -0.509  11.643  20.408  0.00  0.00    +0.000 A 
ATOM      9  C   UNL     1       0.603  11.583  21.410  0.00  0.00    +0.000 C 
ATOM     10  C   UNL     1      -0.398  11.159  19.032  0.00  0.00    +0.000 A 
BRANCH   4  14
ATOM     11  C   UNL     1      -2.788   9.944  15.083  0.00  0.00    +0.000 C 
ATOM     12  C   UNL     1      -2.795  10.084  16.582  0.00  0.00    +0.000 C 
ATOM     13  O   UNL     1      -3.553   9.394  17.255  0.00  0.00    +0.000 OA
ATOM     14  N   UNL     1      -1.881  11.031  17.023  0.00  0.00    +0.000 N 
ATOM     15  H   UNL     1      -1.474  11.646  16.323  0.00  0.00    +0.000 HD
ENDBRANCH   4  14
ENDBRANCH   2  10
ENDBRANCH   1   2
BRANCH   1  16
ATOM     16  C   UNL     1       1.794   8.543  18.921  0.00  0.00    +0.000 C 
BRANCH  16  17
ATOM     17  C   UNL     1       2.779   7.881  17.959  0.00  0.00    +0.000 C 
ATOM     18  O   UNL     1       3.032   8.484  16.919  0.00  0.00    +0.000 OA
ATOM     19  N   UNL     1       3.353   6.635  18.237  0.00  0.00    +0.000 N 
BRANCH  19  20
ATOM     20  C   UNL     1       4.472   6.148  17.371  0.00  0.00    +0.000 C 
ATOM     21  C   UNL     1       4.497   4.610  17.251  0.00  0.00    +0.000 C 
ATOM     22  C   UNL     1       5.337   4.084  18.407  0.00  0.00    +0.000 C 
ATOM     23  S   UNL     1       6.750   5.176  18.418  0.00  0.00    +0.000 S 
ATOM     24  O   UNL     1       7.681   4.681  17.418  0.00  0.00    +0.000 OA
ATOM     25  O   UNL     1       7.180   5.424  19.775  0.00  0.00    +0.000 OA
ATOM     26  C   UNL     1       5.912   6.602  17.713  0.00  0.00    +0.000 C 
ENDBRANCH  19  20
BRANCH  19  27
ATOM     27  C   UNL     1       3.194   5.917  19.534  0.00  0.00    +0.000 C 
BRANCH  27  28
ATOM     28  C   UNL     1       1.849   5.185  19.742  0.00  0.00    +0.000 C 
ATOM     29  C   UNL     1       1.550   4.197  18.615  0.00  0.00    +0.000 C 
ATOM     30  C   UNL     1       1.806   4.442  21.087  0.00  0.00    +0.000 C 
ENDBRANCH  27  28
ENDBRANCH  19  27
ENDBRANCH  16  17
ENDBRANCH   1  16
TORSDOF 8
ENDMDL
MODEL 3
REMARK VINA RESULT:      -7.6      2.360      8.362
REMARK  Name = 
REMARK  13 active torsions:
REMARK  status: ('A' for Active; 'I' for Inactive)
REMARK    1  A    between atoms: C_1  and  C_2
REMARK    2  A    between atoms: N_4  and  C_5
REMARK    3  A    between atoms: C_7  and  C_8
REMARK    4  A    between atoms: C_9  and  C_10
REMARK    5  A    between atoms: C_11  and  C_12
REMARK    6  A    between atoms: C_12  and  O_14
REMARK    7  A    between atoms: O_14  and  C_15
REMARK    8  A    between atoms: C_15  and  C_16
REMARK    9  A    between atoms: N_18  and  C_19
REMARK   10  A    between atoms: N_18  and  C_23
REMARK   11  A    between atoms: C_19  and  C_20
REMARK   12  A    between atoms: C_20  and  C_21
REMARK   13  A    between atoms: C_20  and  C_22
REMARK                            x       y       z     vdW  Elec       q    Type
REMARK                         _______ _______ _______ _____ _____    ______ ____
ROOT
ATOM      1  O   UNL     1       2.227   7.178  17.788  0.00  0.00    +0.000 OA
ENDROOT
BRANCH   1   2
ATOM      2  C   UNL     1       3.458   6.582  17.733  0.00  0.00    +0.000 C 
ATOM      3  O   UNL     1       4.417   7.104  17.166  0.00  0.00    +0.000 OA
BRANCH   2  10
ATOM      4  C   UNL     1       4.607   4.739  19.049  0.00  0.00    +0.000 A 
ATOM      5  S   UNL     1       4.316   3.164  19.603  0.00  0.00    +0.000 S 
ATOM      6  C   UNL     1       2.800   3.066  18.846  0.00  0.00    +0.000 A 
ATOM      7  C   UNL     1       2.034   1.787  18.913  0.00  0.00    +0.000 C 
ATOM      8  C   UNL     1       2.453   4.261  18.241  0.00  0.00    +0.000 A 
ATOM      9  C   UNL     1       1.142   4.506  17.559  0.00  0.00    +0.000 C 
ATOM     10  C   UNL     1       3.519   5.256  18.348  0.00  0.00    +0.000 A 
BRANCH   4  14
ATOM     11  C   UNL     1       8.131   5.995  19.216  0.00  0.00    +0.000 C 
ATOM     12  C   UNL     1       6.980   5.261  18.581  0.00  0.00    +0.000 C 
ATOM     13  O   UNL     1       7.148   4.664  17.523  0.00  0.00    +0.000 OA
ATOM     14  N   UNL     1       5.816   5.364  19.330  0.00  0.00    +0.000 N 
ATOM     15  H   UNL     1       5.803   6.054  20.077  0.00  0.00    +0.000 HD
ENDBRANCH   4  14
ENDBRANCH   2  10
ENDBRANCH   1   2
BRANCH   1  16
ATOM     16  C   UNL     1       2.037   7.973  18.975  0.00  0.00    +0.000 C 
BRANCH  16  17
ATOM     17  C   UNL     1       1.661   9.402  18.590  0.00  0.00    +0.000 C 
ATOM     18  O   UNL     1       2.205   9.872  17.593  0.00  0.00    +0.000 OA
ATOM     19  N   UNL     1       0.753  10.153  19.346  0.00  0.00    +0.000 N 
BRANCH  19  20
ATOM     20  C   UNL     1       0.258  11.454  18.796  0.00  0.00    +0.000 C 
ATOM     21  C   UNL     1       1.274  12.598  18.990  0.00  0.00    +0.000 C 
ATOM     22  C   UNL     1       0.995  13.218  20.352  0.00  0.00    +0.000 C 
ATOM     23  S   UNL     1      -0.785  13.355  20.384  0.00  0.00    +0.000 S 
ATOM     24  O   UNL     1      -1.134  14.574  19.675  0.00  0.00    +0.000 OA
ATOM     25  O   UNL     1      -1.283  13.104  21.718  0.00  0.00    +0.000 OA
ATOM     26  C   UNL     1      -1.116  11.976  19.279  0.00  0.00    +0.000 C 
ENDBRANCH  19  20
BRANCH  19  27
ATOM     27  C   UNL     1      -0.040   9.600  20.482  0.00  0.00    +0.000 C 
BRANCH  27  28
ATOM     28  C   UNL     1       0.460   9.965  21.898  0.00  0.00    +0.000 C 
ATOM     29  C   UNL     1      -0.665   9.945  22.931  0.00  0.00    +0.000 C 
ATOM     30  C   UNL     1       1.587   9.028  22.362  0.00  0.00    +0.000 C 
ENDBRANCH  27  28
ENDBRANCH  19  27
ENDBRANCH  16  17
ENDBRANCH   1  16
TORSDOF 8
ENDMDL
MODEL 4
REMARK VINA RESULT:      -7.5      2.400      3.498
REMARK  Name = 
REMARK  13 active torsions:
REMARK  status: ('A' for Active; 'I' for Inactive)
REMARK    1  A    between atoms: C_1  and  C_2
REMARK    2  A    between atoms: N_4  and  C_5
REMARK    3  A    between atoms: C_7  and  C_8
REMARK    4  A    between atoms: C_9  and  C_10
REMARK    5  A    between atoms: C_11  and  C_12
REMARK    6  A    between atoms: C_12  and  O_14
REMARK    7  A    between atoms: O_14  and  C_15
REMARK    8  A    between atoms: C_15  and  C_16
REMARK    9  A    between atoms: N_18  and  C_19
REMARK   10  A    between atoms: N_18  and  C_23
REMARK   11  A    between atoms: C_19  and  C_20
REMARK   12  A    between atoms: C_20  and  C_21
REMARK   13  A    between atoms: C_20  and  C_22
REMARK                            x       y       z     vdW  Elec       q    Type
REMARK                         _______ _______ _______ _____ _____    ______ ____
ROOT
ATOM      1  O   UNL     1       0.894   9.082  17.888  0.00  0.00    +0.000 OA
ENDROOT
BRANCH   1   2
ATOM      2  C   UNL     1       1.060  10.397  18.227  0.00  0.00    +0.000 C 
ATOM      3  O   UNL     1       2.112  11.003  18.021  0.00  0.00    +0.000 OA
BRANCH   2  10
ATOM      4  C   UNL     1      -1.304  11.321  18.302  0.00  0.00    +0.000 A 
ATOM      5  S   UNL     1      -2.391  12.021  19.399  0.00  0.00    +0.000 S 
ATOM      6  C   UNL     1      -1.264  12.033  20.668  0.00  0.00    +0.000 A 
ATOM      7  C   UNL     1      -1.641  12.652  21.973  0.00  0.00    +0.000 C 
ATOM      8  C   UNL     1      -0.078  11.419  20.305  0.00  0.00    +0.000 A 
ATOM      9  C   UNL     1       1.078  11.207  21.234  0.00  0.00    +0.000 C 
ATOM     10  C   UNL     1      -0.088  11.001  18.903  0.00  0.00    +0.000 A 
BRANCH   4  14
ATOM     11  C   UNL     1      -2.735  10.165  15.041  0.00  0.00    +0.000 C 
ATOM     12  C   UNL     1      -2.628  10.193  16.542  0.00  0.00    +0.000 C 
ATOM     13  O   UNL     1      -3.330   9.449  17.217  0.00  0.00    +0.000 OA
ATOM     14  N   UNL     1      -1.685  11.112  16.982  0.00  0.00    +0.000 N 
ATOM     15  H   UNL     1      -1.334  11.781  16.301  0.00  0.00    +0.000 HD
ENDBRANCH   4  14
ENDBRANCH   2  10
ENDBRANCH   1   2
BRANCH   1  16
ATOM     16  C   UNL     1       2.138   8.358  17.806  0.00  0.00    +0.000 C 
BRANCH  16  17
ATOM     17  C   UNL     1       2.307   7.472  19.039  0.00  0.00    +0.000 C 
ATOM     18  O   UNL     1       1.946   7.942  20.116  0.00  0.00    +0.000 OA
ATOM     19  N   UNL     1       2.867   6.192  18.953  0.00  0.00    +0.000 N 
BRANCH  19  20
ATOM     20  C   UNL     1       2.799   5.294  20.148  0.00  0.00    +0.000 C 
ATOM     21  C   UNL     1       3.765   4.097  20.040  0.00  0.00    +0.000 C 
ATOM     22  C   UNL     1       3.018   2.981  19.323  0.00  0.00    +0.000 C 
ATOM     23  S   UNL     1       1.414   2.990  20.110  0.00  0.00    +0.000 S 
ATOM     24  O   UNL     1       1.535   2.222  21.337  0.00  0.00    +0.000 OA
ATOM     25  O   UNL     1       0.382   2.690  19.144  0.00  0.00    +0.000 OA
ATOM     26  C   UNL     1       1.419   4.730  20.561  0.00  0.00    +0.000 C 
ENDBRANCH  19  20
BRANCH  19  27
ATOM     27  C   UNL     1       3.199   5.514  17.667  0.00  0.00    +0.000 C 
BRANCH  27  28
ATOM     28  C   UNL     1       4.677   5.595  17.222  0.00  0.00    +0.000 C 
ATOM     29  C   UNL     1       5.178   4.273  16.642  0.00  0.00    +0.000 C 
ATOM     30  C   UNL     1       4.902   6.714  16.193  0.00  0.00    +0.000 C 
ENDBRANCH  27  28
ENDBRANCH  19  27
ENDBRANCH  16  17
ENDBRANCH   1  16
TORSDOF 8
ENDMDL
MODEL 5
REMARK VINA RESULT:      -7.4      2.448      3.119
REMARK  Name = 
REMARK  13 active torsions:
REMARK  status: ('A' for Active; 'I' for Inactive)
REMARK    1  A    between atoms: C_1  and  C_2
REMARK    2  A    between atoms: N_4  and  C_5
REMARK    3  A    between atoms: C_7  and  C_8
REMARK    4  A    between atoms: C_9  and  C_10
REMARK    5  A    between atoms: C_11  and  C_12
REMARK    6  A    between atoms: C_12  and  O_14
REMARK    7  A    between atoms: O_14  and  C_15
REMARK    8  A    between atoms: C_15  and  C_16
REMARK    9  A    between atoms: N_18  and  C_19
REMARK   10  A    between atoms: N_18  and  C_23
REMARK   11  A    between atoms: C_19  and  C_20
REMARK   12  A    between atoms: C_20  and  C_21
REMARK   13  A    between atoms: C_20  and  C_22
REMARK                            x       y       z     vdW  Elec       q    Type
REMARK                         _______ _______ _______ _____ _____    ______ ____
ROOT
ATOM      1  O   UNL     1       1.054   9.129  20.207  0.00  0.00    +0.000 OA
ENDROOT
BRANCH   1   2
ATOM      2  C   UNL     1       1.063   9.908  21.331  0.00  0.00    +0.000 C 
ATOM      3  O   UNL     1       1.725   9.618  22.328  0.00  0.00    +0.000 OA
BRANCH   2  10
ATOM      4  C   UNL     1       0.275  12.112  20.347  0.00  0.00    +0.000 A 
ATOM      5  S   UNL     1      -0.911  13.297  20.599  0.00  0.00    +0.000 S 
ATOM      6  C   UNL     1      -1.514  12.544  21.996  0.00  0.00    +0.000 A 
ATOM      7  C   UNL     1      -2.601  13.211  22.771  0.00  0.00    +0.000 C 
ATOM      8  C   UNL     1      -0.886  11.335  22.237  0.00  0.00    +0.000 A 
ATOM      9  C   UNL     1      -1.253  10.406  23.353  0.00  0.00    +0.000 C 
ATOM     10  C   UNL     1       0.182  11.073  21.271  0.00  0.00    +0.000 A 
BRANCH   4  14
ATOM     11  C   UNL     1       3.002  13.041  17.955  0.00  0.00    +0.000 C 
ATOM     12  C   UNL     1       2.288  13.077  19.280  0.00  0.00    +0.000 C 
ATOM     13  O   UNL     1       2.710  13.795  20.180  0.00  0.00    +0.000 OA
ATOM     14  N   UNL     1       1.178  12.243  19.299  0.00  0.00    +0.000 N 
ATOM     15  H   UNL     1       1.085  11.576  18.538  0.00  0.00    +0.000 HD
ENDBRANCH   4  14
ENDBRANCH   2  10
ENDBRANCH   1   2
BRANCH   1  16
ATOM     16  C   UNL     1       1.712   7.859  20.393  0.00  0.00    +0.000 C 
BRANCH  16  17
ATOM     17  C   UNL     1       2.334   7.397  19.076  0.00  0.00    +0.000 C 
ATOM     18  O   UNL     1       2.297   8.187  18.135  0.00  0.00    +0.000 OA
ATOM     19  N   UNL     1       2.903   6.126  18.939  0.00  0.00    +0.000 N 
BRANCH  19  20
ATOM     20  C   UNL     1       3.690   5.819  17.703  0.00  0.00    +0.000 C 
ATOM     21  C   UNL     1       3.605   4.330  17.307  0.00  0.00    +0.000 C 
ATOM     22  C   UNL     1       4.725   3.607  18.042  0.00  0.00    +0.000 C 
ATOM     23  S   UNL     1       6.127   4.691  17.823  0.00  0.00    +0.000 S 
ATOM     24  O   UNL     1       6.695   4.399  16.518  0.00  0.00    +0.000 OA
ATOM     25  O   UNL     1       6.953   4.687  19.010  0.00  0.00    +0.000 OA
ATOM     26  C   UNL     1       5.185   6.215  17.672  0.00  0.00    +0.000 C 
ENDBRANCH  19  20
BRANCH  19  27
ATOM     27  C   UNL     1       3.100   5.176  20.071  0.00  0.00    +0.000 C 
BRANCH  27  28
ATOM     28  C   UNL     1       1.824   4.491  20.609  0.00  0.00    +0.000 C 
ATOM     29  C   UNL     1       1.019   3.815  19.499  0.00  0.00    +0.000 C 
ATOM     30  C   UNL     1       2.149   3.454  21.697  0.00  0.00    +0.000 C 
ENDBRANCH  27  28
ENDBRANCH  19  27
ENDBRANCH  16  17
ENDBRANCH   1  16
TORSDOF 8
ENDMDL
MODEL 6
REMARK VINA RESULT:      -7.4      2.749      8.129
REMARK  Name = 
REMARK  13 active torsions:
REMARK  status: ('A' for Active; 'I' for Inactive)
REMARK    1  A    between atoms: C_1  and  C_2
REMARK    2  A    between atoms: N_4  and  C_5
REMARK    3  A    between atoms: C_7  and  C_8
REMARK    4  A    between atoms: C_9  and  C_10
REMARK    5  A    between atoms: C_11  and  C_12
REMARK    6  A    between atoms: C_12  and  O_14
REMARK    7  A    between atoms: O_14  and  C_15
REMARK    8  A    between atoms: C_15  and  C_16
REMARK    9  A    between atoms: N_18  and  C_19
REMARK   10  A    between atoms: N_18  and  C_23
REMARK   11  A    between atoms: C_19  and  C_20
REMARK   12  A    between atoms: C_20  and  C_21
REMARK   13  A    between atoms: C_20  and  C_22
REMARK                            x       y       z     vdW  Elec       q    Type
REMARK                         _______ _______ _______ _____ _____    ______ ____
ROOT
ATOM      1  O   UNL     1       3.034   7.837  18.033  0.00  0.00    +0.000 OA
ENDROOT
BRANCH   1   2
ATOM      2  C   UNL     1       3.273   6.605  18.577  0.00  0.00    +0.000 C 
ATOM      3  O   UNL     1       2.954   6.322  19.732  0.00  0.00    +0.000 OA
BRANCH   2  10
ATOM      4  C   UNL     1       3.551   4.405  17.339  0.00  0.00    +0.000 A 
ATOM      5  S   UNL     1       4.652   3.621  16.316  0.00  0.00    +0.000 S 
ATOM      6  C   UNL     1       5.787   4.881  16.400  0.00  0.00    +0.000 A 
ATOM      7  C   UNL     1       7.103   4.723  15.714  0.00  0.00    +0.000 C 
ATOM      8  C   UNL     1       5.307   5.954  17.130  0.00  0.00    +0.000 A 
ATOM      9  C   UNL     1       6.048   7.242  17.316  0.00  0.00    +0.000 C 
ATOM     10  C   UNL     1       3.986   5.680  17.697  0.00  0.00    +0.000 A 
BRANCH   4  14
ATOM     11  C   UNL     1       0.801   2.390  18.886  0.00  0.00    +0.000 C 
ATOM     12  C   UNL     1       2.177   3.000  18.842  0.00  0.00    +0.000 C 
ATOM     13  O   UNL     1       2.971   2.779  19.748  0.00  0.00    +0.000 OA
ATOM     14  N   UNL     1       2.369   3.773  17.705  0.00  0.00    +0.000 N 
ATOM     15  H   UNL     1       1.545   4.006  17.156  0.00  0.00    +0.000 HD
ENDBRANCH   4  14
ENDBRANCH   2  10
ENDBRANCH   1   2
BRANCH   1  16
ATOM     16  C   UNL     1       1.720   8.345  18.339  0.00  0.00    +0.000 C 
BRANCH  16  17
ATOM     17  C   UNL     1       1.720   9.871  18.258  0.00  0.00    +0.000 C 
ATOM     18  O   UNL     1       2.410  10.382  17.379  0.00  0.00    +0.000 OA
ATOM     19  N   UNL     1       0.984  10.655  19.154  0.00  0.00    +0.000 N 
BRANCH  19  20
ATOM     20  C   UNL     1       0.847  12.120  18.886  0.00  0.00    +0.000 C 
ATOM     21  C   UNL     1       2.133  12.903  19.221  0.00  0.00    +0.000 C 
ATOM     22  C   UNL     1       2.047  13.297  20.689  0.00  0.00    +0.000 C 
ATOM     23  S   UNL     1       0.368  13.881  20.860  0.00  0.00    +0.000 S 
ATOM     24  O   UNL     1       0.348  15.262  20.411  0.00  0.00    +0.000 OA
ATOM     25  O   UNL     1      -0.160  13.513  22.154  0.00  0.00    +0.000 OA
ATOM     26  C   UNL     1      -0.332  12.877  19.544  0.00  0.00    +0.000 C 
ENDBRANCH  19  20
BRANCH  19  27
ATOM     27  C   UNL     1       0.026  10.099  20.152  0.00  0.00    +0.000 C 
BRANCH  27  28
ATOM     28  C   UNL     1       0.548   9.986  21.602  0.00  0.00    +0.000 C 
ATOM     29  C   UNL     1      -0.573  10.126  22.632  0.00  0.00    +0.000 C 
ATOM     30  C   UNL     1       1.288   8.660  21.841  0.00  0.00    +0.000 C 
ENDBRANCH  27  28
ENDBRANCH  19  27
ENDBRANCH  16  17
ENDBRANCH   1  16
TORSDOF 8
ENDMDL
MODEL 7
REMARK VINA RESULT:      -7.3      1.876      2.724
REMARK  Name = 
REMARK  13 active torsions:
REMARK  status: ('A' for Active; 'I' for Inactive)
REMARK    1  A    between atoms: C_1  and  C_2
REMARK    2  A    between atoms: N_4  and  C_5
REMARK    3  A    between atoms: C_7  and  C_8
REMARK    4  A    between atoms: C_9  and  C_10
REMARK    5  A    between atoms: C_11  and  C_12
REMARK    6  A    between atoms: C_12  and  O_14
REMARK    7  A    between atoms: O_14  and  C_15
REMARK    8  A    between atoms: C_15  and  C_16
REMARK    9  A    between atoms: N_18  and  C_19
REMARK   10  A    between atoms: N_18  and  C_23
REMARK   11  A    between atoms: C_19  and  C_20
REMARK   12  A    between atoms: C_20  and  C_21
REMARK   13  A    between atoms: C_20  and  C_22
REMARK                            x       y       z     vdW  Elec       q    Type
REMARK                         _______ _______ _______ _____ _____    ______ ____
ROOT
ATOM      1  O   UNL     1       2.226   9.061  19.017  0.00  0.00    +0.000 OA
ENDROOT
BRANCH   1   2
ATOM      2  C   UNL     1       0.994   9.599  18.764  0.00  0.00    +0.000 C 
ATOM      3  O   UNL     1       0.397   9.409  17.705  0.00  0.00    +0.000 OA
BRANCH   2  10
ATOM      4  C   UNL     1       0.627  11.844  19.893  0.00  0.00    +0.000 A 
ATOM      5  S   UNL     1      -0.095  12.497  21.281  0.00  0.00    +0.000 S 
ATOM      6  C   UNL     1      -0.530  10.977  21.897  0.00  0.00    +0.000 A 
ATOM      7  C   UNL     1      -1.177  10.892  23.239  0.00  0.00    +0.000 C 
ATOM      8  C   UNL     1      -0.218   9.959  21.014  0.00  0.00    +0.000 A 
ATOM      9  C   UNL     1      -0.549   8.516  21.243  0.00  0.00    +0.000 C 
ATOM     10  C   UNL     1       0.476  10.461  19.827  0.00  0.00    +0.000 A 
BRANCH   4  14
ATOM     11  C   UNL     1       2.740  14.318  18.040  0.00  0.00    +0.000 C 
ATOM     12  C   UNL     1       2.371  13.469  19.226  0.00  0.00    +0.000 C 
ATOM     13  O   UNL     1       3.034  13.536  20.254  0.00  0.00    +0.000 OA
ATOM     14  N   UNL     1       1.256  12.679  18.977  0.00  0.00    +0.000 N 
ATOM     15  H   UNL     1       0.946  12.603  18.012  0.00  0.00    +0.000 HD
ENDBRANCH   4  14
ENDBRANCH   2  10
ENDBRANCH   1   2
BRANCH   1  16
ATOM     16  C   UNL     1       2.175   7.658  19.340  0.00  0.00    +0.000 C 
BRANCH  16  17
ATOM     17  C   UNL     1       3.047   6.867  18.366  0.00  0.00    +0.000 C 
ATOM     18  O   UNL     1       3.474   7.472  17.384  0.00  0.00    +0.000 OA
ATOM     19  N   UNL     1       3.332   5.512  18.568  0.00  0.00    +0.000 N 
BRANCH  19  20
ATOM     20  C   UNL     1       4.366   4.857  17.706  0.00  0.00    +0.000 C 
ATOM     21  C   UNL     1       5.542   4.289  18.528  0.00  0.00    +0.000 C 
ATOM     22  C   UNL     1       6.564   5.407  18.679  0.00  0.00    +0.000 C 
ATOM     23  S   UNL     1       6.650   6.110  17.040  0.00  0.00    +0.000 S 
ATOM     24  O   UNL     1       7.559   5.282  16.267  0.00  0.00    +0.000 OA
ATOM     25  O   UNL     1       6.833   7.541  17.119  0.00  0.00    +0.000 OA
ATOM     26  C   UNL     1       4.976   5.678  16.545  0.00  0.00    +0.000 C 
ENDBRANCH  19  20
BRANCH  19  27
ATOM     27  C   UNL     1       2.960   4.758  19.799  0.00  0.00    +0.000 C 
BRANCH  27  28
ATOM     28  C   UNL     1       1.552   4.119  19.802  0.00  0.00    +0.000 C 
ATOM     29  C   UNL     1       1.252   3.379  18.500  0.00  0.00    +0.000 C 
ATOM     30  C   UNL     1       1.367   3.154  20.984  0.00  0.00    +0.000 C 
ENDBRANCH  27  28
ENDBRANCH  19  27
ENDBRANCH  16  17
ENDBRANCH   1  16
TORSDOF 8
ENDMDL
MODEL 8
REMARK VINA RESULT:      -7.3      2.529      8.257
REMARK  Name = 
REMARK  13 active torsions:
REMARK  status: ('A' for Active; 'I' for Inactive)
REMARK    1  A    between atoms: C_1  and  C_2
REMARK    2  A    between atoms: N_4  and  C_5
REMARK    3  A    between atoms: C_7  and  C_8
REMARK    4  A    between atoms: C_9  and  C_10
REMARK    5  A    between atoms: C_11  and  C_12
REMARK    6  A    between atoms: C_12  and  O_14
REMARK    7  A    between atoms: O_14  and  C_15
REMARK    8  A    between atoms: C_15  and  C_16
REMARK    9  A    between atoms: N_18  and  C_19
REMARK   10  A    between atoms: N_18  and  C_23
REMARK   11  A    between atoms: C_19  and  C_20
REMARK   12  A    between atoms: C_20  and  C_21
REMARK   13  A    between atoms: C_20  and  C_22
REMARK                            x       y       z     vdW  Elec       q    Type
REMARK                         _______ _______ _______ _____ _____    ______ ____
ROOT
ATOM      1  O   UNL     1       2.199   7.146  17.971  0.00  0.00    +0.000 OA
ENDROOT
BRANCH   1   2
ATOM      2  C   UNL     1       3.438   6.575  17.856  0.00  0.00    +0.000 C 
ATOM      3  O   UNL     1       4.375   7.143  17.295  0.00  0.00    +0.000 OA
BRANCH   2  10
ATOM      4  C   UNL     1       4.645   4.693  19.059  0.00  0.00    +0.000 A 
ATOM      5  S   UNL     1       4.396   3.085  19.535  0.00  0.00    +0.000 S 
ATOM      6  C   UNL     1       2.871   2.993  18.794  0.00  0.00    +0.000 A 
ATOM      7  C   UNL     1       2.133   1.696  18.805  0.00  0.00    +0.000 C 
ATOM      8  C   UNL     1       2.490   4.210  18.257  0.00  0.00    +0.000 A 
ATOM      9  C   UNL     1       1.164   4.462  17.606  0.00  0.00    +0.000 C 
ATOM     10  C   UNL     1       3.537   5.222  18.401  0.00  0.00    +0.000 A 
BRANCH   4  14
ATOM     11  C   UNL     1       8.154   5.983  19.271  0.00  0.00    +0.000 C 
ATOM     12  C   UNL     1       7.018   5.240  18.620  0.00  0.00    +0.000 C 
ATOM     13  O   UNL     1       7.203   4.649  17.562  0.00  0.00    +0.000 OA
ATOM     14  N   UNL     1       5.845   5.329  19.357  0.00  0.00    +0.000 N 
ATOM     15  H   UNL     1       5.816   6.017  20.106  0.00  0.00    +0.000 HD
ENDBRANCH   4  14
ENDBRANCH   2  10
ENDBRANCH   1   2
BRANCH   1  16
ATOM     16  C   UNL     1       2.072   7.993  19.130  0.00  0.00    +0.000 C 
BRANCH  16  17
ATOM     17  C   UNL     1       1.682   9.407  18.701  0.00  0.00    +0.000 C 
ATOM     18  O   UNL     1       1.703   9.649  17.496  0.00  0.00    +0.000 OA
ATOM     19  N   UNL     1       1.334  10.389  19.637  0.00  0.00    +0.000 N 
BRANCH  19  20
ATOM     20  C   UNL     1       0.750  11.676  19.146  0.00  0.00    +0.000 C 
ATOM     21  C   UNL     1       1.822  12.633  18.586  0.00  0.00    +0.000 C 
ATOM     22  C   UNL     1       2.335  13.463  19.755  0.00  0.00    +0.000 C 
ATOM     23  S   UNL     1       0.842  13.923  20.619  0.00  0.00    +0.000 S 
ATOM     24  O   UNL     1       0.294  15.083  19.939  0.00  0.00    +0.000 OA
ATOM     25  O   UNL     1       1.074  13.939  22.046  0.00  0.00    +0.000 OA
ATOM     26  C   UNL     1      -0.131  12.496  20.119  0.00  0.00    +0.000 C 
ENDBRANCH  19  20
BRANCH  19  27
ATOM     27  C   UNL     1       1.158  10.124  21.093  0.00  0.00    +0.000 C 
BRANCH  27  28
ATOM     28  C   UNL     1      -0.261   9.704  21.538  0.00  0.00    +0.000 C 
ATOM     29  C   UNL     1      -0.409   8.186  21.636  0.00  0.00    +0.000 C 
ATOM     30  C   UNL     1      -0.646  10.335  22.886  0.00  0.00    +0.000 C 
ENDBRANCH  27  28
ENDBRANCH  19  27
ENDBRANCH  16  17
ENDBRANCH   1  16
TORSDOF 8
ENDMDL
MODEL 9
REMARK VINA RESULT:      -7.3      2.571      8.316
REMARK  Name = 
REMARK  13 active torsions:
REMARK  status: ('A' for Active; 'I' for Inactive)
REMARK    1  A    between atoms: C_1  and  C_2
REMARK    2  A    between atoms: N_4  and  C_5
REMARK    3  A    between atoms: C_7  and  C_8
REMARK    4  A    between atoms: C_9  and  C_10
REMARK    5  A    between atoms: C_11  and  C_12
REMARK    6  A    between atoms: C_12  and  O_14
REMARK    7  A    between atoms: O_14  and  C_15
REMARK    8  A    between atoms: C_15  and  C_16
REMARK    9  A    between atoms: N_18  and  C_19
REMARK   10  A    between atoms: N_18  and  C_23
REMARK   11  A    between atoms: C_19  and  C_20
REMARK   12  A    between atoms: C_20  and  C_21
REMARK   13  A    between atoms: C_20  and  C_22
REMARK                            x       y       z     vdW  Elec       q    Type
REMARK                         _______ _______ _______ _____ _____    ______ ____
ROOT
ATOM      1  O   UNL     1       2.720   7.982  18.202  0.00  0.00    +0.000 OA
ENDROOT
BRANCH   1   2
ATOM      2  C   UNL     1       2.795   6.922  19.064  0.00  0.00    +0.000 C 
ATOM      3  O   UNL     1       2.510   7.023  20.257  0.00  0.00    +0.000 OA
BRANCH   2  10
ATOM      4  C   UNL     1       4.465   5.561  17.721  0.00  0.00    +0.000 A 
ATOM      5  S   UNL     1       4.709   3.974  17.176  0.00  0.00    +0.000 S 
ATOM      6  C   UNL     1       3.231   3.422  17.801  0.00  0.00    +0.000 A 
ATOM      7  C   UNL     1       2.814   2.011  17.550  0.00  0.00    +0.000 C 
ATOM      8  C   UNL     1       2.576   4.411  18.514  0.00  0.00    +0.000 A 
ATOM      9  C   UNL     1       1.286   4.203  19.248  0.00  0.00    +0.000 C 
ATOM     10  C   UNL     1       3.294   5.684  18.465  0.00  0.00    +0.000 A 
BRANCH   4  14
ATOM     11  C   UNL     1       7.424   7.836  17.418  0.00  0.00    +0.000 C 
ATOM     12  C   UNL     1       6.718   6.578  17.847  0.00  0.00    +0.000 C 
ATOM     13  O   UNL     1       7.321   5.732  18.497  0.00  0.00    +0.000 OA
ATOM     14  N   UNL     1       5.396   6.550  17.423  0.00  0.00    +0.000 N 
ATOM     15  H   UNL     1       5.115   7.240  16.731  0.00  0.00    +0.000 HD
ENDBRANCH   4  14
ENDBRANCH   2  10
ENDBRANCH   1   2
BRANCH   1  16
ATOM     16  C   UNL     1       1.455   8.670  18.260  0.00  0.00    +0.000 C 
BRANCH  16  17
ATOM     17  C   UNL     1       1.682  10.181  18.221  0.00  0.00    +0.000 C 
ATOM     18  O   UNL     1       2.562  10.592  17.468  0.00  0.00    +0.000 OA
ATOM     19  N   UNL     1       0.938  11.057  19.020  0.00  0.00    +0.000 N 
BRANCH  19  20
ATOM     20  C   UNL     1       1.050  12.528  18.773  0.00  0.00    +0.000 C 
ATOM     21  C   UNL     1       2.085  13.202  19.698  0.00  0.00    +0.000 C 
ATOM     22  C   UNL     1       1.353  13.604  20.971  0.00  0.00    +0.000 C 
ATOM     23  S   UNL     1      -0.163  14.325  20.363  0.00  0.00    +0.000 S 
ATOM     24  O   UNL     1       0.130  15.703  20.008  0.00  0.00    +0.000 OA
ATOM     25  O   UNL     1      -1.260  14.003  21.248  0.00  0.00    +0.000 OA
ATOM     26  C   UNL     1      -0.240  13.380  18.835  0.00  0.00    +0.000 C 
ENDBRANCH  19  20
BRANCH  19  27
ATOM     27  C   UNL     1      -0.228  10.638  19.850  0.00  0.00    +0.000 C 
BRANCH  27  28
ATOM     28  C   UNL     1       0.100  10.143  21.277  0.00  0.00    +0.000 C 
ATOM     29  C   UNL     1      -0.632  10.948  22.350  0.00  0.00    +0.000 C 
ATOM     30  C   UNL     1      -0.230   8.652  21.453  0.00  0.00    +0.000 C 
ENDBRANCH  27  28
ENDBRANCH  19  27
ENDBRANCH  16  17
ENDBRANCH   1  16
TORSDOF 8
ENDMDL
