MODEL 1
REMARK VINA RESULT:      -5.9      0.000      0.000
REMARK  Name = 
REMARK  3 active torsions:
REMARK  status: ('A' for Active; 'I' for Inactive)
REMARK    1  A    between atoms: C_1  and  N_2
REMARK    2  A    between atoms: C_4  and  O_5
REMARK    3  A    between atoms: C_7  and  C_8
REMARK                            x       y       z     vdW  Elec       q    Type
REMARK                         _______ _______ _______ _____ _____    ______ ____
ROOT
ATOM      1  C   UNL     1       4.084   6.760  17.604  0.00  0.00    +0.000 C 
ATOM      2  N   UNL     1       4.978   5.940  16.805  0.00  0.00    +0.000 NA
ATOM      3  C   UNL     1       6.336   5.868  17.328  0.00  0.00    +0.000 C 
ATOM      4  C   UNL     1       6.967   4.768  16.482  0.00  0.00    +0.000 C 
ATOM      5  C   UNL     1       5.829   3.784  16.220  0.00  0.00    +0.000 C 
ATOM      6  C   UNL     1       4.534   4.568  16.496  0.00  0.00    +0.000 C 
ENDROOT
BRANCH   6   7
ATOM      7  C   UNL     1       3.660   3.894  17.532  0.00  0.00    +0.000 A 
ATOM      8  C   UNL     1       2.265   3.817  17.430  0.00  0.00    +0.000 A 
ATOM      9  C   UNL     1       1.535   3.110  18.383  0.00  0.00    +0.000 A 
ATOM     10  C   UNL     1       2.219   2.515  19.427  0.00  0.00    +0.000 A 
ATOM     11  N   UNL     1       3.558   2.587  19.580  0.00  0.00    +0.000 NA
ATOM     12  C   UNL     1       4.243   3.269  18.634  0.00  0.00    +0.000 A 
ENDBRANCH   6   7
BRANCH   4  13
ATOM     13  O   UNL     1       8.059   4.136  17.136  0.00  0.00    +0.000 OA
ATOM     14  H   UNL     1       8.844   4.219  16.569  0.00  0.00    +0.000 HD
ENDBRANCH   4  13
TORSDOF 2
ENDMDL
MODEL 2
REMARK VINA RESULT:      -5.8      2.499      4.624
REMARK  Name = 
REMARK  3 active torsions:
REMARK  status: ('A' for Active; 'I' for Inactive)
REMARK    1  A    between atoms: C_1  and  N_2
REMARK    2  A    between atoms: C_4  and  O_5
REMARK    3  A    between atoms: C_7  and  C_8
REMARK                            x       y       z     vdW  Elec       q    Type
REMARK                         _______ _______ _______ _____ _____    ______ ____
ROOT
ATOM      1  C   UNL     1       3.351   1.797  18.155  0.00  0.00    +0.000 C 
ATOM      2  N   UNL     1       2.663   3.040  18.460  0.00  0.00    +0.000 NA
ATOM      3  C   UNL     1       2.524   3.300  19.887  0.00  0.00    +0.000 C 
ATOM      4  C   UNL     1       2.028   4.742  19.921  0.00  0.00    +0.000 C 
ATOM      5  C   UNL     1       2.716   5.414  18.735  0.00  0.00    +0.000 C 
ATOM      6  C   UNL     1       3.173   4.265  17.818  0.00  0.00    +0.000 C 
ENDROOT
BRANCH   6   7
ATOM      7  C   UNL     1       4.661   4.308  17.537  0.00  0.00    +0.000 A 
ATOM      8  C   UNL     1       5.203   4.211  16.249  0.00  0.00    +0.000 A 
ATOM      9  C   UNL     1       6.577   4.339  16.060  0.00  0.00    +0.000 A 
ATOM     10  C   UNL     1       7.376   4.541  17.170  0.00  0.00    +0.000 A 
ATOM     11  N   UNL     1       6.901   4.613  18.431  0.00  0.00    +0.000 NA
ATOM     12  C   UNL     1       5.562   4.498  18.584  0.00  0.00    +0.000 A 
ENDBRANCH   6   7
BRANCH   4  13
ATOM     13  O   UNL     1       2.340   5.397  21.142  0.00  0.00    +0.000 OA
ATOM     14  H   UNL     1       3.125   5.952  20.999  0.00  0.00    +0.000 HD
ENDBRANCH   4  13
TORSDOF 2
ENDMDL
MODEL 3
REMARK VINA RESULT:      -5.7      2.745      4.926
REMARK  Name = 
REMARK  3 active torsions:
REMARK  status: ('A' for Active; 'I' for Inactive)
REMARK    1  A    between atoms: C_1  and  N_2
REMARK    2  A    between atoms: C_4  and  O_5
REMARK    3  A    between atoms: C_7  and  C_8
REMARK                            x       y       z     vdW  Elec       q    Type
REMARK                         _______ _______ _______ _____ _____    ______ ____
ROOT
ATOM      1  C   UNL     1       2.245   2.907  17.562  0.00  0.00    +0.000 C 
ATOM      2  N   UNL     1       1.791   3.460  18.826  0.00  0.00    +0.000 NA
ATOM      3  C   UNL     1       1.965   2.560  19.959  0.00  0.00    +0.000 C 
ATOM      4  C   UNL     1       1.670   3.459  21.154  0.00  0.00    +0.000 C 
ATOM      5  C   UNL     1       2.194   4.832  20.741  0.00  0.00    +0.000 C 
ATOM      6  C   UNL     1       2.317   4.783  19.208  0.00  0.00    +0.000 C 
ENDROOT
BRANCH   6   7
ATOM      7  C   UNL     1       3.715   5.116  18.730  0.00  0.00    +0.000 A 
ATOM      8  C   UNL     1       3.981   6.050  17.721  0.00  0.00    +0.000 A 
ATOM      9  C   UNL     1       5.298   6.362  17.390  0.00  0.00    +0.000 A 
ATOM     10  C   UNL     1       6.316   5.713  18.065  0.00  0.00    +0.000 A 
ATOM     11  N   UNL     1       6.106   4.786  19.023  0.00  0.00    +0.000 NA
ATOM     12  C   UNL     1       4.818   4.512  19.333  0.00  0.00    +0.000 A 
ENDBRANCH   6   7
BRANCH   4  13
ATOM     13  O   UNL     1       2.292   3.003  22.347  0.00  0.00    +0.000 OA
ATOM     14  H   UNL     1       2.563   3.778  22.866  0.00  0.00    +0.000 HD
ENDBRANCH   4  13
TORSDOF 2
ENDMDL
MODEL 4
REMARK VINA RESULT:      -5.7      0.828      1.352
REMARK  Name = 
REMARK  3 active torsions:
REMARK  status: ('A' for Active; 'I' for Inactive)
REMARK    1  A    between atoms: C_1  and  N_2
REMARK    2  A    between atoms: C_4  and  O_5
REMARK    3  A    between atoms: C_7  and  C_8
REMARK                            x       y       z     vdW  Elec       q    Type
REMARK                         _______ _______ _______ _____ _____    ______ ____
ROOT
ATOM      1  C   UNL     1       3.971   6.519  17.878  0.00  0.00    +0.000 C 
ATOM      2  N   UNL     1       4.907   5.836  17.002  0.00  0.00    +0.000 NA
ATOM      3  C   UNL     1       6.264   5.768  17.528  0.00  0.00    +0.000 C 
ATOM      4  C   UNL     1       6.950   4.800  16.571  0.00  0.00    +0.000 C 
ATOM      5  C   UNL     1       5.861   3.801  16.188  0.00  0.00    +0.000 C 
ATOM      6  C   UNL     1       4.529   4.489  16.535  0.00  0.00    +0.000 C 
ENDROOT
BRANCH   6   7
ATOM      7  C   UNL     1       3.681   3.663  17.480  0.00  0.00    +0.000 A 
ATOM      8  C   UNL     1       4.192   3.038  18.626  0.00  0.00    +0.000 A 
ATOM      9  C   UNL     1       3.335   2.362  19.490  0.00  0.00    +0.000 A 
ATOM     10  C   UNL     1       1.990   2.309  19.175  0.00  0.00    +0.000 A 
ATOM     11  N   UNL     1       1.459   2.872  18.068  0.00  0.00    +0.000 NA
ATOM     12  C   UNL     1       2.311   3.533  17.253  0.00  0.00    +0.000 A 
ENDBRANCH   6   7
BRANCH   4  13
ATOM     13  O   UNL     1       8.067   4.149  17.161  0.00  0.00    +0.000 OA
ATOM     14  H   UNL     1       7.980   3.194  17.008  0.00  0.00    +0.000 HD
ENDBRANCH   4  13
TORSDOF 2
ENDMDL
MODEL 5
REMARK VINA RESULT:      -5.7      2.339      4.376
REMARK  Name = 
REMARK  3 active torsions:
REMARK  status: ('A' for Active; 'I' for Inactive)
REMARK    1  A    between atoms: C_1  and  N_2
REMARK    2  A    between atoms: C_4  and  O_5
REMARK    3  A    between atoms: C_7  and  C_8
REMARK                            x       y       z     vdW  Elec       q    Type
REMARK                         _______ _______ _______ _____ _____    ______ ____
ROOT
ATOM      1  C   UNL     1       3.346   6.266  18.188  0.00  0.00    +0.000 C 
ATOM      2  N   UNL     1       3.257   4.966  18.832  0.00  0.00    +0.000 NA
ATOM      3  C   UNL     1       2.109   4.176  18.408  0.00  0.00    +0.000 C 
ATOM      4  C   UNL     1       2.398   2.807  19.011  0.00  0.00    +0.000 C 
ATOM      5  C   UNL     1       3.918   2.672  18.948  0.00  0.00    +0.000 C 
ATOM      6  C   UNL     1       4.452   4.105  18.773  0.00  0.00    +0.000 C 
ENDROOT
BRANCH   6   7
ATOM      7  C   UNL     1       5.326   4.249  17.544  0.00  0.00    +0.000 A 
ATOM      8  C   UNL     1       4.878   3.981  16.245  0.00  0.00    +0.000 A 
ATOM      9  C   UNL     1       5.715   4.214  15.157  0.00  0.00    +0.000 A 
ATOM     10  C   UNL     1       6.990   4.691  15.400  0.00  0.00    +0.000 A 
ATOM     11  N   UNL     1       7.474   4.937  16.636  0.00  0.00    +0.000 NA
ATOM     12  C   UNL     1       6.635   4.714  17.673  0.00  0.00    +0.000 A 
ENDBRANCH   6   7
BRANCH   4  13
ATOM     13  O   UNL     1       1.754   1.754  18.308  0.00  0.00    +0.000 OA
ATOM     14  H   UNL     1       2.435   1.226  17.857  0.00  0.00    +0.000 HD
ENDBRANCH   4  13
TORSDOF 2
ENDMDL
MODEL 6
REMARK VINA RESULT:      -5.7      1.309      1.453
REMARK  Name = 
REMARK  3 active torsions:
REMARK  status: ('A' for Active; 'I' for Inactive)
REMARK    1  A    between atoms: C_1  and  N_2
REMARK    2  A    between atoms: C_4  and  O_5
REMARK    3  A    between atoms: C_7  and  C_8
REMARK                            x       y       z     vdW  Elec       q    Type
REMARK                         _______ _______ _______ _____ _____    ______ ____
ROOT
ATOM      1  C   UNL     1       3.051   6.716  18.329  0.00  0.00    +0.000 C 
ATOM      2  N   UNL     1       3.904   5.809  17.580  0.00  0.00    +0.000 NA
ATOM      3  C   UNL     1       5.302   5.842  17.989  0.00  0.00    +0.000 C 
ATOM      4  C   UNL     1       5.898   4.646  17.256  0.00  0.00    +0.000 C 
ATOM      5  C   UNL     1       4.775   3.611  17.232  0.00  0.00    +0.000 C 
ATOM      6  C   UNL     1       3.482   4.399  17.505  0.00  0.00    +0.000 C 
ENDROOT
BRANCH   6   7
ATOM      7  C   UNL     1       2.718   3.861  18.697  0.00  0.00    +0.000 A 
ATOM      8  C   UNL     1       1.328   3.684  18.705  0.00  0.00    +0.000 A 
ATOM      9  C   UNL     1       0.706   3.108  19.809  0.00  0.00    +0.000 A 
ATOM     10  C   UNL     1       1.489   2.743  20.889  0.00  0.00    +0.000 A 
ATOM     11  N   UNL     1       2.826   2.920  20.937  0.00  0.00    +0.000 NA
ATOM     12  C   UNL     1       3.406   3.470  19.845  0.00  0.00    +0.000 A 
ENDBRANCH   6   7
BRANCH   4  13
ATOM     13  O   UNL     1       7.060   4.137  17.895  0.00  0.00    +0.000 OA
ATOM     14  H   UNL     1       6.804   3.362  18.423  0.00  0.00    +0.000 HD
ENDBRANCH   4  13
TORSDOF 2
ENDMDL
MODEL 7
REMARK VINA RESULT:      -5.6      2.577      4.895
REMARK  Name = 
REMARK  3 active torsions:
REMARK  status: ('A' for Active; 'I' for Inactive)
REMARK    1  A    between atoms: C_1  and  N_2
REMARK    2  A    between atoms: C_4  and  O_5
REMARK    3  A    between atoms: C_7  and  C_8
REMARK                            x       y       z     vdW  Elec       q    Type
REMARK                         _______ _______ _______ _____ _____    ______ ____
ROOT
ATOM      1  C   UNL     1       3.868   1.217  18.236  0.00  0.00    +0.000 C 
ATOM      2  N   UNL     1       2.616   1.953  18.182  0.00  0.00    +0.000 NA
ATOM      3  C   UNL     1       1.996   2.157  19.484  0.00  0.00    +0.000 C 
ATOM      4  C   UNL     1       0.883   3.152  19.177  0.00  0.00    +0.000 C 
ATOM      5  C   UNL     1       1.452   4.038  18.071  0.00  0.00    +0.000 C 
ATOM      6  C   UNL     1       2.628   3.246  17.472  0.00  0.00    +0.000 C 
ENDROOT
BRANCH   6   7
ATOM      7  C   UNL     1       3.927   4.023  17.510  0.00  0.00    +0.000 A 
ATOM      8  C   UNL     1       4.804   4.110  16.422  0.00  0.00    +0.000 A 
ATOM      9  C   UNL     1       5.941   4.909  16.505  0.00  0.00    +0.000 A 
ATOM     10  C   UNL     1       6.183   5.586  17.686  0.00  0.00    +0.000 A 
ATOM     11  N   UNL     1       5.381   5.511  18.770  0.00  0.00    +0.000 NA
ATOM     12  C   UNL     1       4.277   4.737  18.656  0.00  0.00    +0.000 A 
ENDBRANCH   6   7
BRANCH   4  13
ATOM     13  O   UNL     1       0.506   3.918  20.313  0.00  0.00    +0.000 OA
ATOM     14  H   UNL     1       1.129   3.723  21.033  0.00  0.00    +0.000 HD
ENDBRANCH   4  13
TORSDOF 2
ENDMDL
MODEL 8
REMARK VINA RESULT:      -5.6      2.746      5.137
REMARK  Name = 
REMARK  3 active torsions:
REMARK  status: ('A' for Active; 'I' for Inactive)
REMARK    1  A    between atoms: C_1  and  N_2
REMARK    2  A    between atoms: C_4  and  O_5
REMARK    3  A    between atoms: C_7  and  C_8
REMARK                            x       y       z     vdW  Elec       q    Type
REMARK                         _______ _______ _______ _____ _____    ______ ____
ROOT
ATOM      1  C   UNL     1       2.451   2.655  17.533  0.00  0.00    +0.000 C 
ATOM      2  N   UNL     1       1.775   3.179  18.708  0.00  0.00    +0.000 NA
ATOM      3  C   UNL     1       1.957   2.367  19.903  0.00  0.00    +0.000 C 
ATOM      4  C   UNL     1       1.391   3.255  21.006  0.00  0.00    +0.000 C 
ATOM      5  C   UNL     1       1.737   4.677  20.570  0.00  0.00    +0.000 C 
ATOM      6  C   UNL     1       2.040   4.585  19.064  0.00  0.00    +0.000 C 
ENDROOT
BRANCH   6   7
ATOM      7  C   UNL     1       3.414   5.119  18.717  0.00  0.00    +0.000 A 
ATOM      8  C   UNL     1       4.575   4.769  19.418  0.00  0.00    +0.000 A 
ATOM      9  C   UNL     1       5.815   5.238  18.990  0.00  0.00    +0.000 A 
ATOM     10  C   UNL     1       5.858   6.065  17.883  0.00  0.00    +0.000 A 
ATOM     11  N   UNL     1       4.762   6.451  17.194  0.00  0.00    +0.000 NA
ATOM     12  C   UNL     1       3.574   5.971  17.624  0.00  0.00    +0.000 A 
ENDBRANCH   6   7
BRANCH   4  13
ATOM     13  O   UNL     1       1.938   2.956  22.282  0.00  0.00    +0.000 OA
ATOM     14  H   UNL     1       2.873   3.219  22.283  0.00  0.00    +0.000 HD
ENDBRANCH   4  13
TORSDOF 2
ENDMDL
MODEL 9
REMARK VINA RESULT:      -5.6      2.774      4.822
REMARK  Name = 
REMARK  3 active torsions:
REMARK  status: ('A' for Active; 'I' for Inactive)
REMARK    1  A    between atoms: C_1  and  N_2
REMARK    2  A    between atoms: C_4  and  O_5
REMARK    3  A    between atoms: C_7  and  C_8
REMARK                            x       y       z     vdW  Elec       q    Type
REMARK                         _______ _______ _______ _____ _____    ______ ____
ROOT
ATOM      1  C   UNL     1       4.132   3.514  16.945  0.00  0.00    +0.000 C 
ATOM      2  N   UNL     1       3.228   4.398  17.659  0.00  0.00    +0.000 NA
ATOM      3  C   UNL     1       2.682   3.822  18.880  0.00  0.00    +0.000 C 
ATOM      4  C   UNL     1       2.007   5.015  19.546  0.00  0.00    +0.000 C 
ATOM      5  C   UNL     1       2.888   6.208  19.184  0.00  0.00    +0.000 C 
ATOM      6  C   UNL     1       3.721   5.752  17.973  0.00  0.00    +0.000 C 
ENDROOT
BRANCH   6   7
ATOM      7  C   UNL     1       5.211   5.886  18.213  0.00  0.00    +0.000 A 
ATOM      8  C   UNL     1       6.063   6.618  17.375  0.00  0.00    +0.000 A 
ATOM      9  C   UNL     1       7.408   6.763  17.705  0.00  0.00    +0.000 A 
ATOM     10  C   UNL     1       7.872   6.153  18.855  0.00  0.00    +0.000 A 
ATOM     11  N   UNL     1       7.094   5.415  19.677  0.00  0.00    +0.000 NA
ATOM     12  C   UNL     1       5.790   5.302  19.339  0.00  0.00    +0.000 A 
ENDBRANCH   6   7
BRANCH   4  13
ATOM     13  O   UNL     1       1.894   4.863  20.954  0.00  0.00    +0.000 OA
ATOM     14  H   UNL     1       1.112   5.356  21.254  0.00  0.00    +0.000 HD
ENDBRANCH   4  13
TORSDOF 2
ENDMDL
