MODEL 1
REMARK VINA RESULT:      -8.5      0.000      0.000
REMARK  Name = 
REMARK  9 active torsions:
REMARK  status: ('A' for Active; 'I' for Inactive)
REMARK    1  A    between atoms: C_1  and  C_2
REMARK    2  A    between atoms: C_2  and  C_3
REMARK    3  A    between atoms: N_10  and  C_11
REMARK    4  A    between atoms: C_14  and  O_15
REMARK    5  A    between atoms: O_15  and  C_16
REMARK    6  A    between atoms: C_16  and  C_17
REMARK    7  A    between atoms: C_17  and  O_18
REMARK    8  A    between atoms: O_18  and  C_19
REMARK    9  A    between atoms: C_22  and  S_23
REMARK                            x       y       z     vdW  Elec       q    Type
REMARK                         _______ _______ _______ _____ _____    ______ ____
ROOT
ATOM      1  C   UNL     1       2.543   6.485  19.469  0.00  0.00    +0.000 A 
ATOM      2  C   UNL     1       2.552   7.118  18.216  0.00  0.00    +0.000 A 
ATOM      3  C   UNL     1       2.037   8.401  18.028  0.00  0.00    +0.000 A 
ATOM      4  C   UNL     1       1.416   9.073  19.072  0.00  0.00    +0.000 A 
ATOM      5  C   UNL     1       1.352   8.453  20.319  0.00  0.00    +0.000 A 
ATOM      6  C   UNL     1       1.940   7.195  20.520  0.00  0.00    +0.000 A 
ENDROOT
BRANCH   1  16
ATOM      7  C   UNL     1       1.646   3.941  18.159  0.00  0.00    +0.000 C 
ATOM      8  C   UNL     1       2.311   4.010  19.551  0.00  0.00    +0.000 C 
ATOM      9  C   UNL     1       1.215   3.944  20.631  0.00  0.00    +0.000 C 
ATOM     10  N   UNL     1       3.017   2.732  19.714  0.00  0.00    +0.000 NA
ATOM     11  C   UNL     1       4.293   2.731  19.592  0.00  0.00    +0.000 C 
ATOM     12  N   UNL     1       4.957   1.559  19.734  0.00  0.00    +0.000 N 
ATOM     13  N   UNL     1       5.048   3.809  19.297  0.00  0.00    +0.000 NA
ATOM     14  C   UNL     1       4.490   4.974  19.365  0.00  0.00    +0.000 C 
ATOM     15  N   UNL     1       5.320   6.031  19.143  0.00  0.00    +0.000 N 
ATOM     16  N   UNL     1       3.164   5.221  19.658  0.00  0.00    +0.000 N 
ATOM     17  H   UNL     1       4.361   0.760  19.580  0.00  0.00    +0.000 HD
ATOM     18  H   UNL     1       5.827   1.546  19.218  0.00  0.00    +0.000 HD
ATOM     19  H   UNL     1       6.291   5.742  19.125  0.00  0.00    +0.000 HD
ATOM     20  H   UNL     1       5.158   6.821  19.754  0.00  0.00    +0.000 HD
ENDBRANCH   1  16
BRANCH   4  21
ATOM     21  O   UNL     1       0.838  10.311  18.996  0.00  0.00    +0.000 OA
BRANCH  21  22
ATOM     22  C   UNL     1       1.717  11.426  18.814  0.00  0.00    +0.000 C 
BRANCH  22  23
ATOM     23  C   UNL     1       1.491  12.495  19.884  0.00  0.00    +0.000 C 
BRANCH  23  24
ATOM     24  O   UNL     1       1.143  11.850  21.110  0.00  0.00    +0.000 OA
BRANCH  24  25
ATOM     25  C   UNL     1      -0.072  12.195  21.632  0.00  0.00    +0.000 A 
ATOM     26  C   UNL     1      -0.638  11.243  22.485  0.00  0.00    +0.000 A 
ATOM     27  C   UNL     1      -1.880  11.470  23.075  0.00  0.00    +0.000 A 
ATOM     28  C   UNL     1      -2.554  12.661  22.812  0.00  0.00    +0.000 A 
ATOM     29  C   UNL     1      -1.983  13.640  21.992  0.00  0.00    +0.000 A 
ATOM     30  C   UNL     1      -0.740  13.403  21.403  0.00  0.00    +0.000 A 
BRANCH  28  31
ATOM     31  S   UNL     1      -4.118  12.955  23.575  0.00  0.00    +0.000 S 
ATOM     32  O   UNL     1      -4.187  14.354  23.945  0.00  0.00    +0.000 OA
ATOM     33  O   UNL     1      -5.127  12.316  22.757  0.00  0.00    +0.000 OA
ATOM     34  F   UNL     1      -4.103  12.159  24.948  0.00  0.00    +0.000 F 
ENDBRANCH  28  31
ENDBRANCH  24  25
ENDBRANCH  23  24
ENDBRANCH  22  23
ENDBRANCH  21  22
ENDBRANCH   4  21
TORSDOF 7
ENDMDL
MODEL 2
REMARK VINA RESULT:      -8.4      0.349      1.290
REMARK  Name = 
REMARK  9 active torsions:
REMARK  status: ('A' for Active; 'I' for Inactive)
REMARK    1  A    between atoms: C_1  and  C_2
REMARK    2  A    between atoms: C_2  and  C_3
REMARK    3  A    between atoms: N_10  and  C_11
REMARK    4  A    between atoms: C_14  and  O_15
REMARK    5  A    between atoms: O_15  and  C_16
REMARK    6  A    between atoms: C_16  and  C_17
REMARK    7  A    between atoms: C_17  and  O_18
REMARK    8  A    between atoms: O_18  and  C_19
REMARK    9  A    between atoms: C_22  and  S_23
REMARK                            x       y       z     vdW  Elec       q    Type
REMARK                         _______ _______ _______ _____ _____    ______ ____
ROOT
ATOM      1  C   UNL     1       2.648   6.500  19.392  0.00  0.00    +0.000 A 
ATOM      2  C   UNL     1       2.032   7.201  20.440  0.00  0.00    +0.000 A 
ATOM      3  C   UNL     1       1.376   8.416  20.236  0.00  0.00    +0.000 A 
ATOM      4  C   UNL     1       1.381   9.020  18.985  0.00  0.00    +0.000 A 
ATOM      5  C   UNL     1       2.023   8.369  17.933  0.00  0.00    +0.000 A 
ATOM      6  C   UNL     1       2.614   7.112  18.129  0.00  0.00    +0.000 A 
ENDROOT
BRANCH   1  16
ATOM      7  C   UNL     1       1.685   3.976  18.090  0.00  0.00    +0.000 C 
ATOM      8  C   UNL     1       2.327   4.035  19.493  0.00  0.00    +0.000 C 
ATOM      9  C   UNL     1       1.212   4.018  20.554  0.00  0.00    +0.000 C 
ATOM     10  N   UNL     1       2.986   2.736  19.680  0.00  0.00    +0.000 NA
ATOM     11  C   UNL     1       4.263   2.688  19.580  0.00  0.00    +0.000 C 
ATOM     12  N   UNL     1       4.883   1.495  19.745  0.00  0.00    +0.000 N 
ATOM     13  N   UNL     1       5.060   3.736  19.288  0.00  0.00    +0.000 NA
ATOM     14  C   UNL     1       4.543   4.920  19.336  0.00  0.00    +0.000 C 
ATOM     15  N   UNL     1       5.413   5.945  19.119  0.00  0.00    +0.000 N 
ATOM     16  N   UNL     1       3.221   5.217  19.604  0.00  0.00    +0.000 N 
ATOM     17  H   UNL     1       4.261   0.715  19.588  0.00  0.00    +0.000 HD
ATOM     18  H   UNL     1       5.760   1.447  19.244  0.00  0.00    +0.000 HD
ATOM     19  H   UNL     1       6.373   5.622  19.120  0.00  0.00    +0.000 HD
ATOM     20  H   UNL     1       5.269   6.747  19.720  0.00  0.00    +0.000 HD
ENDBRANCH   1  16
BRANCH   4  21
ATOM     21  O   UNL     1       0.811  10.226  18.676  0.00  0.00    +0.000 OA
BRANCH  21  22
ATOM     22  C   UNL     1       1.668  11.372  18.695  0.00  0.00    +0.000 C 
BRANCH  22  23
ATOM     23  C   UNL     1       1.201  12.401  19.725  0.00  0.00    +0.000 C 
BRANCH  23  24
ATOM     24  O   UNL     1       1.144  11.773  21.006  0.00  0.00    +0.000 OA
BRANCH  24  25
ATOM     25  C   UNL     1      -0.002  11.991  21.718  0.00  0.00    +0.000 A 
ATOM     26  C   UNL     1      -0.570  13.257  21.544  0.00  0.00    +0.000 A 
ATOM     27  C   UNL     1      -1.736  13.609  22.223  0.00  0.00    +0.000 A 
ATOM     28  C   UNL     1      -2.337  12.683  23.074  0.00  0.00    +0.000 A 
ATOM     29  C   UNL     1      -1.802  11.400  23.228  0.00  0.00    +0.000 A 
ATOM     30  C   UNL     1      -0.633  11.058  22.547  0.00  0.00    +0.000 A 
BRANCH  28  31
ATOM     31  S   UNL     1      -3.824  13.124  23.917  0.00  0.00    +0.000 S 
ATOM     32  O   UNL     1      -3.507  14.151  24.888  0.00  0.00    +0.000 OA
ATOM     33  O   UNL     1      -4.857  13.290  22.917  0.00  0.00    +0.000 OA
ATOM     34  F   UNL     1      -4.247  11.855  24.773  0.00  0.00    +0.000 F 
ENDBRANCH  28  31
ENDBRANCH  24  25
ENDBRANCH  23  24
ENDBRANCH  22  23
ENDBRANCH  21  22
ENDBRANCH   4  21
TORSDOF 7
ENDMDL
MODEL 3
REMARK VINA RESULT:      -8.4      2.463      2.772
REMARK  Name = 
REMARK  9 active torsions:
REMARK  status: ('A' for Active; 'I' for Inactive)
REMARK    1  A    between atoms: C_1  and  C_2
REMARK    2  A    between atoms: C_2  and  C_3
REMARK    3  A    between atoms: N_10  and  C_11
REMARK    4  A    between atoms: C_14  and  O_15
REMARK    5  A    between atoms: O_15  and  C_16
REMARK    6  A    between atoms: C_16  and  C_17
REMARK    7  A    between atoms: C_17  and  O_18
REMARK    8  A    between atoms: O_18  and  C_19
REMARK    9  A    between atoms: C_22  and  S_23
REMARK                            x       y       z     vdW  Elec       q    Type
REMARK                         _______ _______ _______ _____ _____    ______ ____
ROOT
ATOM      1  C   UNL     1       2.701   6.386  19.304  0.00  0.00    +0.000 A 
ATOM      2  C   UNL     1       2.781   6.962  18.027  0.00  0.00    +0.000 A 
ATOM      3  C   UNL     1       2.312   8.250  17.762  0.00  0.00    +0.000 A 
ATOM      4  C   UNL     1       1.667   8.983  18.749  0.00  0.00    +0.000 A 
ATOM      5  C   UNL     1       1.532   8.421  20.017  0.00  0.00    +0.000 A 
ATOM      6  C   UNL     1       2.075   7.157  20.297  0.00  0.00    +0.000 A 
ENDROOT
BRANCH   1  16
ATOM      7  C   UNL     1       1.804   3.815  18.048  0.00  0.00    +0.000 C 
ATOM      8  C   UNL     1       2.398   3.922  19.470  0.00  0.00    +0.000 C 
ATOM      9  C   UNL     1       1.247   3.927  20.492  0.00  0.00    +0.000 C 
ATOM     10  N   UNL     1       3.060   2.635  19.718  0.00  0.00    +0.000 NA
ATOM     11  C   UNL     1       4.340   2.597  19.663  0.00  0.00    +0.000 C 
ATOM     12  N   UNL     1       4.965   1.415  19.885  0.00  0.00    +0.000 N 
ATOM     13  N   UNL     1       5.138   3.643  19.366  0.00  0.00    +0.000 NA
ATOM     14  C   UNL     1       4.610   4.824  19.360  0.00  0.00    +0.000 C 
ATOM     15  N   UNL     1       5.478   5.850  19.142  0.00  0.00    +0.000 N 
ATOM     16  N   UNL     1       3.277   5.115  19.575  0.00  0.00    +0.000 N 
ATOM     17  H   UNL     1       4.355   0.626  19.731  0.00  0.00    +0.000 HD
ATOM     18  H   UNL     1       5.859   1.360  19.415  0.00  0.00    +0.000 HD
ATOM     19  H   UNL     1       6.440   5.536  19.185  0.00  0.00    +0.000 HD
ATOM     20  H   UNL     1       5.307   6.668  19.713  0.00  0.00    +0.000 HD
ENDBRANCH   1  16
BRANCH   4  21
ATOM     21  O   UNL     1       1.128  10.232  18.595  0.00  0.00    +0.000 OA
BRANCH  21  22
ATOM     22  C   UNL     1      -0.178  10.446  19.137  0.00  0.00    +0.000 C 
BRANCH  22  23
ATOM     23  C   UNL     1      -1.243  10.457  18.040  0.00  0.00    +0.000 C 
BRANCH  23  24
ATOM     24  O   UNL     1      -1.819  11.763  17.974  0.00  0.00    +0.000 OA
BRANCH  24  25
ATOM     25  C   UNL     1      -2.927  11.957  18.751  0.00  0.00    +0.000 A 
ATOM     26  C   UNL     1      -4.113  11.438  18.224  0.00  0.00    +0.000 A 
ATOM     27  C   UNL     1      -5.316  11.579  18.914  0.00  0.00    +0.000 A 
ATOM     28  C   UNL     1      -5.326  12.238  20.142  0.00  0.00    +0.000 A 
ATOM     29  C   UNL     1      -4.140  12.728  20.701  0.00  0.00    +0.000 A 
ATOM     30  C   UNL     1      -2.941  12.585  20.001  0.00  0.00    +0.000 A 
BRANCH  28  31
ATOM     31  S   UNL     1      -6.846  12.398  21.024  0.00  0.00    +0.000 S 
ATOM     32  O   UNL     1      -7.298  11.072  21.393  0.00  0.00    +0.000 OA
ATOM     33  O   UNL     1      -6.676  13.460  21.993  0.00  0.00    +0.000 OA
ATOM     34  F   UNL     1      -7.916  12.930  19.979  0.00  0.00    +0.000 F 
ENDBRANCH  28  31
ENDBRANCH  24  25
ENDBRANCH  23  24
ENDBRANCH  22  23
ENDBRANCH  21  22
ENDBRANCH   4  21
TORSDOF 7
ENDMDL
MODEL 4
REMARK VINA RESULT:      -8.4      0.899      1.049
REMARK  Name = 
REMARK  9 active torsions:
REMARK  status: ('A' for Active; 'I' for Inactive)
REMARK    1  A    between atoms: C_1  and  C_2
REMARK    2  A    between atoms: C_2  and  C_3
REMARK    3  A    between atoms: N_10  and  C_11
REMARK    4  A    between atoms: C_14  and  O_15
REMARK    5  A    between atoms: O_15  and  C_16
REMARK    6  A    between atoms: C_16  and  C_17
REMARK    7  A    between atoms: C_17  and  O_18
REMARK    8  A    between atoms: O_18  and  C_19
REMARK    9  A    between atoms: C_22  and  S_23
REMARK                            x       y       z     vdW  Elec       q    Type
REMARK                         _______ _______ _______ _____ _____    ______ ____
ROOT
ATOM      1  C   UNL     1       2.815   6.366  19.197  0.00  0.00    +0.000 A 
ATOM      2  C   UNL     1       3.033   6.941  17.936  0.00  0.00    +0.000 A 
ATOM      3  C   UNL     1       2.599   8.230  17.621  0.00  0.00    +0.000 A 
ATOM      4  C   UNL     1       1.856   8.967  18.534  0.00  0.00    +0.000 A 
ATOM      5  C   UNL     1       1.585   8.406  19.781  0.00  0.00    +0.000 A 
ATOM      6  C   UNL     1       2.090   7.140  20.117  0.00  0.00    +0.000 A 
ENDROOT
BRANCH   1  16
ATOM      7  C   UNL     1       1.906   3.774  17.994  0.00  0.00    +0.000 C 
ATOM      8  C   UNL     1       2.453   3.916  19.431  0.00  0.00    +0.000 C 
ATOM      9  C   UNL     1       1.269   3.977  20.413  0.00  0.00    +0.000 C 
ATOM     10  N   UNL     1       3.079   2.624  19.743  0.00  0.00    +0.000 NA
ATOM     11  C   UNL     1       4.359   2.558  19.734  0.00  0.00    +0.000 C 
ATOM     12  N   UNL     1       4.950   1.372  20.015  0.00  0.00    +0.000 N 
ATOM     13  N   UNL     1       5.189   3.578  19.431  0.00  0.00    +0.000 NA
ATOM     14  C   UNL     1       4.687   4.768  19.369  0.00  0.00    +0.000 C 
ATOM     15  N   UNL     1       5.584   5.768  19.148  0.00  0.00    +0.000 N 
ATOM     16  N   UNL     1       3.354   5.093  19.528  0.00  0.00    +0.000 N 
ATOM     17  H   UNL     1       4.329   0.590  19.865  0.00  0.00    +0.000 HD
ATOM     18  H   UNL     1       5.858   1.283  19.578  0.00  0.00    +0.000 HD
ATOM     19  H   UNL     1       6.537   5.436  19.234  0.00  0.00    +0.000 HD
ATOM     20  H   UNL     1       5.411   6.607  19.686  0.00  0.00    +0.000 HD
ENDBRANCH   1  16
BRANCH   4  21
ATOM     21  O   UNL     1       1.342  10.218  18.323  0.00  0.00    +0.000 OA
BRANCH  21  22
ATOM     22  C   UNL     1       0.352  10.677  19.249  0.00  0.00    +0.000 C 
BRANCH  22  23
ATOM     23  C   UNL     1       0.836  11.905  20.020  0.00  0.00    +0.000 C 
BRANCH  23  24
ATOM     24  O   UNL     1       0.587  11.700  21.411  0.00  0.00    +0.000 OA
BRANCH  24  25
ATOM     25  C   UNL     1      -0.659  12.061  21.845  0.00  0.00    +0.000 A 
ATOM     26  C   UNL     1      -1.121  11.353  22.959  0.00  0.00    +0.000 A 
ATOM     27  C   UNL     1      -2.381  11.619  23.492  0.00  0.00    +0.000 A 
ATOM     28  C   UNL     1      -3.176  12.604  22.910  0.00  0.00    +0.000 A 
ATOM     29  C   UNL     1      -2.711  13.347  21.820  0.00  0.00    +0.000 A 
ATOM     30  C   UNL     1      -1.449  13.072  21.290  0.00  0.00    +0.000 A 
BRANCH  28  31
ATOM     31  S   UNL     1      -4.763  12.953  23.600  0.00  0.00    +0.000 S 
ATOM     32  O   UNL     1      -5.060  11.938  24.590  0.00  0.00    +0.000 OA
ATOM     33  O   UNL     1      -4.805  14.368  23.898  0.00  0.00    +0.000 OA
ATOM     34  F   UNL     1      -5.818  12.722  22.436  0.00  0.00    +0.000 F 
ENDBRANCH  28  31
ENDBRANCH  24  25
ENDBRANCH  23  24
ENDBRANCH  22  23
ENDBRANCH  21  22
ENDBRANCH   4  21
TORSDOF 7
ENDMDL
MODEL 5
REMARK VINA RESULT:      -8.3      2.849      3.165
REMARK  Name = 
REMARK  9 active torsions:
REMARK  status: ('A' for Active; 'I' for Inactive)
REMARK    1  A    between atoms: C_1  and  C_2
REMARK    2  A    between atoms: C_2  and  C_3
REMARK    3  A    between atoms: N_10  and  C_11
REMARK    4  A    between atoms: C_14  and  O_15
REMARK    5  A    between atoms: O_15  and  C_16
REMARK    6  A    between atoms: C_16  and  C_17
REMARK    7  A    between atoms: C_17  and  O_18
REMARK    8  A    between atoms: O_18  and  C_19
REMARK    9  A    between atoms: C_22  and  S_23
REMARK                            x       y       z     vdW  Elec       q    Type
REMARK                         _______ _______ _______ _____ _____    ______ ____
ROOT
ATOM      1  C   UNL     1       2.849   6.458  19.197  0.00  0.00    +0.000 A 
ATOM      2  C   UNL     1       2.123   7.171  20.164  0.00  0.00    +0.000 A 
ATOM      3  C   UNL     1       1.508   8.391  19.880  0.00  0.00    +0.000 A 
ATOM      4  C   UNL     1       1.664   8.989  18.637  0.00  0.00    +0.000 A 
ATOM      5  C   UNL     1       2.416   8.327  17.668  0.00  0.00    +0.000 A 
ATOM      6  C   UNL     1       2.968   7.064  17.936  0.00  0.00    +0.000 A 
ENDROOT
BRANCH   1  16
ATOM      7  C   UNL     1       1.945   3.924  17.872  0.00  0.00    +0.000 C 
ATOM      8  C   UNL     1       2.476   4.002  19.320  0.00  0.00    +0.000 C 
ATOM      9  C   UNL     1       1.281   4.025  20.290  0.00  0.00    +0.000 C 
ATOM     10  N   UNL     1       3.094   2.695  19.584  0.00  0.00    +0.000 NA
ATOM     11  C   UNL     1       4.374   2.624  19.586  0.00  0.00    +0.000 C 
ATOM     12  N   UNL     1       4.957   1.425  19.823  0.00  0.00    +0.000 N 
ATOM     13  N   UNL     1       5.211   3.653  19.338  0.00  0.00    +0.000 NA
ATOM     14  C   UNL     1       4.713   4.846  19.321  0.00  0.00    +0.000 C 
ATOM     15  N   UNL     1       5.616   5.852  19.153  0.00  0.00    +0.000 N 
ATOM     16  N   UNL     1       3.380   5.170  19.478  0.00  0.00    +0.000 N 
ATOM     17  H   UNL     1       4.336   0.653  19.632  0.00  0.00    +0.000 HD
ATOM     18  H   UNL     1       5.870   1.351  19.393  0.00  0.00    +0.000 HD
ATOM     19  H   UNL     1       6.567   5.513  19.236  0.00  0.00    +0.000 HD
ATOM     20  H   UNL     1       5.440   6.668  19.725  0.00  0.00    +0.000 HD
ENDBRANCH   1  16
BRANCH   4  21
ATOM     21  O   UNL     1       1.147  10.199  18.260  0.00  0.00    +0.000 OA
BRANCH  21  22
ATOM     22  C   UNL     1       0.912  11.156  19.297  0.00  0.00    +0.000 C 
BRANCH  22  23
ATOM     23  C   UNL     1      -0.435  11.857  19.117  0.00  0.00    +0.000 C 
BRANCH  23  24
ATOM     24  O   UNL     1      -1.284  11.021  18.329  0.00  0.00    +0.000 OA
BRANCH  24  25
ATOM     25  C   UNL     1      -2.625  11.237  18.479  0.00  0.00    +0.000 A 
ATOM     26  C   UNL     1      -2.962  12.198  19.437  0.00  0.00    +0.000 A 
ATOM     27  C   UNL     1      -4.298  12.504  19.692  0.00  0.00    +0.000 A 
ATOM     28  C   UNL     1      -5.298  11.848  18.978  0.00  0.00    +0.000 A 
ATOM     29  C   UNL     1      -4.975  10.913  17.989  0.00  0.00    +0.000 A 
ATOM     30  C   UNL     1      -3.635  10.611  17.742  0.00  0.00    +0.000 A 
BRANCH  28  31
ATOM     31  S   UNL     1      -6.988  12.251  19.290  0.00  0.00    +0.000 S 
ATOM     32  O   UNL     1      -7.039  13.135  20.436  0.00  0.00    +0.000 OA
ATOM     33  O   UNL     1      -7.595  12.588  18.019  0.00  0.00    +0.000 OA
ATOM     34  F   UNL     1      -7.689  10.908  19.764  0.00  0.00    +0.000 F 
ENDBRANCH  28  31
ENDBRANCH  24  25
ENDBRANCH  23  24
ENDBRANCH  22  23
ENDBRANCH  21  22
ENDBRANCH   4  21
TORSDOF 7
ENDMDL
MODEL 6
REMARK VINA RESULT:      -8.3      1.229      1.348
REMARK  Name = 
REMARK  9 active torsions:
REMARK  status: ('A' for Active; 'I' for Inactive)
REMARK    1  A    between atoms: C_1  and  C_2
REMARK    2  A    between atoms: C_2  and  C_3
REMARK    3  A    between atoms: N_10  and  C_11
REMARK    4  A    between atoms: C_14  and  O_15
REMARK    5  A    between atoms: O_15  and  C_16
REMARK    6  A    between atoms: C_16  and  C_17
REMARK    7  A    between atoms: C_17  and  O_18
REMARK    8  A    between atoms: O_18  and  C_19
REMARK    9  A    between atoms: C_22  and  S_23
REMARK                            x       y       z     vdW  Elec       q    Type
REMARK                         _______ _______ _______ _____ _____    ______ ____
ROOT
ATOM      1  C   UNL     1       2.765   6.418  19.228  0.00  0.00    +0.000 A 
ATOM      2  C   UNL     1       2.930   7.012  17.967  0.00  0.00    +0.000 A 
ATOM      3  C   UNL     1       2.482   8.304  17.691  0.00  0.00    +0.000 A 
ATOM      4  C   UNL     1       1.776   9.026  18.645  0.00  0.00    +0.000 A 
ATOM      5  C   UNL     1       1.558   8.446  19.893  0.00  0.00    +0.000 A 
ATOM      6  C   UNL     1       2.078   7.177  20.189  0.00  0.00    +0.000 A 
ENDROOT
BRANCH   1  16
ATOM      7  C   UNL     1       1.850   3.849  17.980  0.00  0.00    +0.000 C 
ATOM      8  C   UNL     1       2.424   3.960  19.409  0.00  0.00    +0.000 C 
ATOM      9  C   UNL     1       1.259   3.989  20.415  0.00  0.00    +0.000 C 
ATOM     10  N   UNL     1       3.065   2.666  19.677  0.00  0.00    +0.000 NA
ATOM     11  C   UNL     1       4.345   2.608  19.641  0.00  0.00    +0.000 C 
ATOM     12  N   UNL     1       4.949   1.420  19.881  0.00  0.00    +0.000 N 
ATOM     13  N   UNL     1       5.162   3.641  19.347  0.00  0.00    +0.000 NA
ATOM     14  C   UNL     1       4.651   4.828  19.324  0.00  0.00    +0.000 C 
ATOM     15  N   UNL     1       5.536   5.840  19.110  0.00  0.00    +0.000 N 
ATOM     16  N   UNL     1       3.319   5.141  19.517  0.00  0.00    +0.000 N 
ATOM     17  H   UNL     1       4.330   0.638  19.724  0.00  0.00    +0.000 HD
ATOM     18  H   UNL     1       5.848   1.348  19.425  0.00  0.00    +0.000 HD
ATOM     19  H   UNL     1       6.493   5.513  19.169  0.00  0.00    +0.000 HD
ATOM     20  H   UNL     1       5.369   6.665  19.672  0.00  0.00    +0.000 HD
ENDBRANCH   1  16
BRANCH   4  21
ATOM     21  O   UNL     1       1.253  10.279  18.474  0.00  0.00    +0.000 OA
BRANCH  21  22
ATOM     22  C   UNL     1      -0.063  10.507  18.988  0.00  0.00    +0.000 C 
BRANCH  22  23
ATOM     23  C   UNL     1      -0.161  11.861  19.692  0.00  0.00    +0.000 C 
BRANCH  23  24
ATOM     24  O   UNL     1      -0.433  11.637  21.077  0.00  0.00    +0.000 OA
BRANCH  24  25
ATOM     25  C   UNL     1      -1.672  12.028  21.503  0.00  0.00    +0.000 A 
ATOM     26  C   UNL     1      -1.858  11.983  22.888  0.00  0.00    +0.000 A 
ATOM     27  C   UNL     1      -3.081  12.346  23.449  0.00  0.00    +0.000 A 
ATOM     28  C   UNL     1      -4.119  12.762  22.617  0.00  0.00    +0.000 A 
ATOM     29  C   UNL     1      -3.934  12.850  21.233  0.00  0.00    +0.000 A 
ATOM     30  C   UNL     1      -2.707  12.481  20.679  0.00  0.00    +0.000 A 
BRANCH  28  31
ATOM     31  S   UNL     1      -5.661  13.241  23.331  0.00  0.00    +0.000 S 
ATOM     32  O   UNL     1      -6.551  13.642  22.262  0.00  0.00    +0.000 OA
ATOM     33  O   UNL     1      -6.019  12.231  24.305  0.00  0.00    +0.000 OA
ATOM     34  F   UNL     1      -5.378  14.564  24.161  0.00  0.00    +0.000 F 
ENDBRANCH  28  31
ENDBRANCH  24  25
ENDBRANCH  23  24
ENDBRANCH  22  23
ENDBRANCH  21  22
ENDBRANCH   4  21
TORSDOF 7
ENDMDL
MODEL 7
REMARK VINA RESULT:      -8.3      2.750      3.099
REMARK  Name = 
REMARK  9 active torsions:
REMARK  status: ('A' for Active; 'I' for Inactive)
REMARK    1  A    between atoms: C_1  and  C_2
REMARK    2  A    between atoms: C_2  and  C_3
REMARK    3  A    between atoms: N_10  and  C_11
REMARK    4  A    between atoms: C_14  and  O_15
REMARK    5  A    between atoms: O_15  and  C_16
REMARK    6  A    between atoms: C_16  and  C_17
REMARK    7  A    between atoms: C_17  and  O_18
REMARK    8  A    between atoms: O_18  and  C_19
REMARK    9  A    between atoms: C_22  and  S_23
REMARK                            x       y       z     vdW  Elec       q    Type
REMARK                         _______ _______ _______ _____ _____    ______ ____
ROOT
ATOM      1  C   UNL     1       2.703   6.462  19.366  0.00  0.00    +0.000 A 
ATOM      2  C   UNL     1       2.083   7.161  20.413  0.00  0.00    +0.000 A 
ATOM      3  C   UNL     1       1.439   8.383  20.212  0.00  0.00    +0.000 A 
ATOM      4  C   UNL     1       1.460   8.995  18.965  0.00  0.00    +0.000 A 
ATOM      5  C   UNL     1       2.105   8.346  17.914  0.00  0.00    +0.000 A 
ATOM      6  C   UNL     1       2.685   7.082  18.107  0.00  0.00    +0.000 A 
ENDROOT
BRANCH   1  16
ATOM      7  C   UNL     1       1.771   3.964  17.993  0.00  0.00    +0.000 C 
ATOM      8  C   UNL     1       2.369   3.997  19.416  0.00  0.00    +0.000 C 
ATOM      9  C   UNL     1       1.220   3.968  20.441  0.00  0.00    +0.000 C 
ATOM     10  N   UNL     1       3.016   2.691  19.602  0.00  0.00    +0.000 NA
ATOM     11  C   UNL     1       4.295   2.639  19.542  0.00  0.00    +0.000 C 
ATOM     12  N   UNL     1       4.905   1.441  19.706  0.00  0.00    +0.000 N 
ATOM     13  N   UNL     1       5.105   3.689  19.293  0.00  0.00    +0.000 NA
ATOM     14  C   UNL     1       4.592   4.875  19.344  0.00  0.00    +0.000 C 
ATOM     15  N   UNL     1       5.473   5.899  19.171  0.00  0.00    +0.000 N 
ATOM     16  N   UNL     1       3.264   5.173  19.575  0.00  0.00    +0.000 N 
ATOM     17  H   UNL     1       4.285   0.667  19.516  0.00  0.00    +0.000 HD
ATOM     18  H   UNL     1       5.797   1.397  19.232  0.00  0.00    +0.000 HD
ATOM     19  H   UNL     1       6.431   5.571  19.197  0.00  0.00    +0.000 HD
ATOM     20  H   UNL     1       5.313   6.691  19.780  0.00  0.00    +0.000 HD
ENDBRANCH   1  16
BRANCH   4  21
ATOM     21  O   UNL     1       0.902  10.207  18.660  0.00  0.00    +0.000 OA
BRANCH  21  22
ATOM     22  C   UNL     1       1.023  11.242  19.640  0.00  0.00    +0.000 C 
BRANCH  22  23
ATOM     23  C   UNL     1      -0.337  11.613  20.231  0.00  0.00    +0.000 C 
BRANCH  23  24
ATOM     24  O   UNL     1      -1.033  12.439  19.295  0.00  0.00    +0.000 OA
BRANCH  24  25
ATOM     25  C   UNL     1      -2.390  12.277  19.262  0.00  0.00    +0.000 A 
ATOM     26  C   UNL     1      -2.862  11.478  18.216  0.00  0.00    +0.000 A 
ATOM     27  C   UNL     1      -4.227  11.243  18.066  0.00  0.00    +0.000 A 
ATOM     28  C   UNL     1      -5.122  11.807  18.974  0.00  0.00    +0.000 A 
ATOM     29  C   UNL     1      -4.661  12.576  20.048  0.00  0.00    +0.000 A 
ATOM     30  C   UNL     1      -3.293  12.808  20.189  0.00  0.00    +0.000 A 
BRANCH  28  31
ATOM     31  S   UNL     1      -6.849  11.493  18.793  0.00  0.00    +0.000 S 
ATOM     32  O   UNL     1      -7.388  12.449  17.847  0.00  0.00    +0.000 OA
ATOM     33  O   UNL     1      -7.016  10.063  18.635  0.00  0.00    +0.000 OA
ATOM     34  F   UNL     1      -7.519  11.858  20.185  0.00  0.00    +0.000 F 
ENDBRANCH  28  31
ENDBRANCH  24  25
ENDBRANCH  23  24
ENDBRANCH  22  23
ENDBRANCH  21  22
ENDBRANCH   4  21
TORSDOF 7
ENDMDL
MODEL 8
REMARK VINA RESULT:      -8.3      1.049      1.674
REMARK  Name = 
REMARK  9 active torsions:
REMARK  status: ('A' for Active; 'I' for Inactive)
REMARK    1  A    between atoms: C_1  and  C_2
REMARK    2  A    between atoms: C_2  and  C_3
REMARK    3  A    between atoms: N_10  and  C_11
REMARK    4  A    between atoms: C_14  and  O_15
REMARK    5  A    between atoms: O_15  and  C_16
REMARK    6  A    between atoms: C_16  and  C_17
REMARK    7  A    between atoms: C_17  and  O_18
REMARK    8  A    between atoms: O_18  and  C_19
REMARK    9  A    between atoms: C_22  and  S_23
REMARK                            x       y       z     vdW  Elec       q    Type
REMARK                         _______ _______ _______ _____ _____    ______ ____
ROOT
ATOM      1  C   UNL     1       2.775   6.358  19.303  0.00  0.00    +0.000 A 
ATOM      2  C   UNL     1       2.110   7.060  20.320  0.00  0.00    +0.000 A 
ATOM      3  C   UNL     1       1.483   8.286  20.089  0.00  0.00    +0.000 A 
ATOM      4  C   UNL     1       1.567   8.898  18.846  0.00  0.00    +0.000 A 
ATOM      5  C   UNL     1       2.258   8.246  17.826  0.00  0.00    +0.000 A 
ATOM      6  C   UNL     1       2.820   6.979  18.045  0.00  0.00    +0.000 A 
ENDROOT
BRANCH   1  16
ATOM      7  C   UNL     1       1.868   3.860  17.913  0.00  0.00    +0.000 C 
ATOM      8  C   UNL     1       2.419   3.896  19.356  0.00  0.00    +0.000 C 
ATOM      9  C   UNL     1       1.237   3.882  20.342  0.00  0.00    +0.000 C 
ATOM     10  N   UNL     1       3.048   2.587  19.570  0.00  0.00    +0.000 NA
ATOM     11  C   UNL     1       4.328   2.523  19.552  0.00  0.00    +0.000 C 
ATOM     12  N   UNL     1       4.922   1.321  19.743  0.00  0.00    +0.000 N 
ATOM     13  N   UNL     1       5.155   3.565  19.324  0.00  0.00    +0.000 NA
ATOM     14  C   UNL     1       4.650   4.755  19.351  0.00  0.00    +0.000 C 
ATOM     15  N   UNL     1       5.545   5.771  19.202  0.00  0.00    +0.000 N 
ATOM     16  N   UNL     1       3.318   5.065  19.537  0.00  0.00    +0.000 N 
ATOM     17  H   UNL     1       4.302   0.551  19.537  0.00  0.00    +0.000 HD
ATOM     18  H   UNL     1       5.829   1.267  19.298  0.00  0.00    +0.000 HD
ATOM     19  H   UNL     1       6.499   5.435  19.262  0.00  0.00    +0.000 HD
ATOM     20  H   UNL     1       5.372   6.568  19.802  0.00  0.00    +0.000 HD
ENDBRANCH   1  16
BRANCH   4  21
ATOM     21  O   UNL     1       1.032  10.114  18.515  0.00  0.00    +0.000 OA
BRANCH  21  22
ATOM     22  C   UNL     1       0.051  10.654  19.405  0.00  0.00    +0.000 C 
BRANCH  22  23
ATOM     23  C   UNL     1       0.660  11.701  20.339  0.00  0.00    +0.000 C 
BRANCH  23  24
ATOM     24  O   UNL     1      -0.181  12.856  20.342  0.00  0.00    +0.000 OA
BRANCH  24  25
ATOM     25  C   UNL     1      -1.262  12.793  21.177  0.00  0.00    +0.000 A 
ATOM     26  C   UNL     1      -2.462  13.243  20.618  0.00  0.00    +0.000 A 
ATOM     27  C   UNL     1      -3.637  13.241  21.369  0.00  0.00    +0.000 A 
ATOM     28  C   UNL     1      -3.607  12.779  22.684  0.00  0.00    +0.000 A 
ATOM     29  C   UNL     1      -2.421  12.290  23.243  0.00  0.00    +0.000 A 
ATOM     30  C   UNL     1      -1.250  12.299  22.485  0.00  0.00    +0.000 A 
BRANCH  28  31
ATOM     31  S   UNL     1      -5.099  12.759  23.626  0.00  0.00    +0.000 S 
ATOM     32  O   UNL     1      -6.188  12.398  22.742  0.00  0.00    +0.000 OA
ATOM     33  O   UNL     1      -4.825  12.047  24.856  0.00  0.00    +0.000 OA
ATOM     34  F   UNL     1      -5.383  14.263  24.048  0.00  0.00    +0.000 F 
ENDBRANCH  28  31
ENDBRANCH  24  25
ENDBRANCH  23  24
ENDBRANCH  22  23
ENDBRANCH  21  22
ENDBRANCH   4  21
TORSDOF 7
ENDMDL
MODEL 9
REMARK VINA RESULT:      -8.3      1.104      1.358
REMARK  Name = 
REMARK  9 active torsions:
REMARK  status: ('A' for Active; 'I' for Inactive)
REMARK    1  A    between atoms: C_1  and  C_2
REMARK    2  A    between atoms: C_2  and  C_3
REMARK    3  A    between atoms: N_10  and  C_11
REMARK    4  A    between atoms: C_14  and  O_15
REMARK    5  A    between atoms: O_15  and  C_16
REMARK    6  A    between atoms: C_16  and  C_17
REMARK    7  A    between atoms: C_17  and  O_18
REMARK    8  A    between atoms: O_18  and  C_19
REMARK    9  A    between atoms: C_22  and  S_23
REMARK                            x       y       z     vdW  Elec       q    Type
REMARK                         _______ _______ _______ _____ _____    ______ ____
ROOT
ATOM      1  C   UNL     1       2.727   6.422  19.277  0.00  0.00    +0.000 A 
ATOM      2  C   UNL     1       2.812   6.985  17.994  0.00  0.00    +0.000 A 
ATOM      3  C   UNL     1       2.355   8.275  17.717  0.00  0.00    +0.000 A 
ATOM      4  C   UNL     1       1.717   9.023  18.697  0.00  0.00    +0.000 A 
ATOM      5  C   UNL     1       1.577   8.475  19.970  0.00  0.00    +0.000 A 
ATOM      6  C   UNL     1       2.108   7.209  20.262  0.00  0.00    +0.000 A 
ENDROOT
BRANCH   1  16
ATOM      7  C   UNL     1       1.789   3.845  18.064  0.00  0.00    +0.000 C 
ATOM      8  C   UNL     1       2.397   3.965  19.479  0.00  0.00    +0.000 C 
ATOM      9  C   UNL     1       1.256   3.996  20.511  0.00  0.00    +0.000 C 
ATOM     10  N   UNL     1       3.047   2.674  19.738  0.00  0.00    +0.000 NA
ATOM     11  C   UNL     1       4.326   2.619  19.672  0.00  0.00    +0.000 C 
ATOM     12  N   UNL     1       4.939   1.434  19.905  0.00  0.00    +0.000 N 
ATOM     13  N   UNL     1       5.133   3.653  19.354  0.00  0.00    +0.000 NA
ATOM     14  C   UNL     1       4.618   4.839  19.337  0.00  0.00    +0.000 C 
ATOM     15  N   UNL     1       5.496   5.852  19.097  0.00  0.00    +0.000 N 
ATOM     16  N   UNL     1       3.291   5.149  19.559  0.00  0.00    +0.000 N 
ATOM     17  H   UNL     1       4.319   0.649  19.767  0.00  0.00    +0.000 HD
ATOM     18  H   UNL     1       5.828   1.362  19.428  0.00  0.00    +0.000 HD
ATOM     19  H   UNL     1       6.455   5.528  19.135  0.00  0.00    +0.000 HD
ATOM     20  H   UNL     1       5.339   6.679  19.658  0.00  0.00    +0.000 HD
ENDBRANCH   1  16
BRANCH   4  21
ATOM     21  O   UNL     1       1.190  10.276  18.531  0.00  0.00    +0.000 OA
BRANCH  21  22
ATOM     22  C   UNL     1      -0.235  10.375  18.449  0.00  0.00    +0.000 C 
BRANCH  22  23
ATOM     23  C   UNL     1      -0.741  11.674  19.077  0.00  0.00    +0.000 C 
BRANCH  23  24
ATOM     24  O   UNL     1      -0.529  11.613  20.488  0.00  0.00    +0.000 OA
BRANCH  24  25
ATOM     25  C   UNL     1      -1.597  11.975  21.260  0.00  0.00    +0.000 A 
ATOM     26  C   UNL     1      -2.713  12.422  20.547  0.00  0.00    +0.000 A 
ATOM     27  C   UNL     1      -3.865  12.830  21.217  0.00  0.00    +0.000 A 
ATOM     28  C   UNL     1      -3.898  12.783  22.610  0.00  0.00    +0.000 A 
ATOM     29  C   UNL     1      -2.804  12.300  23.335  0.00  0.00    +0.000 A 
ATOM     30  C   UNL     1      -1.654  11.896  22.655  0.00  0.00    +0.000 A 
BRANCH  28  31
ATOM     31  S   UNL     1      -5.365  13.282  23.456  0.00  0.00    +0.000 S 
ATOM     32  O   UNL     1      -5.122  14.577  24.058  0.00  0.00    +0.000 OA
ATOM     33  O   UNL     1      -6.483  13.031  22.571  0.00  0.00    +0.000 OA
ATOM     34  F   UNL     1      -5.542  12.280  24.675  0.00  0.00    +0.000 F 
ENDBRANCH  28  31
ENDBRANCH  24  25
ENDBRANCH  23  24
ENDBRANCH  22  23
ENDBRANCH  21  22
ENDBRANCH   4  21
TORSDOF 7
ENDMDL
