MODEL 1
REMARK VINA RESULT:      -7.2      0.000      0.000
REMARK  Name = 
REMARK  5 active torsions:
REMARK  status: ('A' for Active; 'I' for Inactive)
REMARK    1  A    between atoms: C_1  and  N_2
REMARK    2  A    between atoms: N_2  and  C_3
REMARK    3  A    between atoms: N_2  and  S_4
REMARK    4  A    between atoms: S_4  and  N_7
REMARK    5  A    between atoms: C_10  and  N_11
REMARK                            x       y       z     vdW  Elec       q    Type
REMARK                         _______ _______ _______ _____ _____    ______ ____
ROOT
ATOM      1  N   UNL     1       5.586   4.339  17.483  0.00  0.00    +0.000 NA
ATOM      2  C   UNL     1       5.509   4.117  18.935  0.00  0.00    +0.000 C 
ATOM      3  C   UNL     1       4.399   3.140  19.299  0.00  0.00    +0.000 C 
ATOM      4  C   UNL     1       3.043   3.567  18.716  0.00  0.00    +0.000 C 
ATOM      5  C   UNL     1       3.193   3.600  17.195  0.00  0.00    +0.000 C 
ATOM      6  C   UNL     1       4.344   4.462  16.694  0.00  0.00    +0.000 C 
ENDROOT
BRANCH   4   7
ATOM      7  N   UNL     1       2.486   4.743  19.374  0.00  0.00    +0.000 N 
ATOM      8  C   UNL     1       1.878   4.704  20.611  0.00  0.00    +0.000 A 
ATOM      9  N   UNL     1       1.548   5.899  21.046  0.00  0.00    +0.000 NA
ATOM     10  C   UNL     1       1.875   6.745  20.024  0.00  0.00    +0.000 A 
ATOM     11  C   UNL     1       1.759   8.135  19.909  0.00  0.00    +0.000 A 
ATOM     12  C   UNL     1       2.167   8.721  18.711  0.00  0.00    +0.000 A 
ATOM     13  C   UNL     1       2.653   7.906  17.695  0.00  0.00    +0.000 A 
ATOM     14  N   UNL     1       2.793   6.561  17.763  0.00  0.00    +0.000 NA
ATOM     15  C   UNL     1       2.412   6.044  18.946  0.00  0.00    +0.000 A 
ENDBRANCH   4   7
BRANCH   1  16
ATOM     16  S   UNL     1       6.917   5.206  16.905  0.00  0.00    +0.000 S 
ATOM     17  O   UNL     1       6.561   5.809  15.636  0.00  0.00    +0.000 OA
ATOM     18  O   UNL     1       8.076   4.350  17.013  0.00  0.00    +0.000 OA
BRANCH  16  20
ATOM     19  C   UNL     1       8.037   6.034  19.139  0.00  0.00    +0.000 C 
ATOM     20  N   UNL     1       7.145   6.467  18.023  0.00  0.00    +0.000 NA
ATOM     21  C   UNL     1       7.585   7.781  17.517  0.00  0.00    +0.000 C 
ENDBRANCH  16  20
ENDBRANCH   1  16
TORSDOF 3
ENDMDL
MODEL 2
REMARK VINA RESULT:      -7.2      1.837      3.886
REMARK  Name = 
REMARK  5 active torsions:
REMARK  status: ('A' for Active; 'I' for Inactive)
REMARK    1  A    between atoms: C_1  and  N_2
REMARK    2  A    between atoms: N_2  and  C_3
REMARK    3  A    between atoms: N_2  and  S_4
REMARK    4  A    between atoms: S_4  and  N_7
REMARK    5  A    between atoms: C_10  and  N_11
REMARK                            x       y       z     vdW  Elec       q    Type
REMARK                         _______ _______ _______ _____ _____    ______ ____
ROOT
ATOM      1  N   UNL     1       6.040   5.669  17.115  0.00  0.00    +0.000 NA
ATOM      2  C   UNL     1       4.803   6.153  16.483  0.00  0.00    +0.000 C 
ATOM      3  C   UNL     1       4.015   7.067  17.412  0.00  0.00    +0.000 C 
ATOM      4  C   UNL     1       3.739   6.406  18.771  0.00  0.00    +0.000 C 
ATOM      5  C   UNL     1       5.095   6.101  19.411  0.00  0.00    +0.000 C 
ATOM      6  C   UNL     1       6.033   5.278  18.538  0.00  0.00    +0.000 C 
ENDROOT
BRANCH   4   7
ATOM      7  N   UNL     1       2.763   5.326  18.691  0.00  0.00    +0.000 N 
ATOM      8  C   UNL     1       2.080   5.006  17.538  0.00  0.00    +0.000 A 
ATOM      9  N   UNL     1       1.332   3.935  17.678  0.00  0.00    +0.000 NA
ATOM     10  C   UNL     1       1.464   3.587  18.994  0.00  0.00    +0.000 A 
ATOM     11  C   UNL     1       0.908   2.531  19.725  0.00  0.00    +0.000 A 
ATOM     12  C   UNL     1       1.221   2.451  21.083  0.00  0.00    +0.000 A 
ATOM     13  C   UNL     1       2.048   3.418  21.641  0.00  0.00    +0.000 A 
ATOM     14  N   UNL     1       2.616   4.450  20.973  0.00  0.00    +0.000 NA
ATOM     15  C   UNL     1       2.308   4.471  19.662  0.00  0.00    +0.000 A 
ENDBRANCH   4   7
BRANCH   1  16
ATOM     16  S   UNL     1       7.138   4.843  16.128  0.00  0.00    +0.000 S 
ATOM     17  O   UNL     1       8.093   4.156  16.974  0.00  0.00    +0.000 OA
ATOM     18  O   UNL     1       7.587   5.763  15.109  0.00  0.00    +0.000 OA
BRANCH  16  20
ATOM     19  C   UNL     1       5.023   3.276  16.146  0.00  0.00    +0.000 C 
ATOM     20  N   UNL     1       6.215   3.658  15.333  0.00  0.00    +0.000 NA
ATOM     21  C   UNL     1       5.804   3.908  13.938  0.00  0.00    +0.000 C 
ENDBRANCH  16  20
ENDBRANCH   1  16
TORSDOF 3
ENDMDL
MODEL 3
REMARK VINA RESULT:      -7.2      3.554      6.233
REMARK  Name = 
REMARK  5 active torsions:
REMARK  status: ('A' for Active; 'I' for Inactive)
REMARK    1  A    between atoms: C_1  and  N_2
REMARK    2  A    between atoms: N_2  and  C_3
REMARK    3  A    between atoms: N_2  and  S_4
REMARK    4  A    between atoms: S_4  and  N_7
REMARK    5  A    between atoms: C_10  and  N_11
REMARK                            x       y       z     vdW  Elec       q    Type
REMARK                         _______ _______ _______ _____ _____    ______ ____
ROOT
ATOM      1  N   UNL     1       4.095   5.272  18.737  0.00  0.00    +0.000 NA
ATOM      2  C   UNL     1       5.116   4.215  18.686  0.00  0.00    +0.000 C 
ATOM      3  C   UNL     1       6.486   4.771  18.318  0.00  0.00    +0.000 C 
ATOM      4  C   UNL     1       6.445   5.587  17.017  0.00  0.00    +0.000 C 
ATOM      5  C   UNL     1       5.482   6.754  17.244  0.00  0.00    +0.000 C 
ATOM      6  C   UNL     1       4.096   6.344  17.722  0.00  0.00    +0.000 C 
ENDROOT
BRANCH   4   7
ATOM      7  N   UNL     1       6.250   4.760  15.832  0.00  0.00    +0.000 N 
ATOM      8  C   UNL     1       5.386   3.686  15.791  0.00  0.00    +0.000 A 
ATOM      9  N   UNL     1       5.299   3.157  14.592  0.00  0.00    +0.000 NA
ATOM     10  C   UNL     1       6.201   3.855  13.837  0.00  0.00    +0.000 A 
ATOM     11  C   UNL     1       6.546   3.746  12.485  0.00  0.00    +0.000 A 
ATOM     12  C   UNL     1       7.535   4.603  12.000  0.00  0.00    +0.000 A 
ATOM     13  C   UNL     1       8.131   5.504  12.874  0.00  0.00    +0.000 A 
ATOM     14  N   UNL     1       7.824   5.653  14.183  0.00  0.00    +0.000 NA
ATOM     15  C   UNL     1       6.847   4.826  14.600  0.00  0.00    +0.000 A 
ENDBRANCH   4   7
BRANCH   1  16
ATOM     16  S   UNL     1       2.582   4.853  19.365  0.00  0.00    +0.000 S 
ATOM     17  O   UNL     1       1.632   4.779  18.273  0.00  0.00    +0.000 OA
ATOM     18  O   UNL     1       2.329   5.706  20.503  0.00  0.00    +0.000 OA
BRANCH  16  20
ATOM     19  C   UNL     1       2.366   3.212  21.413  0.00  0.00    +0.000 C 
ATOM     20  N   UNL     1       2.777   3.279  19.979  0.00  0.00    +0.000 NA
ATOM     21  C   UNL     1       2.172   2.157  19.237  0.00  0.00    +0.000 C 
ENDBRANCH  16  20
ENDBRANCH   1  16
TORSDOF 3
ENDMDL
MODEL 4
REMARK VINA RESULT:      -7.1      3.549      6.195
REMARK  Name = 
REMARK  5 active torsions:
REMARK  status: ('A' for Active; 'I' for Inactive)
REMARK    1  A    between atoms: C_1  and  N_2
REMARK    2  A    between atoms: N_2  and  C_3
REMARK    3  A    between atoms: N_2  and  S_4
REMARK    4  A    between atoms: S_4  and  N_7
REMARK    5  A    between atoms: C_10  and  N_11
REMARK                            x       y       z     vdW  Elec       q    Type
REMARK                         _______ _______ _______ _____ _____    ______ ____
ROOT
ATOM      1  N   UNL     1       4.495   5.448  18.878  0.00  0.00    +0.000 NA
ATOM      2  C   UNL     1       5.490   4.370  18.776  0.00  0.00    +0.000 C 
ATOM      3  C   UNL     1       6.835   4.887  18.283  0.00  0.00    +0.000 C 
ATOM      4  C   UNL     1       6.704   5.667  16.966  0.00  0.00    +0.000 C 
ATOM      5  C   UNL     1       5.784   6.859  17.234  0.00  0.00    +0.000 C 
ATOM      6  C   UNL     1       4.433   6.491  17.834  0.00  0.00    +0.000 C 
ENDROOT
BRANCH   4   7
ATOM      7  N   UNL     1       6.399   4.811  15.826  0.00  0.00    +0.000 N 
ATOM      8  C   UNL     1       5.499   3.769  15.880  0.00  0.00    +0.000 A 
ATOM      9  N   UNL     1       5.311   3.206  14.707  0.00  0.00    +0.000 NA
ATOM     10  C   UNL     1       6.181   3.847  13.870  0.00  0.00    +0.000 A 
ATOM     11  C   UNL     1       6.428   3.684  12.502  0.00  0.00    +0.000 A 
ATOM     12  C   UNL     1       7.408   4.489  11.922  0.00  0.00    +0.000 A 
ATOM     13  C   UNL     1       8.094   5.395  12.722  0.00  0.00    +0.000 A 
ATOM     14  N   UNL     1       7.884   5.596  14.044  0.00  0.00    +0.000 NA
ATOM     15  C   UNL     1       6.911   4.817  14.554  0.00  0.00    +0.000 A 
ENDBRANCH   4   7
BRANCH   1  16
ATOM     16  S   UNL     1       3.030   5.077  19.637  0.00  0.00    +0.000 S 
ATOM     17  O   UNL     1       2.179   6.250  19.599  0.00  0.00    +0.000 OA
ATOM     18  O   UNL     1       3.340   4.434  20.893  0.00  0.00    +0.000 OA
BRANCH  16  20
ATOM     19  C   UNL     1       1.599   2.873  19.483  0.00  0.00    +0.000 C 
ATOM     20  N   UNL     1       2.309   3.891  18.655  0.00  0.00    +0.000 NA
ATOM     21  C   UNL     1       1.434   4.331  17.552  0.00  0.00    +0.000 C 
ENDBRANCH  16  20
ENDBRANCH   1  16
TORSDOF 3
ENDMDL
MODEL 5
REMARK VINA RESULT:      -7.1      1.766      3.001
REMARK  Name = 
REMARK  5 active torsions:
REMARK  status: ('A' for Active; 'I' for Inactive)
REMARK    1  A    between atoms: C_1  and  N_2
REMARK    2  A    between atoms: N_2  and  C_3
REMARK    3  A    between atoms: N_2  and  S_4
REMARK    4  A    between atoms: S_4  and  N_7
REMARK    5  A    between atoms: C_10  and  N_11
REMARK                            x       y       z     vdW  Elec       q    Type
REMARK                         _______ _______ _______ _____ _____    ______ ____
ROOT
ATOM      1  N   UNL     1       5.553   5.104  17.478  0.00  0.00    +0.000 NA
ATOM      2  C   UNL     1       5.512   5.781  18.783  0.00  0.00    +0.000 C 
ATOM      3  C   UNL     1       4.315   5.335  19.613  0.00  0.00    +0.000 C 
ATOM      4  C   UNL     1       2.993   5.495  18.847  0.00  0.00    +0.000 C 
ATOM      5  C   UNL     1       3.083   4.616  17.598  0.00  0.00    +0.000 C 
ATOM      6  C   UNL     1       4.302   4.885  16.726  0.00  0.00    +0.000 C 
ENDROOT
BRANCH   4   7
ATOM      7  N   UNL     1       2.598   6.888  18.676  0.00  0.00    +0.000 N 
ATOM      8  C   UNL     1       2.862   7.615  17.535  0.00  0.00    +0.000 A 
ATOM      9  N   UNL     1       2.322   8.813  17.568  0.00  0.00    +0.000 NA
ATOM     10  C   UNL     1       1.755   8.906  18.808  0.00  0.00    +0.000 A 
ATOM     11  C   UNL     1       1.035   9.943  19.414  0.00  0.00    +0.000 A 
ATOM     12  C   UNL     1       0.593   9.743  20.722  0.00  0.00    +0.000 A 
ATOM     13  C   UNL     1       0.894   8.545  21.359  0.00  0.00    +0.000 A 
ATOM     14  N   UNL     1       1.576   7.512  20.811  0.00  0.00    +0.000 NA
ATOM     15  C   UNL     1       1.959   7.738  19.541  0.00  0.00    +0.000 A 
ENDBRANCH   4   7
BRANCH   1  16
ATOM     16  S   UNL     1       6.948   5.311  16.545  0.00  0.00    +0.000 S 
ATOM     17  O   UNL     1       7.940   4.347  16.976  0.00  0.00    +0.000 OA
ATOM     18  O   UNL     1       7.255   6.723  16.526  0.00  0.00    +0.000 OA
BRANCH  16  20
ATOM     19  C   UNL     1       7.500   5.372  13.971  0.00  0.00    +0.000 C 
ATOM     20  N   UNL     1       6.488   4.898  14.961  0.00  0.00    +0.000 NA
ATOM     21  C   UNL     1       6.137   3.494  14.677  0.00  0.00    +0.000 C 
ENDBRANCH  16  20
ENDBRANCH   1  16
TORSDOF 3
ENDMDL
MODEL 6
REMARK VINA RESULT:      -7.1      1.492      2.536
REMARK  Name = 
REMARK  5 active torsions:
REMARK  status: ('A' for Active; 'I' for Inactive)
REMARK    1  A    between atoms: C_1  and  N_2
REMARK    2  A    between atoms: N_2  and  C_3
REMARK    3  A    between atoms: N_2  and  S_4
REMARK    4  A    between atoms: S_4  and  N_7
REMARK    5  A    between atoms: C_10  and  N_11
REMARK                            x       y       z     vdW  Elec       q    Type
REMARK                         _______ _______ _______ _____ _____    ______ ____
ROOT
ATOM      1  N   UNL     1       5.113   4.634  17.887  0.00  0.00    +0.000 NA
ATOM      2  C   UNL     1       5.085   5.390  19.148  0.00  0.00    +0.000 C 
ATOM      3  C   UNL     1       3.803   5.136  19.930  0.00  0.00    +0.000 C 
ATOM      4  C   UNL     1       2.550   5.399  19.081  0.00  0.00    +0.000 C 
ATOM      5  C   UNL     1       2.600   4.440  17.890  0.00  0.00    +0.000 C 
ATOM      6  C   UNL     1       3.885   4.514  17.077  0.00  0.00    +0.000 C 
ENDROOT
BRANCH   4   7
ATOM      7  N   UNL     1       2.332   6.815  18.812  0.00  0.00    +0.000 N 
ATOM      8  C   UNL     1       2.666   7.419  17.618  0.00  0.00    +0.000 A 
ATOM      9  N   UNL     1       2.282   8.675  17.567  0.00  0.00    +0.000 NA
ATOM     10  C   UNL     1       1.752   8.928  18.802  0.00  0.00    +0.000 A 
ATOM     11  C   UNL     1       1.180  10.089  19.336  0.00  0.00    +0.000 A 
ATOM     12  C   UNL     1       0.738  10.041  20.658  0.00  0.00    +0.000 A 
ATOM     13  C   UNL     1       0.896   8.864  21.379  0.00  0.00    +0.000 A 
ATOM     14  N   UNL     1       1.433   7.716  20.903  0.00  0.00    +0.000 NA
ATOM     15  C   UNL     1       1.820   7.800  19.616  0.00  0.00    +0.000 A 
ENDBRANCH   4   7
BRANCH   1  16
ATOM     16  S   UNL     1       6.569   4.622  17.027  0.00  0.00    +0.000 S 
ATOM     17  O   UNL     1       6.423   3.746  15.882  0.00  0.00    +0.000 OA
ATOM     18  O   UNL     1       7.637   4.418  17.978  0.00  0.00    +0.000 OA
BRANCH  16  20
ATOM     19  C   UNL     1       5.527   6.643  15.698  0.00  0.00    +0.000 C 
ATOM     20  N   UNL     1       6.749   6.207  16.437  0.00  0.00    +0.000 NA
ATOM     21  C   UNL     1       7.160   7.264  17.381  0.00  0.00    +0.000 C 
ENDBRANCH  16  20
ENDBRANCH   1  16
TORSDOF 3
ENDMDL
MODEL 7
REMARK VINA RESULT:      -7.0      3.426      6.242
REMARK  Name = 
REMARK  5 active torsions:
REMARK  status: ('A' for Active; 'I' for Inactive)
REMARK    1  A    between atoms: C_1  and  N_2
REMARK    2  A    between atoms: N_2  and  C_3
REMARK    3  A    between atoms: N_2  and  S_4
REMARK    4  A    between atoms: S_4  and  N_7
REMARK    5  A    between atoms: C_10  and  N_11
REMARK                            x       y       z     vdW  Elec       q    Type
REMARK                         _______ _______ _______ _____ _____    ______ ____
ROOT
ATOM      1  N   UNL     1       4.213   6.150  18.196  0.00  0.00    +0.000 NA
ATOM      2  C   UNL     1       4.705   4.771  18.334  0.00  0.00    +0.000 C 
ATOM      3  C   UNL     1       6.225   4.706  18.273  0.00  0.00    +0.000 C 
ATOM      4  C   UNL     1       6.780   5.385  17.011  0.00  0.00    +0.000 C 
ATOM      5  C   UNL     1       6.350   6.852  17.059  0.00  0.00    +0.000 C 
ATOM      6  C   UNL     1       4.851   7.064  17.229  0.00  0.00    +0.000 C 
ENDROOT
BRANCH   4   7
ATOM      7  N   UNL     1       6.507   4.632  15.793  0.00  0.00    +0.000 N 
ATOM      8  C   UNL     1       5.641   3.561  15.742  0.00  0.00    +0.000 A 
ATOM      9  N   UNL     1       5.475   3.106  14.520  0.00  0.00    +0.000 NA
ATOM     10  C   UNL     1       6.326   3.852  13.753  0.00  0.00    +0.000 A 
ATOM     11  C   UNL     1       6.582   3.828  12.377  0.00  0.00    +0.000 A 
ATOM     12  C   UNL     1       7.538   4.715  11.883  0.00  0.00    +0.000 A 
ATOM     13  C   UNL     1       8.192   5.563  12.769  0.00  0.00    +0.000 A 
ATOM     14  N   UNL     1       7.970   5.630  14.103  0.00  0.00    +0.000 NA
ATOM     15  C   UNL     1       7.022   4.775  14.530  0.00  0.00    +0.000 A 
ENDBRANCH   4   7
BRANCH   1  16
ATOM     16  S   UNL     1       2.567   6.415  18.485  0.00  0.00    +0.000 S 
ATOM     17  O   UNL     1       1.816   5.312  17.920  0.00  0.00    +0.000 OA
ATOM     18  O   UNL     1       2.271   7.777  18.108  0.00  0.00    +0.000 OA
BRANCH  16  20
ATOM     19  C   UNL     1       1.656   7.525  20.692  0.00  0.00    +0.000 C 
ATOM     20  N   UNL     1       2.395   6.336  20.175  0.00  0.00    +0.000 NA
ATOM     21  C   UNL     1       1.833   5.107  20.766  0.00  0.00    +0.000 C 
ENDBRANCH  16  20
ENDBRANCH   1  16
TORSDOF 3
ENDMDL
MODEL 8
REMARK VINA RESULT:      -7.0      3.460      6.183
REMARK  Name = 
REMARK  5 active torsions:
REMARK  status: ('A' for Active; 'I' for Inactive)
REMARK    1  A    between atoms: C_1  and  N_2
REMARK    2  A    between atoms: N_2  and  C_3
REMARK    3  A    between atoms: N_2  and  S_4
REMARK    4  A    between atoms: S_4  and  N_7
REMARK    5  A    between atoms: C_10  and  N_11
REMARK                            x       y       z     vdW  Elec       q    Type
REMARK                         _______ _______ _______ _____ _____    ______ ____
ROOT
ATOM      1  N   UNL     1       4.342   5.966  18.578  0.00  0.00    +0.000 NA
ATOM      2  C   UNL     1       5.090   4.702  18.657  0.00  0.00    +0.000 C 
ATOM      3  C   UNL     1       6.570   4.903  18.361  0.00  0.00    +0.000 C 
ATOM      4  C   UNL     1       6.797   5.616  17.018  0.00  0.00    +0.000 C 
ATOM      5  C   UNL     1       6.121   6.985  17.112  0.00  0.00    +0.000 C 
ATOM      6  C   UNL     1       4.652   6.937  17.510  0.00  0.00    +0.000 C 
ENDROOT
BRANCH   4   7
ATOM      7  N   UNL     1       6.484   4.776  15.868  0.00  0.00    +0.000 N 
ATOM      8  C   UNL     1       5.596   3.723  15.918  0.00  0.00    +0.000 A 
ATOM      9  N   UNL     1       5.397   3.178  14.739  0.00  0.00    +0.000 NA
ATOM     10  C   UNL     1       6.246   3.844  13.899  0.00  0.00    +0.000 A 
ATOM     11  C   UNL     1       6.473   3.707  12.525  0.00  0.00    +0.000 A 
ATOM     12  C   UNL     1       7.436   4.533  11.944  0.00  0.00    +0.000 A 
ATOM     13  C   UNL     1       8.124   5.433  12.749  0.00  0.00    +0.000 A 
ATOM     14  N   UNL     1       7.932   5.608  14.078  0.00  0.00    +0.000 NA
ATOM     15  C   UNL     1       6.976   4.810  14.588  0.00  0.00    +0.000 A 
ENDBRANCH   4   7
BRANCH   1  16
ATOM     16  S   UNL     1       2.739   5.948  19.116  0.00  0.00    +0.000 S 
ATOM     17  O   UNL     1       2.661   5.134  20.311  0.00  0.00    +0.000 OA
ATOM     18  O   UNL     1       1.899   5.664  17.975  0.00  0.00    +0.000 OA
BRANCH  16  20
ATOM     19  C   UNL     1       1.886   8.337  18.409  0.00  0.00    +0.000 C 
ATOM     20  N   UNL     1       2.405   7.553  19.569  0.00  0.00    +0.000 NA
ATOM     21  C   UNL     1       1.549   7.785  20.747  0.00  0.00    +0.000 C 
ENDBRANCH  16  20
ENDBRANCH   1  16
TORSDOF 3
ENDMDL
MODEL 9
REMARK VINA RESULT:      -6.9      3.005      5.380
REMARK  Name = 
REMARK  5 active torsions:
REMARK  status: ('A' for Active; 'I' for Inactive)
REMARK    1  A    between atoms: C_1  and  N_2
REMARK    2  A    between atoms: N_2  and  C_3
REMARK    3  A    between atoms: N_2  and  S_4
REMARK    4  A    between atoms: S_4  and  N_7
REMARK    5  A    between atoms: C_10  and  N_11
REMARK                            x       y       z     vdW  Elec       q    Type
REMARK                         _______ _______ _______ _____ _____    ______ ____
ROOT
ATOM      1  N   UNL     1       2.613   3.961  19.262  0.00  0.00    +0.000 NA
ATOM      2  C   UNL     1       2.364   4.375  17.872  0.00  0.00    +0.000 C 
ATOM      3  C   UNL     1       3.088   3.476  16.878  0.00  0.00    +0.000 C 
ATOM      4  C   UNL     1       4.591   3.376  17.181  0.00  0.00    +0.000 C 
ATOM      5  C   UNL     1       4.732   2.777  18.581  0.00  0.00    +0.000 C 
ATOM      6  C   UNL     1       3.964   3.521  19.665  0.00  0.00    +0.000 C 
ENDROOT
BRANCH   4   7
ATOM      7  N   UNL     1       5.314   4.608  16.888  0.00  0.00    +0.000 N 
ATOM      8  C   UNL     1       5.100   5.360  15.753  0.00  0.00    +0.000 A 
ATOM      9  N   UNL     1       5.790   6.478  15.754  0.00  0.00    +0.000 NA
ATOM     10  C   UNL     1       6.547   6.419  16.891  0.00  0.00    +0.000 A 
ATOM     11  C   UNL     1       7.471   7.323  17.427  0.00  0.00    +0.000 A 
ATOM     12  C   UNL     1       8.110   6.965  18.615  0.00  0.00    +0.000 A 
ATOM     13  C   UNL     1       7.813   5.738  19.195  0.00  0.00    +0.000 A 
ATOM     14  N   UNL     1       6.921   4.837  18.720  0.00  0.00    +0.000 NA
ATOM     15  C   UNL     1       6.310   5.237  17.589  0.00  0.00    +0.000 A 
ENDBRANCH   4   7
BRANCH   1  16
ATOM     16  S   UNL     1       1.690   4.708  20.466  0.00  0.00    +0.000 S 
ATOM     17  O   UNL     1       2.400   4.602  21.725  0.00  0.00    +0.000 OA
ATOM     18  O   UNL     1       0.336   4.221  20.342  0.00  0.00    +0.000 OA
BRANCH  16  20
ATOM     19  C   UNL     1       1.181   7.190  21.182  0.00  0.00    +0.000 C 
ATOM     20  N   UNL     1       1.650   6.353  20.039  0.00  0.00    +0.000 NA
ATOM     21  C   UNL     1       2.862   6.954  19.449  0.00  0.00    +0.000 C 
ENDBRANCH  16  20
ENDBRANCH   1  16
TORSDOF 3
ENDMDL
