MODEL 1
REMARK VINA RESULT:      -8.4      0.000      0.000
REMARK  Name = 
REMARK  10 active torsions:
REMARK  status: ('A' for Active; 'I' for Inactive)
REMARK    1  A    between atoms: C_1  and  C_2
REMARK    2  A    between atoms: C_4  and  C_5
REMARK    3  A    between atoms: C_6  and  S_7
REMARK    4  A    between atoms: S_7  and  N_10
REMARK    5  A    between atoms: N_10  and  C_11
REMARK    6  A    between atoms: C_11  and  C_12
REMARK    7  A    between atoms: C_11  and  C_20
REMARK    8  A    between atoms: C_12  and  N_13
REMARK    9  A    between atoms: N_13  and  C_14
REMARK   10  A    between atoms: C_24  and  C_25
REMARK                            x       y       z     vdW  Elec       q    Type
REMARK                         _______ _______ _______ _____ _____    ______ ____
ROOT
ATOM      1  N   UNL     1       3.081   4.094  19.106  0.00  0.00    +0.000 NA
ATOM      2  H   UNL     1       2.815   3.394  18.408  0.00  0.00    +0.000 HD
ENDROOT
BRANCH   1   3
ATOM      3  S   UNL     1       4.771   4.211  19.215  0.00  0.00    +0.000 S 
ATOM      4  O   UNL     1       5.215   2.951  19.742  0.00  0.00    +0.000 OA
ATOM      5  O   UNL     1       5.128   5.406  19.922  0.00  0.00    +0.000 OA
BRANCH   3  11
ATOM      6  C   UNL     1       6.905   4.475  13.476  0.00  0.00    +0.000 C 
ATOM      7  C   UNL     1       6.379   4.416  14.879  0.00  0.00    +0.000 A 
ATOM      8  C   UNL     1       7.186   4.764  15.956  0.00  0.00    +0.000 A 
ATOM      9  C   UNL     1       6.701   4.738  17.277  0.00  0.00    +0.000 A 
ATOM     10  C   UNL     1       7.696   5.138  18.336  0.00  0.00    +0.000 C 
ATOM     11  C   UNL     1       5.343   4.363  17.516  0.00  0.00    +0.000 A 
ATOM     12  C   UNL     1       4.515   4.013  16.420  0.00  0.00    +0.000 A 
ATOM     13  C   UNL     1       3.070   3.586  16.498  0.00  0.00    +0.000 C 
ATOM     14  C   UNL     1       5.061   4.028  15.120  0.00  0.00    +0.000 A 
ENDBRANCH   3  11
ENDBRANCH   1   3
BRANCH   1  15
ATOM     15  C   UNL     1       2.273   4.018  20.391  0.00  0.00    +0.000 C 
BRANCH  15  16
ATOM     16  C   UNL     1       1.325   2.800  20.503  0.00  0.00    +0.000 C 
ATOM     17  F   UNL     1       1.872   1.663  20.026  0.00  0.00    +0.000 F 
ATOM     18  F   UNL     1       0.939   2.607  21.783  0.00  0.00    +0.000 F 
ATOM     19  F   UNL     1       0.188   2.972  19.782  0.00  0.00    +0.000 F 
ENDBRANCH  15  16
BRANCH  15  20
ATOM     20  C   UNL     1       1.469   5.317  20.638  0.00  0.00    +0.000 C 
BRANCH  20  21
ATOM     21  N   UNL     1       2.316   6.518  20.780  0.00  0.00    +0.000 N 
ATOM     22  H   UNL     1       3.305   6.280  20.654  0.00  0.00    +0.000 HD
BRANCH  21  23
ATOM     23  C   UNL     1       2.045   7.552  19.847  0.00  0.00    +0.000 A 
ATOM     24  C   UNL     1       2.485   7.524  18.518  0.00  0.00    +0.000 A 
ATOM     25  C   UNL     1       2.203   8.578  17.645  0.00  0.00    +0.000 A 
ATOM     26  C   UNL     1       1.445   9.663  18.075  0.00  0.00    +0.000 A 
ATOM     27  C   UNL     1       0.926   9.664  19.366  0.00  0.00    +0.000 A 
ATOM     28  C   UNL     1       1.205   8.609  20.235  0.00  0.00    +0.000 A 
ENDBRANCH  21  23
ENDBRANCH  20  21
ENDBRANCH  15  20
ENDBRANCH   1  15
TORSDOF 7
ENDMDL
MODEL 2
REMARK VINA RESULT:      -8.3      2.967      6.838
REMARK  Name = 
REMARK  10 active torsions:
REMARK  status: ('A' for Active; 'I' for Inactive)
REMARK    1  A    between atoms: C_1  and  C_2
REMARK    2  A    between atoms: C_4  and  C_5
REMARK    3  A    between atoms: C_6  and  S_7
REMARK    4  A    between atoms: S_7  and  N_10
REMARK    5  A    between atoms: N_10  and  C_11
REMARK    6  A    between atoms: C_11  and  C_12
REMARK    7  A    between atoms: C_11  and  C_20
REMARK    8  A    between atoms: C_12  and  N_13
REMARK    9  A    between atoms: N_13  and  C_14
REMARK   10  A    between atoms: C_24  and  C_25
REMARK                            x       y       z     vdW  Elec       q    Type
REMARK                         _______ _______ _______ _____ _____    ______ ____
ROOT
ATOM      1  N   UNL     1       5.034   4.830  17.290  0.00  0.00    +0.000 NA
ATOM      2  H   UNL     1       4.802   5.814  17.131  0.00  0.00    +0.000 HD
ENDROOT
BRANCH   1   3
ATOM      3  S   UNL     1       3.771   4.047  18.111  0.00  0.00    +0.000 S 
ATOM      4  O   UNL     1       4.404   3.104  18.989  0.00  0.00    +0.000 OA
ATOM      5  O   UNL     1       2.812   3.556  17.165  0.00  0.00    +0.000 OA
BRANCH   3  11
ATOM      6  C   UNL     1       0.887   8.443  21.258  0.00  0.00    +0.000 C 
ATOM      7  C   UNL     1       1.598   7.367  20.494  0.00  0.00    +0.000 A 
ATOM      8  C   UNL     1       2.324   7.671  19.348  0.00  0.00    +0.000 A 
ATOM      9  C   UNL     1       3.017   6.677  18.632  0.00  0.00    +0.000 A 
ATOM     10  C   UNL     1       3.755   7.160  17.411  0.00  0.00    +0.000 C 
ATOM     11  C   UNL     1       2.988   5.328  19.102  0.00  0.00    +0.000 A 
ATOM     12  C   UNL     1       2.253   5.015  20.273  0.00  0.00    +0.000 A 
ATOM     13  C   UNL     1       2.111   3.648  20.895  0.00  0.00    +0.000 C 
ATOM     14  C   UNL     1       1.553   6.045  20.935  0.00  0.00    +0.000 A 
ENDBRANCH   3  11
ENDBRANCH   1   3
BRANCH   1  15
ATOM     15  C   UNL     1       6.460   4.604  17.765  0.00  0.00    +0.000 C 
BRANCH  15  16
ATOM     16  C   UNL     1       6.982   5.631  18.798  0.00  0.00    +0.000 C 
ATOM     17  F   UNL     1       7.066   6.881  18.298  0.00  0.00    +0.000 F 
ATOM     18  F   UNL     1       6.202   5.642  19.901  0.00  0.00    +0.000 F 
ATOM     19  F   UNL     1       8.238   5.336  19.219  0.00  0.00    +0.000 F 
ENDBRANCH  15  16
BRANCH  15  20
ATOM     20  C   UNL     1       7.451   4.521  16.579  0.00  0.00    +0.000 C 
BRANCH  20  21
ATOM     21  N   UNL     1       7.156   5.478  15.494  0.00  0.00    +0.000 N 
ATOM     22  H   UNL     1       7.939   6.125  15.360  0.00  0.00    +0.000 HD
BRANCH  21  23
ATOM     23  C   UNL     1       6.920   4.886  14.226  0.00  0.00    +0.000 A 
ATOM     24  C   UNL     1       7.752   5.086  13.117  0.00  0.00    +0.000 A 
ATOM     25  C   UNL     1       7.463   4.492  11.886  0.00  0.00    +0.000 A 
ATOM     26  C   UNL     1       6.358   3.657  11.750  0.00  0.00    +0.000 A 
ATOM     27  C   UNL     1       5.572   3.378  12.864  0.00  0.00    +0.000 A 
ATOM     28  C   UNL     1       5.865   3.970  14.094  0.00  0.00    +0.000 A 
ENDBRANCH  21  23
ENDBRANCH  20  21
ENDBRANCH  15  20
ENDBRANCH   1  15
TORSDOF 7
ENDMDL
MODEL 3
REMARK VINA RESULT:      -8.2      3.012      6.938
REMARK  Name = 
REMARK  10 active torsions:
REMARK  status: ('A' for Active; 'I' for Inactive)
REMARK    1  A    between atoms: C_1  and  C_2
REMARK    2  A    between atoms: C_4  and  C_5
REMARK    3  A    between atoms: C_6  and  S_7
REMARK    4  A    between atoms: S_7  and  N_10
REMARK    5  A    between atoms: N_10  and  C_11
REMARK    6  A    between atoms: C_11  and  C_12
REMARK    7  A    between atoms: C_11  and  C_20
REMARK    8  A    between atoms: C_12  and  N_13
REMARK    9  A    between atoms: N_13  and  C_14
REMARK   10  A    between atoms: C_24  and  C_25
REMARK                            x       y       z     vdW  Elec       q    Type
REMARK                         _______ _______ _______ _____ _____    ______ ____
ROOT
ATOM      1  N   UNL     1       5.174   4.988  17.427  0.00  0.00    +0.000 NA
ATOM      2  H   UNL     1       4.966   5.990  17.441  0.00  0.00    +0.000 HD
ENDROOT
BRANCH   1   3
ATOM      3  S   UNL     1       3.898   4.107  18.120  0.00  0.00    +0.000 S 
ATOM      4  O   UNL     1       4.509   3.223  19.072  0.00  0.00    +0.000 OA
ATOM      5  O   UNL     1       3.088   3.536  17.085  0.00  0.00    +0.000 OA
BRANCH   3  11
ATOM      6  C   UNL     1       0.745   8.223  21.387  0.00  0.00    +0.000 C 
ATOM      7  C   UNL     1       1.511   7.217  20.582  0.00  0.00    +0.000 A 
ATOM      8  C   UNL     1       1.475   5.867  20.911  0.00  0.00    +0.000 A 
ATOM      9  C   UNL     1       2.169   4.906  20.153  0.00  0.00    +0.000 A 
ATOM     10  C   UNL     1       2.036   3.485  20.635  0.00  0.00    +0.000 C 
ATOM     11  C   UNL     1       2.914   5.325  19.007  0.00  0.00    +0.000 A 
ATOM     12  C   UNL     1       2.950   6.700  18.665  0.00  0.00    +0.000 A 
ATOM     13  C   UNL     1       3.692   7.308  17.501  0.00  0.00    +0.000 C 
ATOM     14  C   UNL     1       2.260   7.623  19.478  0.00  0.00    +0.000 A 
ENDBRANCH   3  11
ENDBRANCH   1   3
BRANCH   1  15
ATOM     15  C   UNL     1       6.598   4.650  17.838  0.00  0.00    +0.000 C 
BRANCH  15  16
ATOM     16  C   UNL     1       7.236   5.618  18.863  0.00  0.00    +0.000 C 
ATOM     17  F   UNL     1       7.443   6.853  18.361  0.00  0.00    +0.000 F 
ATOM     18  F   UNL     1       6.475   5.710  19.976  0.00  0.00    +0.000 F 
ATOM     19  F   UNL     1       8.459   5.195  19.270  0.00  0.00    +0.000 F 
ENDBRANCH  15  16
BRANCH  15  20
ATOM     20  C   UNL     1       7.531   4.517  16.610  0.00  0.00    +0.000 C 
BRANCH  20  21
ATOM     21  N   UNL     1       7.225   5.476  15.530  0.00  0.00    +0.000 N 
ATOM     22  H   UNL     1       8.013   6.114  15.379  0.00  0.00    +0.000 HD
BRANCH  21  23
ATOM     23  C   UNL     1       6.959   4.885  14.267  0.00  0.00    +0.000 A 
ATOM     24  C   UNL     1       7.747   5.109  13.131  0.00  0.00    +0.000 A 
ATOM     25  C   UNL     1       7.429   4.514  11.908  0.00  0.00    +0.000 A 
ATOM     26  C   UNL     1       6.339   3.655  11.805  0.00  0.00    +0.000 A 
ATOM     27  C   UNL     1       5.599   3.353  12.944  0.00  0.00    +0.000 A 
ATOM     28  C   UNL     1       5.921   3.945  14.166  0.00  0.00    +0.000 A 
ENDBRANCH  21  23
ENDBRANCH  20  21
ENDBRANCH  15  20
ENDBRANCH   1  15
TORSDOF 7
ENDMDL
MODEL 4
REMARK VINA RESULT:      -8.1      2.902      6.902
REMARK  Name = 
REMARK  10 active torsions:
REMARK  status: ('A' for Active; 'I' for Inactive)
REMARK    1  A    between atoms: C_1  and  C_2
REMARK    2  A    between atoms: C_4  and  C_5
REMARK    3  A    between atoms: C_6  and  S_7
REMARK    4  A    between atoms: S_7  and  N_10
REMARK    5  A    between atoms: N_10  and  C_11
REMARK    6  A    between atoms: C_11  and  C_12
REMARK    7  A    between atoms: C_11  and  C_20
REMARK    8  A    between atoms: C_12  and  N_13
REMARK    9  A    between atoms: N_13  and  C_14
REMARK   10  A    between atoms: C_24  and  C_25
REMARK                            x       y       z     vdW  Elec       q    Type
REMARK                         _______ _______ _______ _____ _____    ______ ____
ROOT
ATOM      1  N   UNL     1       4.727   4.729  17.107  0.00  0.00    +0.000 NA
ATOM      2  H   UNL     1       4.503   5.704  16.889  0.00  0.00    +0.000 HD
ENDROOT
BRANCH   1   3
ATOM      3  S   UNL     1       3.428   3.986  17.909  0.00  0.00    +0.000 S 
ATOM      4  O   UNL     1       4.019   3.041  18.814  0.00  0.00    +0.000 OA
ATOM      5  O   UNL     1       2.480   3.504  16.948  0.00  0.00    +0.000 OA
BRANCH   3  11
ATOM      6  C   UNL     1       0.999   8.400  21.397  0.00  0.00    +0.000 C 
ATOM      7  C   UNL     1       1.588   7.322  20.539  0.00  0.00    +0.000 A 
ATOM      8  C   UNL     1       1.420   5.981  20.866  0.00  0.00    +0.000 A 
ATOM      9  C   UNL     1       1.945   4.956  20.059  0.00  0.00    +0.000 A 
ATOM     10  C   UNL     1       1.683   3.554  20.546  0.00  0.00    +0.000 C 
ATOM     11  C   UNL     1       2.653   5.298  18.866  0.00  0.00    +0.000 A 
ATOM     12  C   UNL     1       2.823   6.664  18.525  0.00  0.00    +0.000 A 
ATOM     13  C   UNL     1       3.548   7.195  17.314  0.00  0.00    +0.000 C 
ATOM     14  C   UNL     1       2.300   7.651  19.386  0.00  0.00    +0.000 A 
ENDBRANCH   3  11
ENDBRANCH   1   3
BRANCH   1  15
ATOM     15  C   UNL     1       6.130   4.530  17.657  0.00  0.00    +0.000 C 
BRANCH  15  16
ATOM     16  C   UNL     1       6.565   5.547  18.740  0.00  0.00    +0.000 C 
ATOM     17  F   UNL     1       5.706   5.607  19.779  0.00  0.00    +0.000 F 
ATOM     18  F   UNL     1       7.803   5.260  19.199  0.00  0.00    +0.000 F 
ATOM     19  F   UNL     1       6.619   6.813  18.256  0.00  0.00    +0.000 F 
ENDBRANCH  15  16
BRANCH  15  20
ATOM     20  C   UNL     1       7.188   4.502  16.527  0.00  0.00    +0.000 C 
BRANCH  20  21
ATOM     21  N   UNL     1       6.877   5.408  15.404  0.00  0.00    +0.000 N 
ATOM     22  H   UNL     1       7.625   6.098  15.279  0.00  0.00    +0.000 HD
BRANCH  21  23
ATOM     23  C   UNL     1       6.728   4.768  14.146  0.00  0.00    +0.000 A 
ATOM     24  C   UNL     1       5.671   3.900  13.845  0.00  0.00    +0.000 A 
ATOM     25  C   UNL     1       5.582   3.283  12.595  0.00  0.00    +0.000 A 
ATOM     26  C   UNL     1       6.527   3.550  11.609  0.00  0.00    +0.000 A 
ATOM     27  C   UNL     1       7.533   4.478  11.863  0.00  0.00    +0.000 A 
ATOM     28  C   UNL     1       7.618   5.096  13.112  0.00  0.00    +0.000 A 
ENDBRANCH  21  23
ENDBRANCH  20  21
ENDBRANCH  15  20
ENDBRANCH   1  15
TORSDOF 7
ENDMDL
MODEL 5
REMARK VINA RESULT:      -8.1      4.808      6.456
REMARK  Name = 
REMARK  10 active torsions:
REMARK  status: ('A' for Active; 'I' for Inactive)
REMARK    1  A    between atoms: C_1  and  C_2
REMARK    2  A    between atoms: C_4  and  C_5
REMARK    3  A    between atoms: C_6  and  S_7
REMARK    4  A    between atoms: S_7  and  N_10
REMARK    5  A    between atoms: N_10  and  C_11
REMARK    6  A    between atoms: C_11  and  C_12
REMARK    7  A    between atoms: C_11  and  C_20
REMARK    8  A    between atoms: C_12  and  N_13
REMARK    9  A    between atoms: N_13  and  C_14
REMARK   10  A    between atoms: C_24  and  C_25
REMARK                            x       y       z     vdW  Elec       q    Type
REMARK                         _______ _______ _______ _____ _____    ______ ____
ROOT
ATOM      1  N   UNL     1       6.267   7.394  17.212  0.00  0.00    +0.000 NA
ATOM      2  H   UNL     1       5.587   7.630  17.939  0.00  0.00    +0.000 HD
ENDROOT
BRANCH   1   3
ATOM      3  S   UNL     1       5.531   6.481  15.984  0.00  0.00    +0.000 S 
ATOM      4  O   UNL     1       6.588   5.722  15.377  0.00  0.00    +0.000 OA
ATOM      5  O   UNL     1       4.745   7.341  15.148  0.00  0.00    +0.000 OA
BRANCH   3  11
ATOM      6  C   UNL     1       1.998   2.546  19.081  0.00  0.00    +0.000 C 
ATOM      7  C   UNL     1       2.856   3.510  18.319  0.00  0.00    +0.000 A 
ATOM      8  C   UNL     1       3.829   3.053  17.437  0.00  0.00    +0.000 A 
ATOM      9  C   UNL     1       4.627   3.944  16.696  0.00  0.00    +0.000 A 
ATOM     10  C   UNL     1       5.638   3.298  15.785  0.00  0.00    +0.000 C 
ATOM     11  C   UNL     1       4.422   5.351  16.839  0.00  0.00    +0.000 A 
ATOM     12  C   UNL     1       3.428   5.822  17.734  0.00  0.00    +0.000 A 
ATOM     13  C   UNL     1       3.092   7.266  18.010  0.00  0.00    +0.000 C 
ATOM     14  C   UNL     1       2.677   4.885  18.473  0.00  0.00    +0.000 A 
ENDBRANCH   3  11
ENDBRANCH   1   3
BRANCH   1  15
ATOM     15  C   UNL     1       7.611   6.934  17.753  0.00  0.00    +0.000 C 
BRANCH  15  16
ATOM     16  C   UNL     1       7.557   5.716  18.705  0.00  0.00    +0.000 C 
ATOM     17  F   UNL     1       6.394   5.632  19.385  0.00  0.00    +0.000 F 
ATOM     18  F   UNL     1       7.762   4.566  18.026  0.00  0.00    +0.000 F 
ATOM     19  F   UNL     1       8.519   5.774  19.661  0.00  0.00    +0.000 F 
ENDBRANCH  15  16
BRANCH  15  20
ATOM     20  C   UNL     1       8.375   8.090  18.443  0.00  0.00    +0.000 C 
BRANCH  20  21
ATOM     21  N   UNL     1       8.133   9.410  17.827  0.00  0.00    +0.000 N 
ATOM     22  H   UNL     1       7.145   9.670  17.906  0.00  0.00    +0.000 HD
BRANCH  21  23
ATOM     23  C   UNL     1       8.862  10.481  18.407  0.00  0.00    +0.000 A 
ATOM     24  C   UNL     1       8.961  11.750  17.822  0.00  0.00    +0.000 A 
ATOM     25  C   UNL     1       9.707  12.763  18.429  0.00  0.00    +0.000 A 
ATOM     26  C   UNL     1      10.338  12.539  19.649  0.00  0.00    +0.000 A 
ATOM     27  C   UNL     1      10.176  11.312  20.285  0.00  0.00    +0.000 A 
ATOM     28  C   UNL     1       9.428  10.302  19.679  0.00  0.00    +0.000 A 
ENDBRANCH  21  23
ENDBRANCH  20  21
ENDBRANCH  15  20
ENDBRANCH   1  15
TORSDOF 7
ENDMDL
MODEL 6
REMARK VINA RESULT:      -8.1      4.733      6.530
REMARK  Name = 
REMARK  10 active torsions:
REMARK  status: ('A' for Active; 'I' for Inactive)
REMARK    1  A    between atoms: C_1  and  C_2
REMARK    2  A    between atoms: C_4  and  C_5
REMARK    3  A    between atoms: C_6  and  S_7
REMARK    4  A    between atoms: S_7  and  N_10
REMARK    5  A    between atoms: N_10  and  C_11
REMARK    6  A    between atoms: C_11  and  C_12
REMARK    7  A    between atoms: C_11  and  C_20
REMARK    8  A    between atoms: C_12  and  N_13
REMARK    9  A    between atoms: N_13  and  C_14
REMARK   10  A    between atoms: C_24  and  C_25
REMARK                            x       y       z     vdW  Elec       q    Type
REMARK                         _______ _______ _______ _____ _____    ______ ____
ROOT
ATOM      1  N   UNL     1       6.360   7.394  17.258  0.00  0.00    +0.000 NA
ATOM      2  H   UNL     1       5.681   7.700  17.960  0.00  0.00    +0.000 HD
ENDROOT
BRANCH   1   3
ATOM      3  S   UNL     1       5.585   6.519  16.026  0.00  0.00    +0.000 S 
ATOM      4  O   UNL     1       6.604   5.700  15.432  0.00  0.00    +0.000 OA
ATOM      5  O   UNL     1       4.857   7.419  15.180  0.00  0.00    +0.000 OA
BRANCH   3  11
ATOM      6  C   UNL     1       1.348   3.000  18.712  0.00  0.00    +0.000 C 
ATOM      7  C   UNL     1       2.390   3.859  18.060  0.00  0.00    +0.000 A 
ATOM      8  C   UNL     1       2.374   5.239  18.218  0.00  0.00    +0.000 A 
ATOM      9  C   UNL     1       3.357   6.058  17.633  0.00  0.00    +0.000 A 
ATOM     10  C   UNL     1       3.204   7.535  17.892  0.00  0.00    +0.000 C 
ATOM     11  C   UNL     1       4.407   5.456  16.874  0.00  0.00    +0.000 A 
ATOM     12  C   UNL     1       4.430   4.047  16.713  0.00  0.00    +0.000 A 
ATOM     13  C   UNL     1       5.455   3.257  15.939  0.00  0.00    +0.000 C 
ATOM     14  C   UNL     1       3.403   3.278  17.297  0.00  0.00    +0.000 A 
ENDBRANCH   3  11
ENDBRANCH   1   3
BRANCH   1  15
ATOM     15  C   UNL     1       7.646   6.837  17.846  0.00  0.00    +0.000 C 
BRANCH  15  16
ATOM     16  C   UNL     1       7.470   5.607  18.768  0.00  0.00    +0.000 C 
ATOM     17  F   UNL     1       8.435   5.511  19.706  0.00  0.00    +0.000 F 
ATOM     18  F   UNL     1       6.262   5.627  19.372  0.00  0.00    +0.000 F 
ATOM     19  F   UNL     1       7.534   4.440  18.078  0.00  0.00    +0.000 F 
ENDBRANCH  15  16
BRANCH  15  20
ATOM     20  C   UNL     1       8.450   7.927  18.595  0.00  0.00    +0.000 C 
BRANCH  20  21
ATOM     21  N   UNL     1       8.244   9.287  18.060  0.00  0.00    +0.000 N 
ATOM     22  H   UNL     1       7.282   9.599  18.227  0.00  0.00    +0.000 HD
BRANCH  21  23
ATOM     23  C   UNL     1       9.079  10.284  18.628  0.00  0.00    +0.000 A 
ATOM     24  C   UNL     1       9.226  10.471  20.008  0.00  0.00    +0.000 A 
ATOM     25  C   UNL     1      10.049  11.480  20.513  0.00  0.00    +0.000 A 
ATOM     26  C   UNL     1      10.770  12.298  19.648  0.00  0.00    +0.000 A 
ATOM     27  C   UNL     1      10.704  12.068  18.277  0.00  0.00    +0.000 A 
ATOM     28  C   UNL     1       9.883  11.057  17.775  0.00  0.00    +0.000 A 
ENDBRANCH  21  23
ENDBRANCH  20  21
ENDBRANCH  15  20
ENDBRANCH   1  15
TORSDOF 7
ENDMDL
MODEL 7
REMARK VINA RESULT:      -8.1      4.808      6.400
REMARK  Name = 
REMARK  10 active torsions:
REMARK  status: ('A' for Active; 'I' for Inactive)
REMARK    1  A    between atoms: C_1  and  C_2
REMARK    2  A    between atoms: C_4  and  C_5
REMARK    3  A    between atoms: C_6  and  S_7
REMARK    4  A    between atoms: S_7  and  N_10
REMARK    5  A    between atoms: N_10  and  C_11
REMARK    6  A    between atoms: C_11  and  C_12
REMARK    7  A    between atoms: C_11  and  C_20
REMARK    8  A    between atoms: C_12  and  N_13
REMARK    9  A    between atoms: N_13  and  C_14
REMARK   10  A    between atoms: C_24  and  C_25
REMARK                            x       y       z     vdW  Elec       q    Type
REMARK                         _______ _______ _______ _____ _____    ______ ____
ROOT
ATOM      1  N   UNL     1       6.281   7.392  17.187  0.00  0.00    +0.000 NA
ATOM      2  H   UNL     1       5.595   7.645  17.904  0.00  0.00    +0.000 HD
ENDROOT
BRANCH   1   3
ATOM      3  S   UNL     1       5.548   6.474  15.962  0.00  0.00    +0.000 S 
ATOM      4  O   UNL     1       6.604   5.705  15.367  0.00  0.00    +0.000 OA
ATOM      5  O   UNL     1       4.772   7.332  15.115  0.00  0.00    +0.000 OA
BRANCH   3  11
ATOM      6  C   UNL     1       1.976   2.578  19.064  0.00  0.00    +0.000 C 
ATOM      7  C   UNL     1       2.844   3.533  18.301  0.00  0.00    +0.000 A 
ATOM      8  C   UNL     1       3.813   3.065  17.422  0.00  0.00    +0.000 A 
ATOM      9  C   UNL     1       4.621   3.947  16.680  0.00  0.00    +0.000 A 
ATOM     10  C   UNL     1       5.628   3.289  15.773  0.00  0.00    +0.000 C 
ATOM     11  C   UNL     1       4.427   5.356  16.818  0.00  0.00    +0.000 A 
ATOM     12  C   UNL     1       3.436   5.838  17.710  0.00  0.00    +0.000 A 
ATOM     13  C   UNL     1       3.112   7.286  17.981  0.00  0.00    +0.000 C 
ATOM     14  C   UNL     1       2.676   4.910  18.450  0.00  0.00    +0.000 A 
ENDBRANCH   3  11
ENDBRANCH   1   3
BRANCH   1  15
ATOM     15  C   UNL     1       7.613   6.922  17.749  0.00  0.00    +0.000 C 
BRANCH  15  16
ATOM     16  C   UNL     1       7.535   5.701  18.696  0.00  0.00    +0.000 C 
ATOM     17  F   UNL     1       7.633   4.524  18.044  0.00  0.00    +0.000 F 
ATOM     18  F   UNL     1       8.494   5.767  19.646  0.00  0.00    +0.000 F 
ATOM     19  F   UNL     1       6.349   5.640  19.353  0.00  0.00    +0.000 F 
ENDBRANCH  15  16
BRANCH  15  20
ATOM     20  C   UNL     1       8.372   8.071  18.457  0.00  0.00    +0.000 C 
BRANCH  20  21
ATOM     21  N   UNL     1       8.160   9.392  17.833  0.00  0.00    +0.000 N 
ATOM     22  H   UNL     1       7.165   9.637  17.834  0.00  0.00    +0.000 HD
BRANCH  21  23
ATOM     23  C   UNL     1       8.825  10.468  18.476  0.00  0.00    +0.000 A 
ATOM     24  C   UNL     1       9.510  10.334  19.690  0.00  0.00    +0.000 A 
ATOM     25  C   UNL     1      10.133  11.432  20.288  0.00  0.00    +0.000 A 
ATOM     26  C   UNL     1      10.116  12.676  19.665  0.00  0.00    +0.000 A 
ATOM     27  C   UNL     1       9.516  12.806  18.416  0.00  0.00    +0.000 A 
ATOM     28  C   UNL     1       8.896  11.707  17.819  0.00  0.00    +0.000 A 
ENDBRANCH  21  23
ENDBRANCH  20  21
ENDBRANCH  15  20
ENDBRANCH   1  15
TORSDOF 7
ENDMDL
MODEL 8
REMARK VINA RESULT:      -8.1      0.380      2.140
REMARK  Name = 
REMARK  10 active torsions:
REMARK  status: ('A' for Active; 'I' for Inactive)
REMARK    1  A    between atoms: C_1  and  C_2
REMARK    2  A    between atoms: C_4  and  C_5
REMARK    3  A    between atoms: C_6  and  S_7
REMARK    4  A    between atoms: S_7  and  N_10
REMARK    5  A    between atoms: N_10  and  C_11
REMARK    6  A    between atoms: C_11  and  C_12
REMARK    7  A    between atoms: C_11  and  C_20
REMARK    8  A    between atoms: C_12  and  N_13
REMARK    9  A    between atoms: N_13  and  C_14
REMARK   10  A    between atoms: C_24  and  C_25
REMARK                            x       y       z     vdW  Elec       q    Type
REMARK                         _______ _______ _______ _____ _____    ______ ____
ROOT
ATOM      1  N   UNL     1       3.197   4.396  19.113  0.00  0.00    +0.000 NA
ATOM      2  H   UNL     1       2.868   3.857  18.307  0.00  0.00    +0.000 HD
ENDROOT
BRANCH   1   3
ATOM      3  S   UNL     1       4.881   4.255  19.273  0.00  0.00    +0.000 S 
ATOM      4  O   UNL     1       5.111   2.950  19.825  0.00  0.00    +0.000 OA
ATOM      5  O   UNL     1       5.395   5.391  19.980  0.00  0.00    +0.000 OA
BRANCH   3  11
ATOM      6  C   UNL     1       6.848   4.624  13.481  0.00  0.00    +0.000 C 
ATOM      7  C   UNL     1       6.372   4.528  14.899  0.00  0.00    +0.000 A 
ATOM      8  C   UNL     1       5.122   3.997  15.195  0.00  0.00    +0.000 A 
ATOM      9  C   UNL     1       4.669   3.877  16.521  0.00  0.00    +0.000 A 
ATOM     10  C   UNL     1       3.292   3.286  16.681  0.00  0.00    +0.000 C 
ATOM     11  C   UNL     1       5.519   4.295  17.591  0.00  0.00    +0.000 A 
ATOM     12  C   UNL     1       6.797   4.833  17.295  0.00  0.00    +0.000 A 
ATOM     13  C   UNL     1       7.808   5.328  18.298  0.00  0.00    +0.000 C 
ATOM     14  C   UNL     1       7.188   4.956  15.946  0.00  0.00    +0.000 A 
ENDBRANCH   3  11
ENDBRANCH   1   3
BRANCH   1  15
ATOM     15  C   UNL     1       2.333   4.236  20.353  0.00  0.00    +0.000 C 
BRANCH  15  16
ATOM     16  C   UNL     1       1.330   3.058  20.311  0.00  0.00    +0.000 C 
ATOM     17  F   UNL     1       0.774   2.799  21.512  0.00  0.00    +0.000 F 
ATOM     18  F   UNL     1       0.353   3.290  19.407  0.00  0.00    +0.000 F 
ATOM     19  F   UNL     1       1.926   1.896  19.941  0.00  0.00    +0.000 F 
ENDBRANCH  15  16
BRANCH  15  20
ATOM     20  C   UNL     1       1.574   5.542  20.692  0.00  0.00    +0.000 C 
BRANCH  20  21
ATOM     21  N   UNL     1       2.419   6.751  20.626  0.00  0.00    +0.000 N 
ATOM     22  H   UNL     1       3.298   6.551  20.139  0.00  0.00    +0.000 HD
BRANCH  21  23
ATOM     23  C   UNL     1       1.836   7.847  19.938  0.00  0.00    +0.000 A 
ATOM     24  C   UNL     1       1.038   8.812  20.565  0.00  0.00    +0.000 A 
ATOM     25  C   UNL     1       0.476   9.863  19.836  0.00  0.00    +0.000 A 
ATOM     26  C   UNL     1       0.731   9.989  18.473  0.00  0.00    +0.000 A 
ATOM     27  C   UNL     1       1.593   9.089  17.854  0.00  0.00    +0.000 A 
ATOM     28  C   UNL     1       2.156   8.042  18.585  0.00  0.00    +0.000 A 
ENDBRANCH  21  23
ENDBRANCH  20  21
ENDBRANCH  15  20
ENDBRANCH   1  15
TORSDOF 7
ENDMDL
MODEL 9
REMARK VINA RESULT:      -7.8      0.726      1.295
REMARK  Name = 
REMARK  10 active torsions:
REMARK  status: ('A' for Active; 'I' for Inactive)
REMARK    1  A    between atoms: C_1  and  C_2
REMARK    2  A    between atoms: C_4  and  C_5
REMARK    3  A    between atoms: C_6  and  S_7
REMARK    4  A    between atoms: S_7  and  N_10
REMARK    5  A    between atoms: N_10  and  C_11
REMARK    6  A    between atoms: C_11  and  C_12
REMARK    7  A    between atoms: C_11  and  C_20
REMARK    8  A    between atoms: C_12  and  N_13
REMARK    9  A    between atoms: N_13  and  C_14
REMARK   10  A    between atoms: C_24  and  C_25
REMARK                            x       y       z     vdW  Elec       q    Type
REMARK                         _______ _______ _______ _____ _____    ______ ____
ROOT
ATOM      1  N   UNL     1       3.366   4.797  19.197  0.00  0.00    +0.000 NA
ATOM      2  H   UNL     1       2.903   4.312  18.424  0.00  0.00    +0.000 HD
ENDROOT
BRANCH   1   3
ATOM      3  S   UNL     1       5.037   4.497  19.172  0.00  0.00    +0.000 S 
ATOM      4  O   UNL     1       5.198   3.155  19.657  0.00  0.00    +0.000 OA
ATOM      5  O   UNL     1       5.727   5.553  19.852  0.00  0.00    +0.000 OA
BRANCH   3  11
ATOM      6  C   UNL     1       6.835   4.448  13.314  0.00  0.00    +0.000 C 
ATOM      7  C   UNL     1       6.390   4.465  14.745  0.00  0.00    +0.000 A 
ATOM      8  C   UNL     1       7.159   5.088  15.721  0.00  0.00    +0.000 A 
ATOM      9  C   UNL     1       6.744   5.134  17.065  0.00  0.00    +0.000 A 
ATOM     10  C   UNL     1       7.686   5.841  18.005  0.00  0.00    +0.000 C 
ATOM     11  C   UNL     1       5.496   4.543  17.432  0.00  0.00    +0.000 A 
ATOM     12  C   UNL     1       4.706   3.911  16.439  0.00  0.00    +0.000 A 
ATOM     13  C   UNL     1       3.377   3.233  16.658  0.00  0.00    +0.000 C 
ATOM     14  C   UNL     1       5.184   3.868  15.114  0.00  0.00    +0.000 A 
ENDBRANCH   3  11
ENDBRANCH   1   3
BRANCH   1  15
ATOM     15  C   UNL     1       2.628   4.687  20.521  0.00  0.00    +0.000 C 
BRANCH  15  16
ATOM     16  C   UNL     1       1.968   3.314  20.796  0.00  0.00    +0.000 C 
ATOM     17  F   UNL     1       2.483   2.691  21.876  0.00  0.00    +0.000 F 
ATOM     18  F   UNL     1       0.632   3.446  20.951  0.00  0.00    +0.000 F 
ATOM     19  F   UNL     1       2.152   2.446  19.769  0.00  0.00    +0.000 F 
ENDBRANCH  15  16
BRANCH  15  20
ATOM     20  C   UNL     1       1.569   5.805  20.680  0.00  0.00    +0.000 C 
BRANCH  20  21
ATOM     21  N   UNL     1       2.151   7.152  20.840  0.00  0.00    +0.000 N 
ATOM     22  H   UNL     1       3.145   7.148  20.590  0.00  0.00    +0.000 HD
BRANCH  21  23
ATOM     23  C   UNL     1       1.554   8.158  20.037  0.00  0.00    +0.000 A 
ATOM     24  C   UNL     1       0.626   9.085  20.527  0.00  0.00    +0.000 A 
ATOM     25  C   UNL     1       0.056  10.045  19.687  0.00  0.00    +0.000 A 
ATOM     26  C   UNL     1       0.431  10.120  18.349  0.00  0.00    +0.000 A 
ATOM     27  C   UNL     1       1.416   9.263  17.867  0.00  0.00    +0.000 A 
ATOM     28  C   UNL     1       1.987   8.307  18.709  0.00  0.00    +0.000 A 
ENDBRANCH  21  23
ENDBRANCH  20  21
ENDBRANCH  15  20
ENDBRANCH   1  15
TORSDOF 7
ENDMDL
