MODEL 1
REMARK VINA RESULT:      -8.6      0.000      0.000
REMARK  Name = 
REMARK  11 active torsions:
REMARK  status: ('A' for Active; 'I' for Inactive)
REMARK    1  A    between atoms: C_1  and  C_2
REMARK    2  A    between atoms: C_3  and  O_4
REMARK    3  A    between atoms: C_8  and  O_9
REMARK    4  A    between atoms: C_10  and  N_11
REMARK    5  A    between atoms: C_12  and  C_14
REMARK    6  A    between atoms: C_17  and  O_18
REMARK    7  A    between atoms: C_19  and  C_20
REMARK    8  A    between atoms: C_20  and  C_21
REMARK    9  A    between atoms: C_21  and  C_22
REMARK   10  A    between atoms: C_22  and  C_23
REMARK   11  A    between atoms: C_22  and  C_24
REMARK                            x       y       z     vdW  Elec       q    Type
REMARK                         _______ _______ _______ _____ _____    ______ ____
ROOT
ATOM      1  N   UNL     1       3.074   7.569  18.743  0.00  0.00    +0.000 N 
ATOM      2  C   UNL     1       2.952   6.315  18.182  0.00  0.00    +0.000 C 
ATOM      3  O   UNL     1       1.919   5.712  17.924  0.00  0.00    +0.000 OA
ATOM      4  H   UNL     1       4.011   7.926  18.908  0.00  0.00    +0.000 HD
ENDROOT
BRANCH   1  12
ATOM      5  C   UNL     1      -1.605  11.936  19.279  0.00  0.00    +0.000 C 
ATOM      6  C   UNL     1      -1.052  11.048  20.359  0.00  0.00    +0.000 A 
ATOM      7  C   UNL     1      -1.398  11.131  21.706  0.00  0.00    +0.000 A 
ATOM      8  C   UNL     1      -0.815  10.274  22.640  0.00  0.00    +0.000 A 
ATOM      9  C   UNL     1       0.147   9.329  22.252  0.00  0.00    +0.000 A 
ATOM     10  C   UNL     1       0.541   9.229  20.915  0.00  0.00    +0.000 A 
ATOM     11  C   UNL     1       1.581   8.326  20.392  0.00  0.00    +0.000 A 
ATOM     12  C   UNL     1       2.067   8.451  19.141  0.00  0.00    +0.000 A 
ATOM     13  C   UNL     1       1.522   9.547  18.265  0.00  0.00    +0.000 A 
ATOM     14  O   UNL     1       2.070  10.027  17.285  0.00  0.00    +0.000 OA
ATOM     15  O   UNL     1       0.286  10.048  18.647  0.00  0.00    +0.000 OA
ATOM     16  C   UNL     1      -0.082  10.085  20.004  0.00  0.00    +0.000 A 
BRANCH   7  17
ATOM     17  O   UNL     1      -2.286  12.031  22.216  0.00  0.00    +0.000 OA
ATOM     18  H   UNL     1      -2.253  12.029  23.184  0.00  0.00    +0.000 HD
ENDBRANCH   7  17
BRANCH  11  19
ATOM     19  O   UNL     1       2.078   7.327  21.223  0.00  0.00    +0.000 OA
ATOM     20  H   UNL     1       1.501   6.549  21.180  0.00  0.00    +0.000 HD
ENDBRANCH  11  19
ENDBRANCH   1  12
BRANCH   2  21
ATOM     21  C   UNL     1       4.216   5.594  17.889  0.00  0.00    +0.000 A 
ATOM     22  C   UNL     1       5.103   5.371  18.949  0.00  0.00    +0.000 A 
ATOM     23  C   UNL     1       6.368   4.838  18.705  0.00  0.00    +0.000 A 
ATOM     24  C   UNL     1       6.755   4.563  17.394  0.00  0.00    +0.000 A 
ATOM     25  C   UNL     1       5.894   4.809  16.313  0.00  0.00    +0.000 A 
ATOM     26  C   UNL     1       4.600   5.292  16.579  0.00  0.00    +0.000 A 
BRANCH  24  27
ATOM     27  O   UNL     1       8.008   4.078  17.151  0.00  0.00    +0.000 OA
ATOM     28  H   UNL     1       8.186   3.341  17.759  0.00  0.00    +0.000 HD
ENDBRANCH  24  27
BRANCH  25  29
ATOM     29  C   UNL     1       6.348   4.631  14.882  0.00  0.00    +0.000 C 
BRANCH  29  30
ATOM     30  C   UNL     1       5.243   4.118  13.941  0.00  0.00    +0.000 C 
BRANCH  30  31
ATOM     31  C   UNL     1       5.730   3.371  12.680  0.00  0.00    +0.000 C 
ATOM     32  C   UNL     1       4.658   3.296  11.592  0.00  0.00    +0.000 C 
ATOM     33  C   UNL     1       6.979   4.061  12.125  0.00  0.00    +0.000 C 
ENDBRANCH  30  31
ENDBRANCH  29  30
ENDBRANCH  25  29
ENDBRANCH   2  21
TORSDOF 8
ENDMDL
MODEL 2
REMARK VINA RESULT:      -8.1      2.545      4.503
REMARK  Name = 
REMARK  11 active torsions:
REMARK  status: ('A' for Active; 'I' for Inactive)
REMARK    1  A    between atoms: C_1  and  C_2
REMARK    2  A    between atoms: C_3  and  O_4
REMARK    3  A    between atoms: C_8  and  O_9
REMARK    4  A    between atoms: C_10  and  N_11
REMARK    5  A    between atoms: C_12  and  C_14
REMARK    6  A    between atoms: C_17  and  O_18
REMARK    7  A    between atoms: C_19  and  C_20
REMARK    8  A    between atoms: C_20  and  C_21
REMARK    9  A    between atoms: C_21  and  C_22
REMARK   10  A    between atoms: C_22  and  C_23
REMARK   11  A    between atoms: C_22  and  C_24
REMARK                            x       y       z     vdW  Elec       q    Type
REMARK                         _______ _______ _______ _____ _____    ______ ____
ROOT
ATOM      1  N   UNL     1       1.548   8.512  19.548  0.00  0.00    +0.000 N 
ATOM      2  C   UNL     1       2.280   8.519  18.378  0.00  0.00    +0.000 C 
ATOM      3  O   UNL     1       2.393   9.437  17.577  0.00  0.00    +0.000 OA
ATOM      4  H   UNL     1       1.546   7.658  20.100  0.00  0.00    +0.000 HD
ENDROOT
BRANCH   1  12
ATOM      5  C   UNL     1      -1.086  13.191  23.070  0.00  0.00    +0.000 C 
ATOM      6  C   UNL     1      -1.528  12.701  21.720  0.00  0.00    +0.000 A 
ATOM      7  C   UNL     1      -2.686  13.118  21.067  0.00  0.00    +0.000 A 
ATOM      8  C   UNL     1      -3.024  12.591  19.819  0.00  0.00    +0.000 A 
ATOM      9  C   UNL     1      -2.225  11.614  19.208  0.00  0.00    +0.000 A 
ATOM     10  C   UNL     1      -1.068  11.149  19.839  0.00  0.00    +0.000 A 
ATOM     11  C   UNL     1      -0.181  10.087  19.333  0.00  0.00    +0.000 A 
ATOM     12  C   UNL     1       0.777   9.534  20.103  0.00  0.00    +0.000 A 
ATOM     13  C   UNL     1       0.934  10.026  21.517  0.00  0.00    +0.000 A 
ATOM     14  O   UNL     1       1.469   9.423  22.435  0.00  0.00    +0.000 OA
ATOM     15  O   UNL     1       0.394  11.278  21.770  0.00  0.00    +0.000 OA
ATOM     16  C   UNL     1      -0.747  11.718  21.074  0.00  0.00    +0.000 A 
BRANCH   7  17
ATOM     17  O   UNL     1      -3.566  14.028  21.572  0.00  0.00    +0.000 OA
ATOM     18  H   UNL     1      -3.428  14.140  22.525  0.00  0.00    +0.000 HD
ENDBRANCH   7  17
BRANCH  11  19
ATOM     19  O   UNL     1      -0.352   9.640  18.026  0.00  0.00    +0.000 OA
ATOM     20  H   UNL     1       0.457   9.199  17.723  0.00  0.00    +0.000 HD
ENDBRANCH  11  19
ENDBRANCH   1  12
BRANCH   2  21
ATOM     21  C   UNL     1       2.983   7.260  18.027  0.00  0.00    +0.000 A 
ATOM     22  C   UNL     1       4.163   7.355  17.278  0.00  0.00    +0.000 A 
ATOM     23  C   UNL     1       4.779   6.204  16.790  0.00  0.00    +0.000 A 
ATOM     24  C   UNL     1       4.192   4.962  17.022  0.00  0.00    +0.000 A 
ATOM     25  C   UNL     1       2.993   4.844  17.741  0.00  0.00    +0.000 A 
ATOM     26  C   UNL     1       2.413   6.008  18.278  0.00  0.00    +0.000 A 
BRANCH  24  27
ATOM     27  O   UNL     1       4.775   3.837  16.510  0.00  0.00    +0.000 OA
ATOM     28  H   UNL     1       5.553   4.094  15.987  0.00  0.00    +0.000 HD
ENDBRANCH  24  27
BRANCH  25  29
ATOM     29  C   UNL     1       2.285   3.517  17.892  0.00  0.00    +0.000 C 
BRANCH  29  30
ATOM     30  C   UNL     1       2.805   2.667  19.066  0.00  0.00    +0.000 C 
BRANCH  30  31
ATOM     31  C   UNL     1       1.819   2.472  20.240  0.00  0.00    +0.000 C 
ATOM     32  C   UNL     1       2.386   2.969  21.570  0.00  0.00    +0.000 C 
ATOM     33  C   UNL     1       0.507   3.201  19.935  0.00  0.00    +0.000 C 
ENDBRANCH  30  31
ENDBRANCH  29  30
ENDBRANCH  25  29
ENDBRANCH   2  21
TORSDOF 8
ENDMDL
MODEL 3
REMARK VINA RESULT:      -8.0      2.193      3.756
REMARK  Name = 
REMARK  11 active torsions:
REMARK  status: ('A' for Active; 'I' for Inactive)
REMARK    1  A    between atoms: C_1  and  C_2
REMARK    2  A    between atoms: C_3  and  O_4
REMARK    3  A    between atoms: C_8  and  O_9
REMARK    4  A    between atoms: C_10  and  N_11
REMARK    5  A    between atoms: C_12  and  C_14
REMARK    6  A    between atoms: C_17  and  O_18
REMARK    7  A    between atoms: C_19  and  C_20
REMARK    8  A    between atoms: C_20  and  C_21
REMARK    9  A    between atoms: C_21  and  C_22
REMARK   10  A    between atoms: C_22  and  C_23
REMARK   11  A    between atoms: C_22  and  C_24
REMARK                            x       y       z     vdW  Elec       q    Type
REMARK                         _______ _______ _______ _____ _____    ______ ____
ROOT
ATOM      1  N   UNL     1       1.496   8.501  19.602  0.00  0.00    +0.000 N 
ATOM      2  C   UNL     1       2.266   8.451  18.458  0.00  0.00    +0.000 C 
ATOM      3  O   UNL     1       2.462   9.352  17.654  0.00  0.00    +0.000 OA
ATOM      4  H   UNL     1       1.422   7.655  20.160  0.00  0.00    +0.000 HD
ENDROOT
BRANCH   1  12
ATOM      5  C   UNL     1      -0.901  13.434  22.943  0.00  0.00    +0.000 C 
ATOM      6  C   UNL     1      -1.391  12.893  21.629  0.00  0.00    +0.000 A 
ATOM      7  C   UNL     1      -2.551  13.314  20.982  0.00  0.00    +0.000 A 
ATOM      8  C   UNL     1      -2.936  12.738  19.771  0.00  0.00    +0.000 A 
ATOM      9  C   UNL     1      -2.183  11.706  19.191  0.00  0.00    +0.000 A 
ATOM     10  C   UNL     1      -1.027  11.234  19.819  0.00  0.00    +0.000 A 
ATOM     11  C   UNL     1      -0.187  10.120  19.347  0.00  0.00    +0.000 A 
ATOM     12  C   UNL     1       0.772   9.574  20.123  0.00  0.00    +0.000 A 
ATOM     13  C   UNL     1       0.979  10.131  21.505  0.00  0.00    +0.000 A 
ATOM     14  O   UNL     1       1.516   9.558  22.441  0.00  0.00    +0.000 OA
ATOM     15  O   UNL     1       0.485  11.411  21.707  0.00  0.00    +0.000 OA
ATOM     16  C   UNL     1      -0.658  11.854  21.016  0.00  0.00    +0.000 A 
BRANCH   7  17
ATOM     17  O   UNL     1      -3.389  14.277  21.461  0.00  0.00    +0.000 OA
ATOM     18  H   UNL     1      -3.749  14.015  22.321  0.00  0.00    +0.000 HD
ENDBRANCH   7  17
BRANCH  11  19
ATOM     19  O   UNL     1      -0.404   9.614  18.069  0.00  0.00    +0.000 OA
ATOM     20  H   UNL     1      -1.356   9.501  17.920  0.00  0.00    +0.000 HD
ENDBRANCH  11  19
ENDBRANCH   1  12
BRANCH   2  21
ATOM     21  C   UNL     1       2.901   7.147  18.141  0.00  0.00    +0.000 A 
ATOM     22  C   UNL     1       2.680   6.080  19.021  0.00  0.00    +0.000 A 
ATOM     23  C   UNL     1       3.373   4.882  18.858  0.00  0.00    +0.000 A 
ATOM     24  C   UNL     1       4.312   4.767  17.835  0.00  0.00    +0.000 A 
ATOM     25  C   UNL     1       4.574   5.833  16.961  0.00  0.00    +0.000 A 
ATOM     26  C   UNL     1       3.826   7.017  17.101  0.00  0.00    +0.000 A 
BRANCH  24  27
ATOM     27  O   UNL     1       5.019   3.606  17.699  0.00  0.00    +0.000 OA
ATOM     28  H   UNL     1       5.957   3.821  17.563  0.00  0.00    +0.000 HD
ENDBRANCH  24  27
BRANCH  25  29
ATOM     29  C   UNL     1       5.675   5.761  15.929  0.00  0.00    +0.000 C 
BRANCH  29  30
ATOM     30  C   UNL     1       7.079   6.030  16.502  0.00  0.00    +0.000 C 
BRANCH  30  31
ATOM     31  C   UNL     1       7.121   6.792  17.844  0.00  0.00    +0.000 C 
ATOM     32  C   UNL     1       7.747   5.967  18.968  0.00  0.00    +0.000 C 
ATOM     33  C   UNL     1       7.900   8.099  17.669  0.00  0.00    +0.000 C 
ENDBRANCH  30  31
ENDBRANCH  29  30
ENDBRANCH  25  29
ENDBRANCH   2  21
TORSDOF 8
ENDMDL
MODEL 4
REMARK VINA RESULT:      -8.0      0.852      2.206
REMARK  Name = 
REMARK  11 active torsions:
REMARK  status: ('A' for Active; 'I' for Inactive)
REMARK    1  A    between atoms: C_1  and  C_2
REMARK    2  A    between atoms: C_3  and  O_4
REMARK    3  A    between atoms: C_8  and  O_9
REMARK    4  A    between atoms: C_10  and  N_11
REMARK    5  A    between atoms: C_12  and  C_14
REMARK    6  A    between atoms: C_17  and  O_18
REMARK    7  A    between atoms: C_19  and  C_20
REMARK    8  A    between atoms: C_20  and  C_21
REMARK    9  A    between atoms: C_21  and  C_22
REMARK   10  A    between atoms: C_22  and  C_23
REMARK   11  A    between atoms: C_22  and  C_24
REMARK                            x       y       z     vdW  Elec       q    Type
REMARK                         _______ _______ _______ _____ _____    ______ ____
ROOT
ATOM      1  N   UNL     1       3.060   7.439  18.801  0.00  0.00    +0.000 N 
ATOM      2  C   UNL     1       2.923   6.196  18.218  0.00  0.00    +0.000 C 
ATOM      3  O   UNL     1       1.888   5.567  18.043  0.00  0.00    +0.000 OA
ATOM      4  H   UNL     1       3.998   7.822  18.886  0.00  0.00    +0.000 HD
ENDROOT
BRANCH   1  12
ATOM      5  C   UNL     1      -1.144  10.761  22.341  0.00  0.00    +0.000 C 
ATOM      6  C   UNL     1      -0.870  10.905  20.870  0.00  0.00    +0.000 A 
ATOM      7  C   UNL     1      -1.597  11.719  20.004  0.00  0.00    +0.000 A 
ATOM      8  C   UNL     1      -1.279  11.772  18.647  0.00  0.00    +0.000 A 
ATOM      9  C   UNL     1      -0.240  10.992  18.118  0.00  0.00    +0.000 A 
ATOM     10  C   UNL     1       0.499  10.142  18.946  0.00  0.00    +0.000 A 
ATOM     11  C   UNL     1       1.568   9.230  18.504  0.00  0.00    +0.000 A 
ATOM     12  C   UNL     1       2.071   8.278  19.317  0.00  0.00    +0.000 A 
ATOM     13  C   UNL     1       1.516   8.158  20.710  0.00  0.00    +0.000 A 
ATOM     14  O   UNL     1       1.579   7.173  21.429  0.00  0.00    +0.000 OA
ATOM     15  O   UNL     1       0.863   9.286  21.185  0.00  0.00    +0.000 OA
ATOM     16  C   UNL     1       0.169  10.135  20.303  0.00  0.00    +0.000 A 
BRANCH   7  17
ATOM     17  O   UNL     1      -2.653  12.492  20.385  0.00  0.00    +0.000 OA
ATOM     18  H   UNL     1      -2.527  13.407  20.092  0.00  0.00    +0.000 HD
ENDBRANCH   7  17
BRANCH  11  19
ATOM     19  O   UNL     1       2.058   9.352  17.207  0.00  0.00    +0.000 OA
ATOM     20  H   UNL     1       2.985   9.636  17.234  0.00  0.00    +0.000 HD
ENDBRANCH  11  19
ENDBRANCH   1  12
BRANCH   2  21
ATOM     21  C   UNL     1       4.174   5.524  17.786  0.00  0.00    +0.000 A 
ATOM     22  C   UNL     1       5.115   5.197  18.771  0.00  0.00    +0.000 A 
ATOM     23  C   UNL     1       6.368   4.707  18.407  0.00  0.00    +0.000 A 
ATOM     24  C   UNL     1       6.689   4.579  17.057  0.00  0.00    +0.000 A 
ATOM     25  C   UNL     1       5.774   4.930  16.053  0.00  0.00    +0.000 A 
ATOM     26  C   UNL     1       4.492   5.368  16.434  0.00  0.00    +0.000 A 
BRANCH  24  27
ATOM     27  O   UNL     1       7.931   4.135  16.700  0.00  0.00    +0.000 OA
ATOM     28  H   UNL     1       8.023   3.205  16.966  0.00  0.00    +0.000 HD
ENDBRANCH  24  27
BRANCH  25  29
ATOM     29  C   UNL     1       6.155   4.912  14.590  0.00  0.00    +0.000 C 
BRANCH  29  30
ATOM     30  C   UNL     1       5.669   3.659  13.839  0.00  0.00    +0.000 C 
BRANCH  30  31
ATOM     31  C   UNL     1       5.810   3.703  12.302  0.00  0.00    +0.000 C 
ATOM     32  C   UNL     1       6.930   2.796  11.790  0.00  0.00    +0.000 C 
ATOM     33  C   UNL     1       4.483   3.299  11.653  0.00  0.00    +0.000 C 
ENDBRANCH  30  31
ENDBRANCH  29  30
ENDBRANCH  25  29
ENDBRANCH   2  21
TORSDOF 8
ENDMDL
MODEL 5
REMARK VINA RESULT:      -8.0      1.243      2.393
REMARK  Name = 
REMARK  11 active torsions:
REMARK  status: ('A' for Active; 'I' for Inactive)
REMARK    1  A    between atoms: C_1  and  C_2
REMARK    2  A    between atoms: C_3  and  O_4
REMARK    3  A    between atoms: C_8  and  O_9
REMARK    4  A    between atoms: C_10  and  N_11
REMARK    5  A    between atoms: C_12  and  C_14
REMARK    6  A    between atoms: C_17  and  O_18
REMARK    7  A    between atoms: C_19  and  C_20
REMARK    8  A    between atoms: C_20  and  C_21
REMARK    9  A    between atoms: C_21  and  C_22
REMARK   10  A    between atoms: C_22  and  C_23
REMARK   11  A    between atoms: C_22  and  C_24
REMARK                            x       y       z     vdW  Elec       q    Type
REMARK                         _______ _______ _______ _____ _____    ______ ____
ROOT
ATOM      1  N   UNL     1       2.356   7.972  19.049  0.00  0.00    +0.000 N 
ATOM      2  C   UNL     1       2.453   6.631  19.360  0.00  0.00    +0.000 C 
ATOM      3  O   UNL     1       1.724   5.984  20.099  0.00  0.00    +0.000 OA
ATOM      4  H   UNL     1       3.056   8.365  18.426  0.00  0.00    +0.000 HD
ENDROOT
BRANCH   1  12
ATOM      5  C   UNL     1      -1.416  12.079  22.234  0.00  0.00    +0.000 C 
ATOM      6  C   UNL     1      -1.397  11.811  20.755  0.00  0.00    +0.000 A 
ATOM      7  C   UNL     1      -2.309  12.338  19.843  0.00  0.00    +0.000 A 
ATOM      8  C   UNL     1      -2.223  12.015  18.488  0.00  0.00    +0.000 A 
ATOM      9  C   UNL     1      -1.237  11.135  18.017  0.00  0.00    +0.000 A 
ATOM     10  C   UNL     1      -0.317  10.563  18.902  0.00  0.00    +0.000 A 
ATOM     11  C   UNL     1       0.722   9.583  18.544  0.00  0.00    +0.000 A 
ATOM     12  C   UNL     1       1.412   8.904  19.483  0.00  0.00    +0.000 A 
ATOM     13  C   UNL     1       1.103   9.169  20.932  0.00  0.00    +0.000 A 
ATOM     14  O   UNL     1       1.348   8.425  21.869  0.00  0.00    +0.000 OA
ATOM     15  O   UNL     1       0.465  10.374  21.189  0.00  0.00    +0.000 OA
ATOM     16  C   UNL     1      -0.418  10.930  20.246  0.00  0.00    +0.000 A 
BRANCH   7  17
ATOM     17  O   UNL     1      -3.336  13.169  20.179  0.00  0.00    +0.000 OA
ATOM     18  H   UNL     1      -3.888  13.355  19.405  0.00  0.00    +0.000 HD
ENDBRANCH   7  17
BRANCH  11  19
ATOM     19  O   UNL     1       0.982   9.345  17.198  0.00  0.00    +0.000 OA
ATOM     20  H   UNL     1       0.759   8.427  16.979  0.00  0.00    +0.000 HD
ENDBRANCH  11  19
ENDBRANCH   1  12
BRANCH   2  21
ATOM     21  C   UNL     1       3.594   5.892  18.763  0.00  0.00    +0.000 A 
ATOM     22  C   UNL     1       4.454   5.205  19.629  0.00  0.00    +0.000 A 
ATOM     23  C   UNL     1       5.624   4.625  19.141  0.00  0.00    +0.000 A 
ATOM     24  C   UNL     1       5.948   4.766  17.793  0.00  0.00    +0.000 A 
ATOM     25  C   UNL     1       5.118   5.477  16.913  0.00  0.00    +0.000 A 
ATOM     26  C   UNL     1       3.912   6.007  17.407  0.00  0.00    +0.000 A 
BRANCH  24  27
ATOM     27  O   UNL     1       7.114   4.231  17.323  0.00  0.00    +0.000 OA
ATOM     28  H   UNL     1       7.030   4.082  16.366  0.00  0.00    +0.000 HD
ENDBRANCH  24  27
BRANCH  25  29
ATOM     29  C   UNL     1       5.521   5.740  15.480  0.00  0.00    +0.000 C 
BRANCH  29  30
ATOM     30  C   UNL     1       5.156   4.597  14.515  0.00  0.00    +0.000 C 
BRANCH  30  31
ATOM     31  C   UNL     1       6.341   3.949  13.766  0.00  0.00    +0.000 C 
ATOM     32  C   UNL     1       5.925   3.335  12.429  0.00  0.00    +0.000 C 
ATOM     33  C   UNL     1       7.436   4.994  13.534  0.00  0.00    +0.000 C 
ENDBRANCH  30  31
ENDBRANCH  29  30
ENDBRANCH  25  29
ENDBRANCH   2  21
TORSDOF 8
ENDMDL
MODEL 6
REMARK VINA RESULT:      -7.9      1.942      3.493
REMARK  Name = 
REMARK  11 active torsions:
REMARK  status: ('A' for Active; 'I' for Inactive)
REMARK    1  A    between atoms: C_1  and  C_2
REMARK    2  A    between atoms: C_3  and  O_4
REMARK    3  A    between atoms: C_8  and  O_9
REMARK    4  A    between atoms: C_10  and  N_11
REMARK    5  A    between atoms: C_12  and  C_14
REMARK    6  A    between atoms: C_17  and  O_18
REMARK    7  A    between atoms: C_19  and  C_20
REMARK    8  A    between atoms: C_20  and  C_21
REMARK    9  A    between atoms: C_21  and  C_22
REMARK   10  A    between atoms: C_22  and  C_23
REMARK   11  A    between atoms: C_22  and  C_24
REMARK                            x       y       z     vdW  Elec       q    Type
REMARK                         _______ _______ _______ _____ _____    ______ ____
ROOT
ATOM      1  N   UNL     1       2.415   7.316  18.748  0.00  0.00    +0.000 N 
ATOM      2  C   UNL     1       3.536   7.447  17.955  0.00  0.00    +0.000 C 
ATOM      3  O   UNL     1       4.046   8.483  17.553  0.00  0.00    +0.000 OA
ATOM      4  H   UNL     1       2.109   6.376  18.985  0.00  0.00    +0.000 HD
ENDROOT
BRANCH   1  12
ATOM      5  C   UNL     1      -1.477  12.278  19.961  0.00  0.00    +0.000 C 
ATOM      6  C   UNL     1      -0.933  11.279  20.944  0.00  0.00    +0.000 A 
ATOM      7  C   UNL     1      -1.096  11.358  22.325  0.00  0.00    +0.000 A 
ATOM      8  C   UNL     1      -0.535  10.390  23.161  0.00  0.00    +0.000 A 
ATOM      9  C   UNL     1       0.225   9.335  22.635  0.00  0.00    +0.000 A 
ATOM     10  C   UNL     1       0.435   9.232  21.256  0.00  0.00    +0.000 A 
ATOM     11  C   UNL     1       1.260   8.212  20.588  0.00  0.00    +0.000 A 
ATOM     12  C   UNL     1       1.604   8.316  19.288  0.00  0.00    +0.000 A 
ATOM     13  C   UNL     1       1.122   9.511  18.512  0.00  0.00    +0.000 A 
ATOM     14  O   UNL     1       1.611   9.947  17.481  0.00  0.00    +0.000 OA
ATOM     15  O   UNL     1       0.027  10.167  19.056  0.00  0.00    +0.000 OA
ATOM     16  C   UNL     1      -0.163  10.203  20.450  0.00  0.00    +0.000 A 
BRANCH   7  17
ATOM     17  O   UNL     1      -1.775  12.354  22.962  0.00  0.00    +0.000 OA
ATOM     18  H   UNL     1      -2.328  11.989  23.668  0.00  0.00    +0.000 HD
ENDBRANCH   7  17
BRANCH  11  19
ATOM     19  O   UNL     1       1.705   7.121  21.329  0.00  0.00    +0.000 OA
ATOM     20  H   UNL     1       2.085   7.428  22.166  0.00  0.00    +0.000 HD
ENDBRANCH  11  19
ENDBRANCH   1  12
BRANCH   2  21
ATOM     21  C   UNL     1       4.181   6.188  17.504  0.00  0.00    +0.000 A 
ATOM     22  C   UNL     1       5.096   6.263  16.447  0.00  0.00    +0.000 A 
ATOM     23  C   UNL     1       5.613   5.098  15.882  0.00  0.00    +0.000 A 
ATOM     24  C   UNL     1       5.184   3.859  16.354  0.00  0.00    +0.000 A 
ATOM     25  C   UNL     1       4.244   3.759  17.391  0.00  0.00    +0.000 A 
ATOM     26  C   UNL     1       3.775   4.942  17.990  0.00  0.00    +0.000 A 
BRANCH  24  27
ATOM     27  O   UNL     1       5.661   2.718  15.774  0.00  0.00    +0.000 OA
ATOM     28  H   UNL     1       6.382   2.949  15.166  0.00  0.00    +0.000 HD
ENDBRANCH  24  27
BRANCH  25  29
ATOM     29  C   UNL     1       3.681   2.425  17.825  0.00  0.00    +0.000 C 
BRANCH  29  30
ATOM     30  C   UNL     1       3.459   2.311  19.344  0.00  0.00    +0.000 C 
BRANCH  30  31
ATOM     31  C   UNL     1       1.987   2.227  19.802  0.00  0.00    +0.000 C 
ATOM     32  C   UNL     1       1.654   3.244  20.894  0.00  0.00    +0.000 C 
ATOM     33  C   UNL     1       1.062   2.440  18.600  0.00  0.00    +0.000 C 
ENDBRANCH  30  31
ENDBRANCH  29  30
ENDBRANCH  25  29
ENDBRANCH   2  21
TORSDOF 8
ENDMDL
MODEL 7
REMARK VINA RESULT:      -7.9      2.321      3.699
REMARK  Name = 
REMARK  11 active torsions:
REMARK  status: ('A' for Active; 'I' for Inactive)
REMARK    1  A    between atoms: C_1  and  C_2
REMARK    2  A    between atoms: C_3  and  O_4
REMARK    3  A    between atoms: C_8  and  O_9
REMARK    4  A    between atoms: C_10  and  N_11
REMARK    5  A    between atoms: C_12  and  C_14
REMARK    6  A    between atoms: C_17  and  O_18
REMARK    7  A    between atoms: C_19  and  C_20
REMARK    8  A    between atoms: C_20  and  C_21
REMARK    9  A    between atoms: C_21  and  C_22
REMARK   10  A    between atoms: C_22  and  C_23
REMARK   11  A    between atoms: C_22  and  C_24
REMARK                            x       y       z     vdW  Elec       q    Type
REMARK                         _______ _______ _______ _____ _____    ______ ____
ROOT
ATOM      1  N   UNL     1       2.144   8.315  19.300  0.00  0.00    +0.000 N 
ATOM      2  C   UNL     1       2.458   7.995  17.995  0.00  0.00    +0.000 C 
ATOM      3  O   UNL     1       2.070   8.554  16.978  0.00  0.00    +0.000 OA
ATOM      4  H   UNL     1       2.540   7.738  20.038  0.00  0.00    +0.000 HD
ENDROOT
BRANCH   1  12
ATOM      5  C   UNL     1      -1.373  13.593  20.306  0.00  0.00    +0.000 C 
ATOM      6  C   UNL     1      -1.229  12.402  21.211  0.00  0.00    +0.000 A 
ATOM      7  C   UNL     1      -1.754  12.318  22.499  0.00  0.00    +0.000 A 
ATOM      8  C   UNL     1      -1.551  11.175  23.273  0.00  0.00    +0.000 A 
ATOM      9  C   UNL     1      -0.795  10.098  22.787  0.00  0.00    +0.000 A 
ATOM     10  C   UNL     1      -0.228  10.151  21.510  0.00  0.00    +0.000 A 
ATOM     11  C   UNL     1       0.633   9.118  20.910  0.00  0.00    +0.000 A 
ATOM     12  C   UNL     1       1.328   9.343  19.777  0.00  0.00    +0.000 A 
ATOM     13  C   UNL     1       1.209  10.690  19.117  0.00  0.00    +0.000 A 
ATOM     14  O   UNL     1       2.005  11.182  18.332  0.00  0.00    +0.000 OA
ATOM     15  O   UNL     1       0.085  11.422  19.469  0.00  0.00    +0.000 OA
ATOM     16  C   UNL     1      -0.475  11.300  20.754  0.00  0.00    +0.000 A 
BRANCH   7  17
ATOM     17  O   UNL     1      -2.470  13.310  23.101  0.00  0.00    +0.000 OA
ATOM     18  H   UNL     1      -2.655  14.024  22.473  0.00  0.00    +0.000 HD
ENDBRANCH   7  17
BRANCH  11  19
ATOM     19  O   UNL     1       0.738   7.884  21.544  0.00  0.00    +0.000 OA
ATOM     20  H   UNL     1       1.631   7.527  21.419  0.00  0.00    +0.000 HD
ENDBRANCH  11  19
ENDBRANCH   1  12
BRANCH   2  21
ATOM     21  C   UNL     1       3.336   6.816  17.794  0.00  0.00    +0.000 A 
ATOM     22  C   UNL     1       4.568   7.018  17.159  0.00  0.00    +0.000 A 
ATOM     23  C   UNL     1       5.362   5.928  16.805  0.00  0.00    +0.000 A 
ATOM     24  C   UNL     1       4.905   4.637  17.057  0.00  0.00    +0.000 A 
ATOM     25  C   UNL     1       3.660   4.408  17.663  0.00  0.00    +0.000 A 
ATOM     26  C   UNL     1       2.895   5.518  18.066  0.00  0.00    +0.000 A 
BRANCH  24  27
ATOM     27  O   UNL     1       5.666   3.567  16.676  0.00  0.00    +0.000 OA
ATOM     28  H   UNL     1       6.268   3.333  17.402  0.00  0.00    +0.000 HD
ENDBRANCH  24  27
BRANCH  25  29
ATOM     29  C   UNL     1       3.101   3.013  17.827  0.00  0.00    +0.000 C 
BRANCH  29  30
ATOM     30  C   UNL     1       3.084   2.521  19.286  0.00  0.00    +0.000 C 
BRANCH  30  31
ATOM     31  C   UNL     1       1.687   2.363  19.924  0.00  0.00    +0.000 C 
ATOM     32  C   UNL     1       1.442   3.362  21.055  0.00  0.00    +0.000 C 
ATOM     33  C   UNL     1       0.610   2.528  18.849  0.00  0.00    +0.000 C 
ENDBRANCH  30  31
ENDBRANCH  29  30
ENDBRANCH  25  29
ENDBRANCH   2  21
TORSDOF 8
ENDMDL
MODEL 8
REMARK VINA RESULT:      -7.9      2.625      4.420
REMARK  Name = 
REMARK  11 active torsions:
REMARK  status: ('A' for Active; 'I' for Inactive)
REMARK    1  A    between atoms: C_1  and  C_2
REMARK    2  A    between atoms: C_3  and  O_4
REMARK    3  A    between atoms: C_8  and  O_9
REMARK    4  A    between atoms: C_10  and  N_11
REMARK    5  A    between atoms: C_12  and  C_14
REMARK    6  A    between atoms: C_17  and  O_18
REMARK    7  A    between atoms: C_19  and  C_20
REMARK    8  A    between atoms: C_20  and  C_21
REMARK    9  A    between atoms: C_21  and  C_22
REMARK   10  A    between atoms: C_22  and  C_23
REMARK   11  A    between atoms: C_22  and  C_24
REMARK                            x       y       z     vdW  Elec       q    Type
REMARK                         _______ _______ _______ _____ _____    ______ ____
ROOT
ATOM      1  N   UNL     1       1.551   8.942  19.407  0.00  0.00    +0.000 N 
ATOM      2  C   UNL     1       1.812   7.649  19.810  0.00  0.00    +0.000 C 
ATOM      3  O   UNL     1       1.389   7.080  20.807  0.00  0.00    +0.000 OA
ATOM      4  H   UNL     1       1.996   9.272  18.554  0.00  0.00    +0.000 HD
ENDROOT
BRANCH   1  12
ATOM      5  C   UNL     1      -1.216  13.347  23.173  0.00  0.00    +0.000 C 
ATOM      6  C   UNL     1      -1.665  12.893  21.812  0.00  0.00    +0.000 A 
ATOM      7  C   UNL     1      -2.854  13.281  21.200  0.00  0.00    +0.000 A 
ATOM      8  C   UNL     1      -3.196  12.790  19.939  0.00  0.00    +0.000 A 
ATOM      9  C   UNL     1      -2.366  11.877  19.271  0.00  0.00    +0.000 A 
ATOM     10  C   UNL     1      -1.175  11.441  19.860  0.00  0.00    +0.000 A 
ATOM     11  C   UNL     1      -0.253  10.443  19.292  0.00  0.00    +0.000 A 
ATOM     12  C   UNL     1       0.746   9.904  20.020  0.00  0.00    +0.000 A 
ATOM     13  C   UNL     1       0.912  10.345  21.449  0.00  0.00    +0.000 A 
ATOM     14  O   UNL     1       1.494   9.732  22.331  0.00  0.00    +0.000 OA
ATOM     15  O   UNL     1       0.321  11.560  21.765  0.00  0.00    +0.000 OA
ATOM     16  C   UNL     1      -0.854  11.974  21.110  0.00  0.00    +0.000 A 
BRANCH   7  17
ATOM     17  O   UNL     1      -3.764  14.128  21.760  0.00  0.00    +0.000 OA
ATOM     18  H   UNL     1      -3.353  14.982  21.960  0.00  0.00    +0.000 HD
ENDBRANCH   7  17
BRANCH  11  19
ATOM     19  O   UNL     1      -0.432  10.041  17.972  0.00  0.00    +0.000 OA
ATOM     20  H   UNL     1      -0.790   9.140  17.951  0.00  0.00    +0.000 HD
ENDBRANCH  11  19
ENDBRANCH   1  12
BRANCH   2  21
ATOM     21  C   UNL     1       2.742   6.863  18.960  0.00  0.00    +0.000 A 
ATOM     22  C   UNL     1       3.491   7.553  17.998  0.00  0.00    +0.000 A 
ATOM     23  C   UNL     1       4.261   6.851  17.072  0.00  0.00    +0.000 A 
ATOM     24  C   UNL     1       4.251   5.458  17.090  0.00  0.00    +0.000 A 
ATOM     25  C   UNL     1       3.484   4.744  18.024  0.00  0.00    +0.000 A 
ATOM     26  C   UNL     1       2.757   5.466  18.988  0.00  0.00    +0.000 A 
BRANCH  24  27
ATOM     27  O   UNL     1       4.975   4.768  16.158  0.00  0.00    +0.000 OA
ATOM     28  H   UNL     1       5.547   5.391  15.678  0.00  0.00    +0.000 HD
ENDBRANCH  24  27
BRANCH  25  29
ATOM     29  C   UNL     1       3.370   3.238  17.972  0.00  0.00    +0.000 C 
BRANCH  29  30
ATOM     30  C   UNL     1       3.294   2.575  19.359  0.00  0.00    +0.000 C 
BRANCH  30  31
ATOM     31  C   UNL     1       1.893   2.096  19.798  0.00  0.00    +0.000 C 
ATOM     32  C   UNL     1       1.403   2.798  21.065  0.00  0.00    +0.000 C 
ATOM     33  C   UNL     1       0.892   2.328  18.662  0.00  0.00    +0.000 C 
ENDBRANCH  30  31
ENDBRANCH  29  30
ENDBRANCH  25  29
ENDBRANCH   2  21
TORSDOF 8
ENDMDL
MODEL 9
REMARK VINA RESULT:      -7.8      2.267      3.648
REMARK  Name = 
REMARK  11 active torsions:
REMARK  status: ('A' for Active; 'I' for Inactive)
REMARK    1  A    between atoms: C_1  and  C_2
REMARK    2  A    between atoms: C_3  and  O_4
REMARK    3  A    between atoms: C_8  and  O_9
REMARK    4  A    between atoms: C_10  and  N_11
REMARK    5  A    between atoms: C_12  and  C_14
REMARK    6  A    between atoms: C_17  and  O_18
REMARK    7  A    between atoms: C_19  and  C_20
REMARK    8  A    between atoms: C_20  and  C_21
REMARK    9  A    between atoms: C_21  and  C_22
REMARK   10  A    between atoms: C_22  and  C_23
REMARK   11  A    between atoms: C_22  and  C_24
REMARK                            x       y       z     vdW  Elec       q    Type
REMARK                         _______ _______ _______ _____ _____    ______ ____
ROOT
ATOM      1  N   UNL     1       1.932   8.219  19.444  0.00  0.00    +0.000 N 
ATOM      2  C   UNL     1       2.014   6.905  19.855  0.00  0.00    +0.000 C 
ATOM      3  O   UNL     1       1.407   6.375  20.775  0.00  0.00    +0.000 OA
ATOM      4  H   UNL     1       2.519   8.509  18.665  0.00  0.00    +0.000 HD
ENDROOT
BRANCH   1  12
ATOM      5  C   UNL     1      -0.923  12.832  22.880  0.00  0.00    +0.000 C 
ATOM      6  C   UNL     1      -1.204  12.444  21.456  0.00  0.00    +0.000 A 
ATOM      7  C   UNL     1      -2.243  12.960  20.685  0.00  0.00    +0.000 A 
ATOM      8  C   UNL     1      -2.437  12.524  19.374  0.00  0.00    +0.000 A 
ATOM      9  C   UNL     1      -1.610  11.540  18.811  0.00  0.00    +0.000 A 
ATOM     10  C   UNL     1      -0.571  10.976  19.557  0.00  0.00    +0.000 A 
ATOM     11  C   UNL     1       0.324   9.898  19.105  0.00  0.00    +0.000 A 
ATOM     12  C   UNL     1       1.143   9.249  19.957  0.00  0.00    +0.000 A 
ATOM     13  C   UNL     1       1.134   9.652  21.407  0.00  0.00    +0.000 A 
ATOM     14  O   UNL     1       1.512   8.970  22.348  0.00  0.00    +0.000 OA
ATOM     15  O   UNL     1       0.625  10.916  21.666  0.00  0.00    +0.000 OA
ATOM     16  C   UNL     1      -0.391  11.457  20.857  0.00  0.00    +0.000 A 
BRANCH   7  17
ATOM     17  O   UNL     1      -3.138  13.888  21.128  0.00  0.00    +0.000 OA
ATOM     18  H   UNL     1      -4.044  13.611  20.922  0.00  0.00    +0.000 HD
ENDBRANCH   7  17
BRANCH  11  19
ATOM     19  O   UNL     1       0.307   9.534  17.762  0.00  0.00    +0.000 OA
ATOM     20  H   UNL     1      -0.579   9.220  17.519  0.00  0.00    +0.000 HD
ENDBRANCH  11  19
ENDBRANCH   1  12
BRANCH   2  21
ATOM     21  C   UNL     1       2.976   6.039  19.127  0.00  0.00    +0.000 A 
ATOM     22  C   UNL     1       3.340   4.823  19.718  0.00  0.00    +0.000 A 
ATOM     23  C   UNL     1       4.351   4.046  19.157  0.00  0.00    +0.000 A 
ATOM     24  C   UNL     1       5.021   4.505  18.025  0.00  0.00    +0.000 A 
ATOM     25  C   UNL     1       4.695   5.736  17.433  0.00  0.00    +0.000 A 
ATOM     26  C   UNL     1       3.633   6.482  17.976  0.00  0.00    +0.000 A 
BRANCH  24  27
ATOM     27  O   UNL     1       6.038   3.762  17.497  0.00  0.00    +0.000 OA
ATOM     28  H   UNL     1       6.864   3.984  17.958  0.00  0.00    +0.000 HD
ENDBRANCH  24  27
BRANCH  25  29
ATOM     29  C   UNL     1       5.495   6.299  16.281  0.00  0.00    +0.000 C 
BRANCH  29  30
ATOM     30  C   UNL     1       6.981   6.531  16.615  0.00  0.00    +0.000 C 
BRANCH  30  31
ATOM     31  C   UNL     1       7.264   7.215  17.970  0.00  0.00    +0.000 C 
ATOM     32  C   UNL     1       8.036   6.313  18.932  0.00  0.00    +0.000 C 
ATOM     33  C   UNL     1       8.049   8.510  17.737  0.00  0.00    +0.000 C 
ENDBRANCH  30  31
ENDBRANCH  29  30
ENDBRANCH  25  29
ENDBRANCH   2  21
TORSDOF 8
ENDMDL
