MODEL 1
REMARK VINA RESULT:      -8.8      0.000      0.000
REMARK  Name = 
REMARK  8 active torsions:
REMARK  status: ('A' for Active; 'I' for Inactive)
REMARK    1  A    between atoms: C_1  and  C_2
REMARK    2  A    between atoms: N_4  and  C_5
REMARK    3  A    between atoms: C_8  and  N_9
REMARK    4  A    between atoms: C_10  and  C_12
REMARK    5  A    between atoms: C_12  and  C_13
REMARK    6  A    between atoms: C_13  and  C_14
REMARK    7  A    between atoms: C_14  and  N_15
REMARK    8  A    between atoms: C_17  and  C_18
REMARK                            x       y       z     vdW  Elec       q    Type
REMARK                         _______ _______ _______ _____ _____    ______ ____
ROOT
ATOM      1  C   UNL     1       7.421   5.566  16.794  0.00  0.00    +0.000 C 
ENDROOT
BRANCH   1   2
ATOM      2  C   UNL     1       7.564   6.284  18.132  0.00  0.00    +0.000 C 
BRANCH   2   4
ATOM      3  N   UNL     1       8.541   8.396  18.834  0.00  0.00    +0.000 N 
ATOM      4  C   UNL     1       7.682   7.780  17.937  0.00  0.00    +0.000 C 
ATOM      5  O   UNL     1       7.074   8.312  17.012  0.00  0.00    +0.000 OA
ATOM      6  H   UNL     1       9.043   7.812  19.495  0.00  0.00    +0.000 HD
BRANCH   3  10
ATOM      7  C   UNL     1       9.602  12.495  19.051  0.00  0.00    +0.000 A 
ATOM      8  C   UNL     1       8.923  12.003  17.939  0.00  0.00    +0.000 A 
ATOM      9  C   UNL     1       8.559  10.658  17.849  0.00  0.00    +0.000 A 
ATOM     10  C   UNL     1       8.865   9.769  18.873  0.00  0.00    +0.000 A 
ATOM     11  C   UNL     1       9.558  10.254  19.992  0.00  0.00    +0.000 A 
ATOM     12  C   UNL     1       9.933  11.605  20.078  0.00  0.00    +0.000 A 
BRANCH   7  16
ATOM     13  C   UNL     1      11.384  15.802  19.417  0.00  0.00    +0.000 C 
ATOM     14  C   UNL     1      11.294  14.323  19.155  0.00  0.00    +0.000 C 
ATOM     15  O   UNL     1      12.315  13.671  18.960  0.00  0.00    +0.000 OA
ATOM     16  N   UNL     1       9.992  13.848  19.170  0.00  0.00    +0.000 N 
ATOM     17  H   UNL     1       9.248  14.531  19.210  0.00  0.00    +0.000 HD
ENDBRANCH   7  16
ENDBRANCH   3  10
ENDBRANCH   2   4
ENDBRANCH   1   2
BRANCH   1  18
ATOM     18  C   UNL     1       6.425   4.402  16.823  0.00  0.00    +0.000 C 
BRANCH  18  19
ATOM     19  N   UNL     1       5.165   4.728  17.505  0.00  0.00    +0.000 N 
ATOM     20  N   UNL     1       4.785   3.774  18.445  0.00  0.00    +0.000 NA
ATOM     21  C   UNL     1       3.843   4.062  19.288  0.00  0.00    +0.000 A 
ATOM     22  C   UNL     1       3.335   2.982  20.205  0.00  0.00    +0.000 C 
ATOM     23  C   UNL     1       3.259   5.368  19.296  0.00  0.00    +0.000 A 
ATOM     24  S   UNL     1       2.355   5.970  20.580  0.00  0.00    +0.000 S 
ATOM     25  C   UNL     1       2.043   7.433  19.747  0.00  0.00    +0.000 A 
ATOM     26  C   UNL     1       1.309   8.518  20.261  0.00  0.00    +0.000 A 
ATOM     27  C   UNL     1       0.983   9.572  19.417  0.00  0.00    +0.000 A 
ATOM     28  C   UNL     1       1.399   9.549  18.093  0.00  0.00    +0.000 A 
ATOM     29  C   UNL     1       2.223   8.513  17.610  0.00  0.00    +0.000 A 
ATOM     30  C   UNL     1       2.585   7.425  18.450  0.00  0.00    +0.000 A 
ATOM     31  C   UNL     1       3.453   6.270  18.274  0.00  0.00    +0.000 A 
ATOM     32  C   UNL     1       4.446   5.930  17.243  0.00  0.00    +0.000 A 
ATOM     33  O   UNL     1       4.659   6.635  16.264  0.00  0.00    +0.000 OA
ENDBRANCH  18  19
ENDBRANCH   1  18
TORSDOF 6
ENDMDL
MODEL 2
REMARK VINA RESULT:      -8.6      2.683      3.449
REMARK  Name = 
REMARK  8 active torsions:
REMARK  status: ('A' for Active; 'I' for Inactive)
REMARK    1  A    between atoms: C_1  and  C_2
REMARK    2  A    between atoms: N_4  and  C_5
REMARK    3  A    between atoms: C_8  and  N_9
REMARK    4  A    between atoms: C_10  and  C_12
REMARK    5  A    between atoms: C_12  and  C_13
REMARK    6  A    between atoms: C_13  and  C_14
REMARK    7  A    between atoms: C_14  and  N_15
REMARK    8  A    between atoms: C_17  and  C_18
REMARK                            x       y       z     vdW  Elec       q    Type
REMARK                         _______ _______ _______ _____ _____    ______ ____
ROOT
ATOM      1  C   UNL     1       8.180   6.839  18.795  0.00  0.00    +0.000 C 
ENDROOT
BRANCH   1   2
ATOM      2  C   UNL     1       7.838   7.770  17.638  0.00  0.00    +0.000 C 
BRANCH   2   4
ATOM      3  N   UNL     1       9.096   9.359  18.980  0.00  0.00    +0.000 N 
ATOM      4  C   UNL     1       8.135   9.211  17.992  0.00  0.00    +0.000 C 
ATOM      5  O   UNL     1       7.564  10.108  17.375  0.00  0.00    +0.000 OA
ATOM      6  H   UNL     1       9.544   8.524  19.341  0.00  0.00    +0.000 HD
BRANCH   3  10
ATOM      7  C   UNL     1      10.610  13.062  20.383  0.00  0.00    +0.000 A 
ATOM      8  C   UNL     1       9.821  12.268  21.210  0.00  0.00    +0.000 A 
ATOM      9  C   UNL     1       9.316  11.042  20.771  0.00  0.00    +0.000 A 
ATOM     10  C   UNL     1       9.590  10.579  19.489  0.00  0.00    +0.000 A 
ATOM     11  C   UNL     1      10.376  11.378  18.646  0.00  0.00    +0.000 A 
ATOM     12  C   UNL     1      10.875  12.616  19.084  0.00  0.00    +0.000 A 
BRANCH   7  16
ATOM     13  C   UNL     1      11.534  16.686  20.892  0.00  0.00    +0.000 C 
ATOM     14  C   UNL     1      10.705  15.553  20.351  0.00  0.00    +0.000 C 
ATOM     15  O   UNL     1       9.765  15.787  19.596  0.00  0.00    +0.000 OA
ATOM     16  N   UNL     1      11.130  14.310  20.793  0.00  0.00    +0.000 N 
ATOM     17  H   UNL     1      11.834  14.291  21.519  0.00  0.00    +0.000 HD
ENDBRANCH   7  16
ENDBRANCH   3  10
ENDBRANCH   2   4
ENDBRANCH   1   2
BRANCH   1  18
ATOM     18  C   UNL     1       7.967   5.356  18.477  0.00  0.00    +0.000 C 
BRANCH  18  19
ATOM     19  N   UNL     1       6.603   5.046  18.026  0.00  0.00    +0.000 N 
ATOM     20  N   UNL     1       6.532   4.709  16.678  0.00  0.00    +0.000 NA
ATOM     21  C   UNL     1       5.445   4.171  16.219  0.00  0.00    +0.000 A 
ATOM     22  C   UNL     1       5.317   3.944  14.738  0.00  0.00    +0.000 C 
ATOM     23  C   UNL     1       4.367   3.862  17.107  0.00  0.00    +0.000 A 
ATOM     24  S   UNL     1       3.116   2.810  16.711  0.00  0.00    +0.000 S 
ATOM     25  C   UNL     1       2.336   3.084  18.210  0.00  0.00    +0.000 A 
ATOM     26  C   UNL     1       1.143   2.466  18.629  0.00  0.00    +0.000 A 
ATOM     27  C   UNL     1       0.527   2.908  19.793  0.00  0.00    +0.000 A 
ATOM     28  C   UNL     1       1.102   3.934  20.530  0.00  0.00    +0.000 A 
ATOM     29  C   UNL     1       2.349   4.478  20.165  0.00  0.00    +0.000 A 
ATOM     30  C   UNL     1       3.013   4.040  18.987  0.00  0.00    +0.000 A 
ATOM     31  C   UNL     1       4.305   4.348  18.394  0.00  0.00    +0.000 A 
ATOM     32  C   UNL     1       5.487   5.052  18.913  0.00  0.00    +0.000 A 
ATOM     33  O   UNL     1       5.521   5.570  20.024  0.00  0.00    +0.000 OA
ENDBRANCH  18  19
ENDBRANCH   1  18
TORSDOF 6
ENDMDL
MODEL 3
REMARK VINA RESULT:      -8.5      5.328      7.661
REMARK  Name = 
REMARK  8 active torsions:
REMARK  status: ('A' for Active; 'I' for Inactive)
REMARK    1  A    between atoms: C_1  and  C_2
REMARK    2  A    between atoms: N_4  and  C_5
REMARK    3  A    between atoms: C_8  and  N_9
REMARK    4  A    between atoms: C_10  and  C_12
REMARK    5  A    between atoms: C_12  and  C_13
REMARK    6  A    between atoms: C_13  and  C_14
REMARK    7  A    between atoms: C_14  and  N_15
REMARK    8  A    between atoms: C_17  and  C_18
REMARK                            x       y       z     vdW  Elec       q    Type
REMARK                         _______ _______ _______ _____ _____    ______ ____
ROOT
ATOM      1  C   UNL     1       3.595   2.806  20.912  0.00  0.00    +0.000 C 
ENDROOT
BRANCH   1   2
ATOM      2  C   UNL     1       2.148   2.964  21.364  0.00  0.00    +0.000 C 
BRANCH   2   4
ATOM      3  N   UNL     1       2.377   5.309  20.767  0.00  0.00    +0.000 N 
ATOM      4  C   UNL     1       1.528   4.214  20.778  0.00  0.00    +0.000 C 
ATOM      5  O   UNL     1       0.384   4.161  20.331  0.00  0.00    +0.000 OA
ATOM      6  H   UNL     1       3.329   5.181  21.095  0.00  0.00    +0.000 HD
BRANCH   3  10
ATOM      7  C   UNL     1       1.456   9.203  19.365  0.00  0.00    +0.000 A 
ATOM      8  C   UNL     1       2.180   8.322  18.565  0.00  0.00    +0.000 A 
ATOM      9  C   UNL     1       2.490   7.033  19.005  0.00  0.00    +0.000 A 
ATOM     10  C   UNL     1       2.081   6.592  20.259  0.00  0.00    +0.000 A 
ATOM     11  C   UNL     1       1.361   7.478  21.074  0.00  0.00    +0.000 A 
ATOM     12  C   UNL     1       1.058   8.777  20.636  0.00  0.00    +0.000 A 
BRANCH   7  16
ATOM     13  C   UNL     1      -0.164  12.453  18.335  0.00  0.00    +0.000 C 
ATOM     14  C   UNL     1      -0.137  11.071  18.930  0.00  0.00    +0.000 C 
ATOM     15  O   UNL     1      -1.176  10.553  19.328  0.00  0.00    +0.000 OA
ATOM     16  N   UNL     1       1.133  10.516  18.954  0.00  0.00    +0.000 N 
ATOM     17  H   UNL     1       1.908  11.118  18.715  0.00  0.00    +0.000 HD
ENDBRANCH   7  16
ENDBRANCH   3  10
ENDBRANCH   2   4
ENDBRANCH   1   2
BRANCH   1  18
ATOM     18  C   UNL     1       3.741   2.286  19.479  0.00  0.00    +0.000 C 
BRANCH  18  19
ATOM     19  N   UNL     1       4.444   3.218  18.588  0.00  0.00    +0.000 N 
ATOM     20  N   UNL     1       5.311   4.075  19.260  0.00  0.00    +0.000 NA
ATOM     21  C   UNL     1       6.173   4.763  18.578  0.00  0.00    +0.000 A 
ATOM     22  C   UNL     1       7.007   5.792  19.290  0.00  0.00    +0.000 C 
ATOM     23  C   UNL     1       6.276   4.583  17.162  0.00  0.00    +0.000 A 
ATOM     24  S   UNL     1       7.601   5.091  16.260  0.00  0.00    +0.000 S 
ATOM     25  C   UNL     1       6.878   4.565  14.800  0.00  0.00    +0.000 A 
ATOM     26  C   UNL     1       7.471   4.648  13.525  0.00  0.00    +0.000 A 
ATOM     27  C   UNL     1       6.707   4.346  12.406  0.00  0.00    +0.000 A 
ATOM     28  C   UNL     1       5.385   3.952  12.559  0.00  0.00    +0.000 A 
ATOM     29  C   UNL     1       4.827   3.768  13.839  0.00  0.00    +0.000 A 
ATOM     30  C   UNL     1       5.585   4.057  15.007  0.00  0.00    +0.000 A 
ATOM     31  C   UNL     1       5.324   3.909  16.431  0.00  0.00    +0.000 A 
ATOM     32  C   UNL     1       4.272   3.198  17.172  0.00  0.00    +0.000 A 
ATOM     33  O   UNL     1       3.347   2.612  16.622  0.00  0.00    +0.000 OA
ENDBRANCH  18  19
ENDBRANCH   1  18
TORSDOF 6
ENDMDL
MODEL 4
REMARK VINA RESULT:      -8.4      5.020      7.290
REMARK  Name = 
REMARK  8 active torsions:
REMARK  status: ('A' for Active; 'I' for Inactive)
REMARK    1  A    between atoms: C_1  and  C_2
REMARK    2  A    between atoms: N_4  and  C_5
REMARK    3  A    between atoms: C_8  and  N_9
REMARK    4  A    between atoms: C_10  and  C_12
REMARK    5  A    between atoms: C_12  and  C_13
REMARK    6  A    between atoms: C_13  and  C_14
REMARK    7  A    between atoms: C_14  and  N_15
REMARK    8  A    between atoms: C_17  and  C_18
REMARK                            x       y       z     vdW  Elec       q    Type
REMARK                         _______ _______ _______ _____ _____    ______ ____
ROOT
ATOM      1  C   UNL     1       2.599   2.720  20.276  0.00  0.00    +0.000 C 
ENDROOT
BRANCH   1   2
ATOM      2  C   UNL     1       2.614   3.896  21.245  0.00  0.00    +0.000 C 
BRANCH   2   4
ATOM      3  N   UNL     1       2.493   6.225  20.558  0.00  0.00    +0.000 N 
ATOM      4  C   UNL     1       1.782   5.046  20.720  0.00  0.00    +0.000 C 
ATOM      5  O   UNL     1       0.601   4.851  20.442  0.00  0.00    +0.000 OA
ATOM      6  H   UNL     1       3.490   6.214  20.750  0.00  0.00    +0.000 HD
BRANCH   3  10
ATOM      7  C   UNL     1       0.950   9.931  19.196  0.00  0.00    +0.000 A 
ATOM      8  C   UNL     1       1.689   9.120  18.338  0.00  0.00    +0.000 A 
ATOM      9  C   UNL     1       2.202   7.893  18.764  0.00  0.00    +0.000 A 
ATOM     10  C   UNL     1       1.987   7.445  20.062  0.00  0.00    +0.000 A 
ATOM     11  C   UNL     1       1.252   8.261  20.936  0.00  0.00    +0.000 A 
ATOM     12  C   UNL     1       0.745   9.500  20.510  0.00  0.00    +0.000 A 
BRANCH   7  16
ATOM     13  C   UNL     1       0.259  13.549  18.371  0.00  0.00    +0.000 C 
ATOM     14  C   UNL     1       1.129  12.371  18.715  0.00  0.00    +0.000 C 
ATOM     15  O   UNL     1       2.334  12.529  18.892  0.00  0.00    +0.000 OA
ATOM     16  N   UNL     1       0.423  11.181  18.799  0.00  0.00    +0.000 N 
ATOM     17  H   UNL     1      -0.540  11.190  18.494  0.00  0.00    +0.000 HD
ENDBRANCH   7  16
ENDBRANCH   3  10
ENDBRANCH   2   4
ENDBRANCH   1   2
BRANCH   1  18
ATOM     18  C   UNL     1       3.994   2.283  19.816  0.00  0.00    +0.000 C 
BRANCH  18  19
ATOM     19  N   UNL     1       4.617   3.219  18.870  0.00  0.00    +0.000 N 
ATOM     20  N   UNL     1       5.478   4.126  19.479  0.00  0.00    +0.000 NA
ATOM     21  C   UNL     1       6.279   4.829  18.740  0.00  0.00    +0.000 A 
ATOM     22  C   UNL     1       7.102   5.910  19.386  0.00  0.00    +0.000 C 
ATOM     23  C   UNL     1       6.324   4.615  17.326  0.00  0.00    +0.000 A 
ATOM     24  S   UNL     1       7.584   5.152  16.349  0.00  0.00    +0.000 S 
ATOM     25  C   UNL     1       6.816   4.559  14.939  0.00  0.00    +0.000 A 
ATOM     26  C   UNL     1       7.346   4.631  13.636  0.00  0.00    +0.000 A 
ATOM     27  C   UNL     1       6.544   4.269  12.562  0.00  0.00    +0.000 A 
ATOM     28  C   UNL     1       5.247   3.827  12.787  0.00  0.00    +0.000 A 
ATOM     29  C   UNL     1       4.757   3.656  14.097  0.00  0.00    +0.000 A 
ATOM     30  C   UNL     1       5.556   4.005  15.219  0.00  0.00    +0.000 A 
ATOM     31  C   UNL     1       5.367   3.885  16.657  0.00  0.00    +0.000 A 
ATOM     32  C   UNL     1       4.380   3.153  17.465  0.00  0.00    +0.000 A 
ATOM     33  O   UNL     1       3.456   2.516  16.974  0.00  0.00    +0.000 OA
ENDBRANCH  18  19
ENDBRANCH   1  18
TORSDOF 6
ENDMDL
MODEL 5
REMARK VINA RESULT:      -8.4      5.069      7.444
REMARK  Name = 
REMARK  8 active torsions:
REMARK  status: ('A' for Active; 'I' for Inactive)
REMARK    1  A    between atoms: C_1  and  C_2
REMARK    2  A    between atoms: N_4  and  C_5
REMARK    3  A    between atoms: C_8  and  N_9
REMARK    4  A    between atoms: C_10  and  C_12
REMARK    5  A    between atoms: C_12  and  C_13
REMARK    6  A    between atoms: C_13  and  C_14
REMARK    7  A    between atoms: C_14  and  N_15
REMARK    8  A    between atoms: C_17  and  C_18
REMARK                            x       y       z     vdW  Elec       q    Type
REMARK                         _______ _______ _______ _____ _____    ______ ____
ROOT
ATOM      1  C   UNL     1       3.483   2.841  20.369  0.00  0.00    +0.000 C 
ENDROOT
BRANCH   1   2
ATOM      2  C   UNL     1       2.555   3.418  21.431  0.00  0.00    +0.000 C 
BRANCH   2   4
ATOM      3  N   UNL     1       2.560   5.744  20.724  0.00  0.00    +0.000 N 
ATOM      4  C   UNL     1       1.786   4.606  20.895  0.00  0.00    +0.000 C 
ATOM      5  O   UNL     1       0.596   4.473  20.619  0.00  0.00    +0.000 OA
ATOM      6  H   UNL     1       3.554   5.680  20.917  0.00  0.00    +0.000 HD
BRANCH   3  10
ATOM      7  C   UNL     1       1.267   9.430  19.077  0.00  0.00    +0.000 A 
ATOM      8  C   UNL     1       0.940   9.094  20.389  0.00  0.00    +0.000 A 
ATOM      9  C   UNL     1       1.360   7.888  20.953  0.00  0.00    +0.000 A 
ATOM     10  C   UNL     1       2.120   6.985  20.218  0.00  0.00    +0.000 A 
ATOM     11  C   UNL     1       2.444   7.312  18.892  0.00  0.00    +0.000 A 
ATOM     12  C   UNL     1       2.013   8.520  18.321  0.00  0.00    +0.000 A 
BRANCH   7  16
ATOM     13  C   UNL     1       0.384  12.983  18.159  0.00  0.00    +0.000 C 
ATOM     14  C   UNL     1       1.041  11.911  18.986  0.00  0.00    +0.000 C 
ATOM     15  O   UNL     1       1.662  12.213  20.001  0.00  0.00    +0.000 OA
ATOM     16  N   UNL     1       0.851  10.638  18.473  0.00  0.00    +0.000 N 
ATOM     17  H   UNL     1       0.432  10.564  17.556  0.00  0.00    +0.000 HD
ENDBRANCH   7  16
ENDBRANCH   3  10
ENDBRANCH   2   4
ENDBRANCH   1   2
BRANCH   1  18
ATOM     18  C   UNL     1       2.963   3.009  18.938  0.00  0.00    +0.000 C 
BRANCH  18  19
ATOM     19  N   UNL     1       3.885   3.748  18.064  0.00  0.00    +0.000 N 
ATOM     20  N   UNL     1       4.813   4.513  18.765  0.00  0.00    +0.000 NA
ATOM     21  C   UNL     1       5.833   5.002  18.131  0.00  0.00    +0.000 A 
ATOM     22  C   UNL     1       6.753   5.946  18.856  0.00  0.00    +0.000 C 
ATOM     23  C   UNL     1       6.034   4.695  16.748  0.00  0.00    +0.000 A 
ATOM     24  S   UNL     1       7.500   4.920  15.955  0.00  0.00    +0.000 S 
ATOM     25  C   UNL     1       6.838   4.395  14.466  0.00  0.00    +0.000 A 
ATOM     26  C   UNL     1       7.550   4.283  13.256  0.00  0.00    +0.000 A 
ATOM     27  C   UNL     1       6.852   4.012  12.087  0.00  0.00    +0.000 A 
ATOM     28  C   UNL     1       5.475   3.839  12.129  0.00  0.00    +0.000 A 
ATOM     29  C   UNL     1       4.781   3.847  13.355  0.00  0.00    +0.000 A 
ATOM     30  C   UNL     1       5.466   4.109  14.572  0.00  0.00    +0.000 A 
ATOM     31  C   UNL     1       5.057   4.118  15.968  0.00  0.00    +0.000 A 
ATOM     32  C   UNL     1       3.841   3.640  16.643  0.00  0.00    +0.000 A 
ATOM     33  O   UNL     1       2.888   3.160  16.041  0.00  0.00    +0.000 OA
ENDBRANCH  18  19
ENDBRANCH   1  18
TORSDOF 6
ENDMDL
MODEL 6
REMARK VINA RESULT:      -8.3      5.834      8.729
REMARK  Name = 
REMARK  8 active torsions:
REMARK  status: ('A' for Active; 'I' for Inactive)
REMARK    1  A    between atoms: C_1  and  C_2
REMARK    2  A    between atoms: N_4  and  C_5
REMARK    3  A    between atoms: C_8  and  N_9
REMARK    4  A    between atoms: C_10  and  C_12
REMARK    5  A    between atoms: C_12  and  C_13
REMARK    6  A    between atoms: C_13  and  C_14
REMARK    7  A    between atoms: C_14  and  N_15
REMARK    8  A    between atoms: C_17  and  C_18
REMARK                            x       y       z     vdW  Elec       q    Type
REMARK                         _______ _______ _______ _____ _____    ______ ____
ROOT
ATOM      1  C   UNL     1       1.777   7.621  20.271  0.00  0.00    +0.000 C 
ENDROOT
BRANCH   1   2
ATOM      2  C   UNL     1       1.992   6.117  20.403  0.00  0.00    +0.000 C 
BRANCH   2   4
ATOM      3  N   UNL     1       3.716   5.960  18.696  0.00  0.00    +0.000 N 
ATOM      4  C   UNL     1       2.464   5.518  19.096  0.00  0.00    +0.000 C 
ATOM      5  O   UNL     1       1.758   4.686  18.531  0.00  0.00    +0.000 OA
ATOM      6  H   UNL     1       4.221   6.589  19.312  0.00  0.00    +0.000 HD
BRANCH   3  10
ATOM      7  C   UNL     1       5.778   4.612  15.246  0.00  0.00    +0.000 A 
ATOM      8  C   UNL     1       5.527   5.969  15.429  0.00  0.00    +0.000 A 
ATOM      9  C   UNL     1       4.855   6.436  16.560  0.00  0.00    +0.000 A 
ATOM     10  C   UNL     1       4.415   5.554  17.540  0.00  0.00    +0.000 A 
ATOM     11  C   UNL     1       4.654   4.183  17.358  0.00  0.00    +0.000 A 
ATOM     12  C   UNL     1       5.322   3.713  16.216  0.00  0.00    +0.000 A 
BRANCH   7  16
ATOM     13  C   UNL     1       6.827   3.081  11.959  0.00  0.00    +0.000 C 
ATOM     14  C   UNL     1       5.847   3.667  12.940  0.00  0.00    +0.000 C 
ATOM     15  O   UNL     1       4.653   3.713  12.660  0.00  0.00    +0.000 OA
ATOM     16  N   UNL     1       6.448   4.105  14.110  0.00  0.00    +0.000 N 
ATOM     17  H   UNL     1       7.458   4.123  14.135  0.00  0.00    +0.000 HD
ENDBRANCH   7  16
ENDBRANCH   3  10
ENDBRANCH   2   4
ENDBRANCH   1   2
BRANCH   1  18
ATOM     18  C   UNL     1       1.009   8.239  21.444  0.00  0.00    +0.000 C 
BRANCH  18  19
ATOM     19  N   UNL     1       0.320   9.489  21.096  0.00  0.00    +0.000 N 
ATOM     20  N   UNL     1       0.102   9.636  19.730  0.00  0.00    +0.000 NA
ATOM     21  C   UNL     1      -0.713  10.557  19.317  0.00  0.00    +0.000 A 
ATOM     22  C   UNL     1      -0.834  10.808  17.839  0.00  0.00    +0.000 C 
ATOM     23  C   UNL     1      -1.431  11.356  20.261  0.00  0.00    +0.000 A 
ATOM     24  S   UNL     1      -2.789  12.265  19.860  0.00  0.00    +0.000 S 
ATOM     25  C   UNL     1      -2.916  12.879  21.453  0.00  0.00    +0.000 A 
ATOM     26  C   UNL     1      -3.920  13.756  21.907  0.00  0.00    +0.000 A 
ATOM     27  C   UNL     1      -3.806  14.314  23.173  0.00  0.00    +0.000 A 
ATOM     28  C   UNL     1      -2.721  13.988  23.975  0.00  0.00    +0.000 A 
ATOM     29  C   UNL     1      -1.774  13.030  23.560  0.00  0.00    +0.000 A 
ATOM     30  C   UNL     1      -1.868  12.431  22.275  0.00  0.00    +0.000 A 
ATOM     31  C   UNL     1      -1.109  11.389  21.599  0.00  0.00    +0.000 A 
ATOM     32  C   UNL     1      -0.112  10.422  22.084  0.00  0.00    +0.000 A 
ATOM     33  O   UNL     1       0.286  10.399  23.243  0.00  0.00    +0.000 OA
ENDBRANCH  18  19
ENDBRANCH   1  18
TORSDOF 6
ENDMDL
MODEL 7
REMARK VINA RESULT:      -8.3      2.334      3.447
REMARK  Name = 
REMARK  8 active torsions:
REMARK  status: ('A' for Active; 'I' for Inactive)
REMARK    1  A    between atoms: C_1  and  C_2
REMARK    2  A    between atoms: N_4  and  C_5
REMARK    3  A    between atoms: C_8  and  N_9
REMARK    4  A    between atoms: C_10  and  C_12
REMARK    5  A    between atoms: C_12  and  C_13
REMARK    6  A    between atoms: C_13  and  C_14
REMARK    7  A    between atoms: C_14  and  N_15
REMARK    8  A    between atoms: C_17  and  C_18
REMARK                            x       y       z     vdW  Elec       q    Type
REMARK                         _______ _______ _______ _____ _____    ______ ____
ROOT
ATOM      1  C   UNL     1       7.650   7.609  17.229  0.00  0.00    +0.000 C 
ENDROOT
BRANCH   1   2
ATOM      2  C   UNL     1       8.290   8.040  18.544  0.00  0.00    +0.000 C 
BRANCH   2   4
ATOM      3  N   UNL     1       9.508   9.896  19.534  0.00  0.00    +0.000 N 
ATOM      4  C   UNL     1       8.645   9.511  18.519  0.00  0.00    +0.000 C 
ATOM      5  O   UNL     1       8.203  10.219  17.617  0.00  0.00    +0.000 OA
ATOM      6  H   UNL     1       9.860   9.180  20.161  0.00  0.00    +0.000 HD
BRANCH   3  10
ATOM      7  C   UNL     1      10.974  13.809  20.249  0.00  0.00    +0.000 A 
ATOM      8  C   UNL     1      11.767  12.871  19.593  0.00  0.00    +0.000 A 
ATOM      9  C   UNL     1      11.303  11.579  19.342  0.00  0.00    +0.000 A 
ATOM     10  C   UNL     1      10.029  11.191  19.742  0.00  0.00    +0.000 A 
ATOM     11  C   UNL     1       9.228  12.127  20.413  0.00  0.00    +0.000 A 
ATOM     12  C   UNL     1       9.699  13.424  20.675  0.00  0.00    +0.000 A 
BRANCH   7  16
ATOM     13  C   UNL     1      11.887  17.472  20.249  0.00  0.00    +0.000 C 
ATOM     14  C   UNL     1      11.190  16.240  19.738  0.00  0.00    +0.000 C 
ATOM     15  O   UNL     1      10.511  16.298  18.717  0.00  0.00    +0.000 OA
ATOM     16  N   UNL     1      11.417  15.123  20.526  0.00  0.00    +0.000 N 
ATOM     17  H   UNL     1      11.888  15.264  21.409  0.00  0.00    +0.000 HD
ENDBRANCH   7  16
ENDBRANCH   3  10
ENDBRANCH   2   4
ENDBRANCH   1   2
BRANCH   1  18
ATOM     18  C   UNL     1       6.142   7.870  17.161  0.00  0.00    +0.000 C 
BRANCH  18  19
ATOM     19  N   UNL     1       5.339   6.641  17.096  0.00  0.00    +0.000 N 
ATOM     20  N   UNL     1       5.845   5.699  16.206  0.00  0.00    +0.000 NA
ATOM     21  C   UNL     1       5.386   4.487  16.243  0.00  0.00    +0.000 A 
ATOM     22  C   UNL     1       5.828   3.511  15.186  0.00  0.00    +0.000 C 
ATOM     23  C   UNL     1       4.427   4.112  17.236  0.00  0.00    +0.000 A 
ATOM     24  S   UNL     1       4.087   2.514  17.637  0.00  0.00    +0.000 S 
ATOM     25  C   UNL     1       2.888   2.993  18.760  0.00  0.00    +0.000 A 
ATOM     26  C   UNL     1       2.133   2.117  19.564  0.00  0.00    +0.000 A 
ATOM     27  C   UNL     1       1.074   2.626  20.304  0.00  0.00    +0.000 A 
ATOM     28  C   UNL     1       0.787   3.983  20.255  0.00  0.00    +0.000 A 
ATOM     29  C   UNL     1       1.608   4.872  19.534  0.00  0.00    +0.000 A 
ATOM     30  C   UNL     1       2.708   4.387  18.775  0.00  0.00    +0.000 A 
ATOM     31  C   UNL     1       3.754   5.038  18.002  0.00  0.00    +0.000 A 
ATOM     32  C   UNL     1       4.185   6.441  17.909  0.00  0.00    +0.000 A 
ATOM     33  O   UNL     1       3.623   7.353  18.505  0.00  0.00    +0.000 OA
ENDBRANCH  18  19
ENDBRANCH   1  18
TORSDOF 6
ENDMDL
MODEL 8
REMARK VINA RESULT:      -8.2      3.193     10.196
REMARK  Name = 
REMARK  8 active torsions:
REMARK  status: ('A' for Active; 'I' for Inactive)
REMARK    1  A    between atoms: C_1  and  C_2
REMARK    2  A    between atoms: N_4  and  C_5
REMARK    3  A    between atoms: C_8  and  N_9
REMARK    4  A    between atoms: C_10  and  C_12
REMARK    5  A    between atoms: C_12  and  C_13
REMARK    6  A    between atoms: C_13  and  C_14
REMARK    7  A    between atoms: C_14  and  N_15
REMARK    8  A    between atoms: C_17  and  C_18
REMARK                            x       y       z     vdW  Elec       q    Type
REMARK                         _______ _______ _______ _____ _____    ______ ____
ROOT
ATOM      1  C   UNL     1       8.216   9.714  18.195  0.00  0.00    +0.000 C 
ENDROOT
BRANCH   1   2
ATOM      2  C   UNL     1       8.468   8.437  17.401  0.00  0.00    +0.000 C 
BRANCH   2   4
ATOM      3  N   UNL     1       6.396   7.214  17.056  0.00  0.00    +0.000 N 
ATOM      4  C   UNL     1       7.534   7.330  17.839  0.00  0.00    +0.000 C 
ATOM      5  O   UNL     1       7.856   6.615  18.785  0.00  0.00    +0.000 OA
ATOM      6  H   UNL     1       6.304   7.825  16.250  0.00  0.00    +0.000 HD
BRANCH   3  10
ATOM      7  C   UNL     1       3.220   4.448  17.544  0.00  0.00    +0.000 A 
ATOM      8  C   UNL     1       4.415   4.048  16.951  0.00  0.00    +0.000 A 
ATOM      9  C   UNL     1       5.476   4.941  16.785  0.00  0.00    +0.000 A 
ATOM     10  C   UNL     1       5.368   6.260  17.211  0.00  0.00    +0.000 A 
ATOM     11  C   UNL     1       4.163   6.674  17.799  0.00  0.00    +0.000 A 
ATOM     12  C   UNL     1       3.093   5.779  17.957  0.00  0.00    +0.000 A 
BRANCH   7  16
ATOM     13  C   UNL     1       0.553   2.076  18.772  0.00  0.00    +0.000 C 
ATOM     14  C   UNL     1       1.670   3.072  18.930  0.00  0.00    +0.000 C 
ATOM     15  O   UNL     1       2.084   3.358  20.050  0.00  0.00    +0.000 OA
ATOM     16  N   UNL     1       2.124   3.573  17.720  0.00  0.00    +0.000 N 
ATOM     17  H   UNL     1       1.592   3.343  16.892  0.00  0.00    +0.000 HD
ENDBRANCH   7  16
ENDBRANCH   3  10
ENDBRANCH   2   4
ENDBRANCH   1   2
BRANCH   1  18
ATOM     18  C   UNL     1       9.324  10.044  19.200  0.00  0.00    +0.000 C 
BRANCH  18  19
ATOM     19  N   UNL     1       9.364  11.464  19.578  0.00  0.00    +0.000 N 
ATOM     20  N   UNL     1       9.027  11.689  20.909  0.00  0.00    +0.000 NA
ATOM     21  C   UNL     1       9.270  12.850  21.433  0.00  0.00    +0.000 A 
ATOM     22  C   UNL     1       8.773  13.137  22.824  0.00  0.00    +0.000 C 
ATOM     23  C   UNL     1       9.942  13.856  20.670  0.00  0.00    +0.000 A 
ATOM     24  S   UNL     1      10.665  15.210  21.358  0.00  0.00    +0.000 S 
ATOM     25  C   UNL     1      11.113  15.819  19.822  0.00  0.00    +0.000 A 
ATOM     26  C   UNL     1      11.837  17.006  19.600  0.00  0.00    +0.000 A 
ATOM     27  C   UNL     1      11.982  17.474  18.301  0.00  0.00    +0.000 A 
ATOM     28  C   UNL     1      11.432  16.760  17.245  0.00  0.00    +0.000 A 
ATOM     29  C   UNL     1      10.800  15.519  17.460  0.00  0.00    +0.000 A 
ATOM     30  C   UNL     1      10.645  15.005  18.776  0.00  0.00    +0.000 A 
ATOM     31  C   UNL     1      10.115  13.759  19.307  0.00  0.00    +0.000 A 
ATOM     32  C   UNL     1       9.757  12.485  18.664  0.00  0.00    +0.000 A 
ATOM     33  O   UNL     1       9.821  12.308  17.453  0.00  0.00    +0.000 OA
ENDBRANCH  18  19
ENDBRANCH   1  18
TORSDOF 6
ENDMDL
MODEL 9
REMARK VINA RESULT:      -8.2      5.399      7.681
REMARK  Name = 
REMARK  8 active torsions:
REMARK  status: ('A' for Active; 'I' for Inactive)
REMARK    1  A    between atoms: C_1  and  C_2
REMARK    2  A    between atoms: N_4  and  C_5
REMARK    3  A    between atoms: C_8  and  N_9
REMARK    4  A    between atoms: C_10  and  C_12
REMARK    5  A    between atoms: C_12  and  C_13
REMARK    6  A    between atoms: C_13  and  C_14
REMARK    7  A    between atoms: C_14  and  N_15
REMARK    8  A    between atoms: C_17  and  C_18
REMARK                            x       y       z     vdW  Elec       q    Type
REMARK                         _______ _______ _______ _____ _____    ______ ____
ROOT
ATOM      1  C   UNL     1       2.451   2.593  20.207  0.00  0.00    +0.000 C 
ENDROOT
BRANCH   1   2
ATOM      2  C   UNL     1       2.478   3.768  21.178  0.00  0.00    +0.000 C 
BRANCH   2   4
ATOM      3  N   UNL     1       2.407   6.154  20.717  0.00  0.00    +0.000 N 
ATOM      4  C   UNL     1       1.720   4.953  20.620  0.00  0.00    +0.000 C 
ATOM      5  O   UNL     1       0.621   4.770  20.102  0.00  0.00    +0.000 OA
ATOM      6  H   UNL     1       3.348   6.138  21.094  0.00  0.00    +0.000 HD
BRANCH   3  10
ATOM      7  C   UNL     1       1.074   9.885  19.210  0.00  0.00    +0.000 A 
ATOM      8  C   UNL     1       0.912   9.574  20.557  0.00  0.00    +0.000 A 
ATOM      9  C   UNL     1       1.349   8.354  21.076  0.00  0.00    +0.000 A 
ATOM     10  C   UNL     1       1.960   7.411  20.257  0.00  0.00    +0.000 A 
ATOM     11  C   UNL     1       2.117   7.713  18.896  0.00  0.00    +0.000 A 
ATOM     12  C   UNL     1       1.669   8.936  18.372  0.00  0.00    +0.000 A 
BRANCH   7  16
ATOM     13  C   UNL     1      -0.825  12.873  17.899  0.00  0.00    +0.000 C 
ATOM     14  C   UNL     1      -0.660  11.597  18.680  0.00  0.00    +0.000 C 
ATOM     15  O   UNL     1      -1.624  11.100  19.255  0.00  0.00    +0.000 OA
ATOM     16  N   UNL     1       0.636  11.108  18.651  0.00  0.00    +0.000 N 
ATOM     17  H   UNL     1       1.349  11.701  18.248  0.00  0.00    +0.000 HD
ENDBRANCH   7  16
ENDBRANCH   3  10
ENDBRANCH   2   4
ENDBRANCH   1   2
BRANCH   1  18
ATOM     18  C   UNL     1       3.840   2.150  19.735  0.00  0.00    +0.000 C 
BRANCH  18  19
ATOM     19  N   UNL     1       4.481   3.111  18.827  0.00  0.00    +0.000 N 
ATOM     20  N   UNL     1       5.312   4.016  19.480  0.00  0.00    +0.000 NA
ATOM     21  C   UNL     1       6.127   4.742  18.780  0.00  0.00    +0.000 A 
ATOM     22  C   UNL     1       6.917   5.819  19.472  0.00  0.00    +0.000 C 
ATOM     23  C   UNL     1       6.219   4.556  17.365  0.00  0.00    +0.000 A 
ATOM     24  S   UNL     1       7.503   5.126  16.439  0.00  0.00    +0.000 S 
ATOM     25  C   UNL     1       6.787   4.551  14.994  0.00  0.00    +0.000 A 
ATOM     26  C   UNL     1       7.356   4.655  13.710  0.00  0.00    +0.000 A 
ATOM     27  C   UNL     1       6.592   4.305  12.604  0.00  0.00    +0.000 A 
ATOM     28  C   UNL     1       5.295   3.844  12.780  0.00  0.00    +0.000 A 
ATOM     29  C   UNL     1       4.766   3.642  14.070  0.00  0.00    +0.000 A 
ATOM     30  C   UNL     1       5.525   3.978  15.224  0.00  0.00    +0.000 A 
ATOM     31  C   UNL     1       5.293   3.828  16.652  0.00  0.00    +0.000 A 
ATOM     32  C   UNL     1       4.289   3.070  17.415  0.00  0.00    +0.000 A 
ATOM     33  O   UNL     1       3.388   2.433  16.883  0.00  0.00    +0.000 OA
ENDBRANCH  18  19
ENDBRANCH   1  18
TORSDOF 6
ENDMDL
