MODEL 1
REMARK VINA RESULT:      -7.5      0.000      0.000
REMARK  Name = 
REMARK  10 active torsions:
REMARK  status: ('A' for Active; 'I' for Inactive)
REMARK    1  A    between atoms: C_1  and  C_2
REMARK    2  A    between atoms: C_2  and  O_3
REMARK    3  A    between atoms: O_3  and  C_4
REMARK    4  A    between atoms: C_10  and  C_11
REMARK    5  A    between atoms: C_11  and  C_12
REMARK    6  A    between atoms: C_11  and  N_13
REMARK    7  A    between atoms: N_16  and  C_17
REMARK    8  A    between atoms: N_16  and  S_18
REMARK    9  A    between atoms: S_18  and  C_21
REMARK   10  A    between atoms: C_24  and  C_25
REMARK                            x       y       z     vdW  Elec       q    Type
REMARK                         _______ _______ _______ _____ _____    ______ ____
ROOT
ATOM      1  N   UNL     1       2.099   6.969  18.747  0.00  0.00    +0.000 N 
ATOM      2  C   UNL     1       1.959   8.310  18.499  0.00  0.00    +0.000 C 
ATOM      3  O   UNL     1       2.301   8.785  17.423  0.00  0.00    +0.000 OA
ATOM      4  N   UNL     1       1.367   9.085  19.521  0.00  0.00    +0.000 N 
ATOM      5  C   UNL     1       1.086   8.658  20.898  0.00  0.00    +0.000 C 
ATOM      6  H   UNL     1       1.686   6.554  19.562  0.00  0.00    +0.000 HD
ENDROOT
BRANCH   4   7
ATOM      7  S   UNL     1       1.110  10.758  19.284  0.00  0.00    +0.000 S 
ATOM      8  O   UNL     1       1.149  11.416  20.579  0.00  0.00    +0.000 OA
ATOM      9  O   UNL     1       1.967  11.230  18.213  0.00  0.00    +0.000 OA
BRANCH   7  10
ATOM     10  C   UNL     1      -0.583  10.829  18.743  0.00  0.00    +0.000 A 
ATOM     11  C   UNL     1      -1.468  11.733  19.341  0.00  0.00    +0.000 A 
ATOM     12  C   UNL     1      -2.794  11.789  18.906  0.00  0.00    +0.000 A 
ATOM     13  C   UNL     1      -3.236  10.951  17.873  0.00  0.00    +0.000 A 
ATOM     14  C   UNL     1      -4.663  10.981  17.409  0.00  0.00    +0.000 C 
ATOM     15  C   UNL     1      -2.334  10.066  17.270  0.00  0.00    +0.000 A 
ATOM     16  C   UNL     1      -1.006  10.016  17.689  0.00  0.00    +0.000 A 
ENDBRANCH   7  10
ENDBRANCH   4   7
BRANCH   1  17
ATOM     17  C   UNL     1       2.486   6.025  17.718  0.00  0.00    +0.000 C 
ATOM     18  C   UNL     1       1.512   4.842  17.662  0.00  0.00    +0.000 C 
BRANCH  17  25
ATOM     19  C   UNL     1       4.459   4.973  19.066  0.00  0.00    +0.000 A 
ATOM     20  C   UNL     1       5.768   4.461  19.049  0.00  0.00    +0.000 A 
ATOM     21  C   UNL     1       6.560   4.528  17.902  0.00  0.00    +0.000 A 
ATOM     22  C   UNL     1       6.047   5.099  16.749  0.00  0.00    +0.000 A 
ATOM     23 CL   UNL     1       7.022   5.193  15.337  0.00  0.00    +0.000 Cl
ATOM     24  C   UNL     1       4.741   5.584  16.731  0.00  0.00    +0.000 A 
ATOM     25  C   UNL     1       3.919   5.524  17.881  0.00  0.00    +0.000 A 
BRANCH  19  26
ATOM     26  O   UNL     1       3.663   4.932  20.194  0.00  0.00    +0.000 OA
BRANCH  26  28
ATOM     27  C   UNL     1       1.825   3.718  21.217  0.00  0.00    +0.000 C 
ATOM     28  C   UNL     1       3.187   3.624  20.553  0.00  0.00    +0.000 C 
ENDBRANCH  26  28
ENDBRANCH  19  26
ENDBRANCH  17  25
ENDBRANCH   1  17
TORSDOF 6
ENDMDL
MODEL 2
REMARK VINA RESULT:      -7.2      1.058      1.150
REMARK  Name = 
REMARK  10 active torsions:
REMARK  status: ('A' for Active; 'I' for Inactive)
REMARK    1  A    between atoms: C_1  and  C_2
REMARK    2  A    between atoms: C_2  and  O_3
REMARK    3  A    between atoms: O_3  and  C_4
REMARK    4  A    between atoms: C_10  and  C_11
REMARK    5  A    between atoms: C_11  and  C_12
REMARK    6  A    between atoms: C_11  and  N_13
REMARK    7  A    between atoms: N_16  and  C_17
REMARK    8  A    between atoms: N_16  and  S_18
REMARK    9  A    between atoms: S_18  and  C_21
REMARK   10  A    between atoms: C_24  and  C_25
REMARK                            x       y       z     vdW  Elec       q    Type
REMARK                         _______ _______ _______ _____ _____    ______ ____
ROOT
ATOM      1  N   UNL     1       2.180   7.152  18.911  0.00  0.00    +0.000 N 
ATOM      2  C   UNL     1       1.998   8.486  18.650  0.00  0.00    +0.000 C 
ATOM      3  O   UNL     1       2.414   8.981  17.611  0.00  0.00    +0.000 OA
ATOM      4  N   UNL     1       1.278   9.228  19.613  0.00  0.00    +0.000 N 
ATOM      5  C   UNL     1       0.892   8.783  20.959  0.00  0.00    +0.000 C 
ATOM      6  H   UNL     1       1.713   6.715  19.685  0.00  0.00    +0.000 HD
ENDROOT
BRANCH   4   7
ATOM      7  S   UNL     1       0.963  10.888  19.352  0.00  0.00    +0.000 S 
ATOM      8  O   UNL     1       0.928  11.556  20.641  0.00  0.00    +0.000 OA
ATOM      9  O   UNL     1       1.839  11.386  18.309  0.00  0.00    +0.000 OA
BRANCH   7  10
ATOM     10  C   UNL     1      -0.711  10.886  18.749  0.00  0.00    +0.000 A 
ATOM     11  C   UNL     1      -1.638  11.796  19.269  0.00  0.00    +0.000 A 
ATOM     12  C   UNL     1      -2.948  11.794  18.785  0.00  0.00    +0.000 A 
ATOM     13  C   UNL     1      -3.333  10.894  17.782  0.00  0.00    +0.000 A 
ATOM     14  C   UNL     1      -4.742  10.863  17.267  0.00  0.00    +0.000 C 
ATOM     15  C   UNL     1      -2.388  10.004  17.257  0.00  0.00    +0.000 A 
ATOM     16  C   UNL     1      -1.075  10.010  17.725  0.00  0.00    +0.000 A 
ENDBRANCH   7  10
ENDBRANCH   4   7
BRANCH   1  17
ATOM     17  C   UNL     1       2.705   6.232  17.923  0.00  0.00    +0.000 C 
ATOM     18  C   UNL     1       1.834   4.975  17.825  0.00  0.00    +0.000 C 
BRANCH  17  25
ATOM     19  C   UNL     1       4.587   4.691  18.872  0.00  0.00    +0.000 A 
ATOM     20  C   UNL     1       5.962   4.411  18.956  0.00  0.00    +0.000 A 
ATOM     21  C   UNL     1       6.914   5.276  18.415  0.00  0.00    +0.000 A 
ATOM     22  C   UNL     1       6.501   6.431  17.769  0.00  0.00    +0.000 A 
ATOM     23 CL   UNL     1       7.671   7.503  17.110  0.00  0.00    +0.000 Cl
ATOM     24  C   UNL     1       5.143   6.714  17.645  0.00  0.00    +0.000 A 
ATOM     25  C   UNL     1       4.159   5.850  18.183  0.00  0.00    +0.000 A 
BRANCH  19  26
ATOM     26  O   UNL     1       3.629   3.858  19.414  0.00  0.00    +0.000 OA
BRANCH  26  28
ATOM     27  C   UNL     1       3.465   1.616  18.497  0.00  0.00    +0.000 C 
ATOM     28  C   UNL     1       4.042   2.493  19.593  0.00  0.00    +0.000 C 
ENDBRANCH  26  28
ENDBRANCH  19  26
ENDBRANCH  17  25
ENDBRANCH   1  17
TORSDOF 6
ENDMDL
MODEL 3
REMARK VINA RESULT:      -6.8      2.185      3.113
REMARK  Name = 
REMARK  10 active torsions:
REMARK  status: ('A' for Active; 'I' for Inactive)
REMARK    1  A    between atoms: C_1  and  C_2
REMARK    2  A    between atoms: C_2  and  O_3
REMARK    3  A    between atoms: O_3  and  C_4
REMARK    4  A    between atoms: C_10  and  C_11
REMARK    5  A    between atoms: C_11  and  C_12
REMARK    6  A    between atoms: C_11  and  N_13
REMARK    7  A    between atoms: N_16  and  C_17
REMARK    8  A    between atoms: N_16  and  S_18
REMARK    9  A    between atoms: S_18  and  C_21
REMARK   10  A    between atoms: C_24  and  C_25
REMARK                            x       y       z     vdW  Elec       q    Type
REMARK                         _______ _______ _______ _____ _____    ______ ____
ROOT
ATOM      1  N   UNL     1       1.858   7.600  19.950  0.00  0.00    +0.000 N 
ATOM      2  C   UNL     1       1.472   8.912  19.857  0.00  0.00    +0.000 C 
ATOM      3  O   UNL     1       2.048   9.680  19.097  0.00  0.00    +0.000 OA
ATOM      4  N   UNL     1       0.363   9.304  20.642  0.00  0.00    +0.000 N 
ATOM      5  C   UNL     1      -0.282   8.522  21.705  0.00  0.00    +0.000 C 
ATOM      6  H   UNL     1       1.299   6.937  20.455  0.00  0.00    +0.000 HD
ENDROOT
BRANCH   4   7
ATOM      7  S   UNL     1      -0.219  10.908  20.557  0.00  0.00    +0.000 S 
ATOM      8  O   UNL     1      -1.049  11.157  21.722  0.00  0.00    +0.000 OA
ATOM      9  O   UNL     1       0.881  11.804  20.253  0.00  0.00    +0.000 OA
BRANCH   7  10
ATOM     10  C   UNL     1      -1.324  10.858  19.163  0.00  0.00    +0.000 A 
ATOM     11  C   UNL     1      -2.442  11.698  19.132  0.00  0.00    +0.000 A 
ATOM     12  C   UNL     1      -3.301  11.660  18.031  0.00  0.00    +0.000 A 
ATOM     13  C   UNL     1      -3.044  10.792  16.962  0.00  0.00    +0.000 A 
ATOM     14  C   UNL     1      -3.969  10.720  15.782  0.00  0.00    +0.000 C 
ATOM     15  C   UNL     1      -1.909   9.972  16.998  0.00  0.00    +0.000 A 
ATOM     16  C   UNL     1      -1.040  10.017  18.086  0.00  0.00    +0.000 A 
ENDBRANCH   7  10
ENDBRANCH   4   7
BRANCH   1  17
ATOM     17  C   UNL     1       2.831   7.011  19.052  0.00  0.00    +0.000 C 
ATOM     18  C   UNL     1       2.363   7.108  17.596  0.00  0.00    +0.000 C 
BRANCH  17  25
ATOM     19  C   UNL     1       4.378   4.908  19.091  0.00  0.00    +0.000 A 
ATOM     20  C   UNL     1       4.593   3.602  19.564  0.00  0.00    +0.000 A 
ATOM     21  C   UNL     1       3.618   2.925  20.296  0.00  0.00    +0.000 A 
ATOM     22  C   UNL     1       2.415   3.551  20.577  0.00  0.00    +0.000 A 
ATOM     23 CL   UNL     1       1.207   2.716  21.470  0.00  0.00    +0.000 Cl
ATOM     24  C   UNL     1       2.191   4.857  20.148  0.00  0.00    +0.000 A 
ATOM     25  C   UNL     1       3.166   5.565  19.406  0.00  0.00    +0.000 A 
BRANCH  19  26
ATOM     26  O   UNL     1       5.322   5.592  18.351  0.00  0.00    +0.000 OA
BRANCH  26  28
ATOM     27  C   UNL     1       7.682   5.689  18.916  0.00  0.00    +0.000 C 
ATOM     28  C   UNL     1       6.584   4.918  18.206  0.00  0.00    +0.000 C 
ENDBRANCH  26  28
ENDBRANCH  19  26
ENDBRANCH  17  25
ENDBRANCH   1  17
TORSDOF 6
ENDMDL
MODEL 4
REMARK VINA RESULT:      -6.6      2.002      3.096
REMARK  Name = 
REMARK  10 active torsions:
REMARK  status: ('A' for Active; 'I' for Inactive)
REMARK    1  A    between atoms: C_1  and  C_2
REMARK    2  A    between atoms: C_2  and  O_3
REMARK    3  A    between atoms: O_3  and  C_4
REMARK    4  A    between atoms: C_10  and  C_11
REMARK    5  A    between atoms: C_11  and  C_12
REMARK    6  A    between atoms: C_11  and  N_13
REMARK    7  A    between atoms: N_16  and  C_17
REMARK    8  A    between atoms: N_16  and  S_18
REMARK    9  A    between atoms: S_18  and  C_21
REMARK   10  A    between atoms: C_24  and  C_25
REMARK                            x       y       z     vdW  Elec       q    Type
REMARK                         _______ _______ _______ _____ _____    ______ ____
ROOT
ATOM      1  N   UNL     1       2.097   6.925  19.263  0.00  0.00    +0.000 N 
ATOM      2  C   UNL     1       2.003   8.234  18.864  0.00  0.00    +0.000 C 
ATOM      3  O   UNL     1       2.427   8.586  17.771  0.00  0.00    +0.000 OA
ATOM      4  N   UNL     1       1.359   9.123  19.754  0.00  0.00    +0.000 N 
ATOM      5  C   UNL     1       0.975   8.851  21.146  0.00  0.00    +0.000 C 
ATOM      6  H   UNL     1       1.620   6.607  20.088  0.00  0.00    +0.000 HD
ENDROOT
BRANCH   4   7
ATOM      7  S   UNL     1       1.154  10.764  19.323  0.00  0.00    +0.000 S 
ATOM      8  O   UNL     1       1.177  11.563  20.535  0.00  0.00    +0.000 OA
ATOM      9  O   UNL     1       2.051  11.090  18.230  0.00  0.00    +0.000 OA
BRANCH   7  10
ATOM     10  C   UNL     1      -0.522  10.814  18.728  0.00  0.00    +0.000 A 
ATOM     11  C   UNL     1      -0.930   9.929  17.724  0.00  0.00    +0.000 A 
ATOM     12  C   UNL     1      -2.250   9.968  17.267  0.00  0.00    +0.000 A 
ATOM     13  C   UNL     1      -3.162  10.880  17.813  0.00  0.00    +0.000 A 
ATOM     14  C   UNL     1      -4.577  10.952  17.319  0.00  0.00    +0.000 C 
ATOM     15  C   UNL     1      -2.745  11.746  18.833  0.00  0.00    +0.000 A 
ATOM     16  C   UNL     1      -1.433  11.702  19.303  0.00  0.00    +0.000 A 
ENDBRANCH   7  10
ENDBRANCH   4   7
BRANCH   1  17
ATOM     17  C   UNL     1       2.534   5.871  18.370  0.00  0.00    +0.000 C 
ATOM     18  C   UNL     1       1.428   5.502  17.375  0.00  0.00    +0.000 C 
BRANCH  17  25
ATOM     19  C   UNL     1       4.271   4.004  18.929  0.00  0.00    +0.000 A 
ATOM     20  C   UNL     1       4.626   2.920  19.750  0.00  0.00    +0.000 A 
ATOM     21  C   UNL     1       3.746   2.418  20.710  0.00  0.00    +0.000 A 
ATOM     22  C   UNL     1       2.501   3.004  20.870  0.00  0.00    +0.000 A 
ATOM     23 CL   UNL     1       1.412   2.383  22.045  0.00  0.00    +0.000 Cl
ATOM     24  C   UNL     1       2.139   4.100  20.091  0.00  0.00    +0.000 A 
ATOM     25  C   UNL     1       3.016   4.628  19.113  0.00  0.00    +0.000 A 
BRANCH  19  26
ATOM     26  O   UNL     1       5.119   4.506  17.961  0.00  0.00    +0.000 OA
BRANCH  26  28
ATOM     27  C   UNL     1       6.466   6.481  17.536  0.00  0.00    +0.000 C 
ATOM     28  C   UNL     1       6.203   5.307  18.460  0.00  0.00    +0.000 C 
ENDBRANCH  26  28
ENDBRANCH  19  26
ENDBRANCH  17  25
ENDBRANCH   1  17
TORSDOF 6
ENDMDL
MODEL 5
REMARK VINA RESULT:      -6.6      1.586      2.201
REMARK  Name = 
REMARK  10 active torsions:
REMARK  status: ('A' for Active; 'I' for Inactive)
REMARK    1  A    between atoms: C_1  and  C_2
REMARK    2  A    between atoms: C_2  and  O_3
REMARK    3  A    between atoms: O_3  and  C_4
REMARK    4  A    between atoms: C_10  and  C_11
REMARK    5  A    between atoms: C_11  and  C_12
REMARK    6  A    between atoms: C_11  and  N_13
REMARK    7  A    between atoms: N_16  and  C_17
REMARK    8  A    between atoms: N_16  and  S_18
REMARK    9  A    between atoms: S_18  and  C_21
REMARK   10  A    between atoms: C_24  and  C_25
REMARK                            x       y       z     vdW  Elec       q    Type
REMARK                         _______ _______ _______ _____ _____    ______ ____
ROOT
ATOM      1  N   UNL     1       1.972   6.698  20.261  0.00  0.00    +0.000 N 
ATOM      2  C   UNL     1       1.922   7.663  19.289  0.00  0.00    +0.000 C 
ATOM      3  O   UNL     1       2.122   7.379  18.115  0.00  0.00    +0.000 OA
ATOM      4  N   UNL     1       1.589   8.971  19.710  0.00  0.00    +0.000 N 
ATOM      5  C   UNL     1       1.505   9.454  21.094  0.00  0.00    +0.000 C 
ATOM      6  H   UNL     1       1.664   6.898  21.195  0.00  0.00    +0.000 HD
ENDROOT
BRANCH   4   7
ATOM      7  S   UNL     1       1.459  10.231  18.562  0.00  0.00    +0.000 S 
ATOM      8  O   UNL     1       1.930  11.460  19.176  0.00  0.00    +0.000 OA
ATOM      9  O   UNL     1       2.027   9.794  17.301  0.00  0.00    +0.000 OA
BRANCH   7  10
ATOM     10  C   UNL     1      -0.300  10.415  18.370  0.00  0.00    +0.000 A 
ATOM     11  C   UNL     1      -0.986   9.617  17.448  0.00  0.00    +0.000 A 
ATOM     12  C   UNL     1      -2.368   9.761  17.308  0.00  0.00    +0.000 A 
ATOM     13  C   UNL     1      -3.067  10.692  18.088  0.00  0.00    +0.000 A 
ATOM     14  C   UNL     1      -4.548  10.876  17.934  0.00  0.00    +0.000 C 
ATOM     15  C   UNL     1      -2.369  11.469  19.022  0.00  0.00    +0.000 A 
ATOM     16  C   UNL     1      -0.992  11.320  19.177  0.00  0.00    +0.000 A 
ENDBRANCH   7  10
ENDBRANCH   4   7
BRANCH   1  17
ATOM     17  C   UNL     1       2.086   5.287  19.949  0.00  0.00    +0.000 C 
ATOM     18  C   UNL     1       2.094   4.441  21.228  0.00  0.00    +0.000 C 
BRANCH  17  25
ATOM     19  C   UNL     1       3.287   4.249  17.876  0.00  0.00    +0.000 A 
ATOM     20  C   UNL     1       4.476   4.109  17.140  0.00  0.00    +0.000 A 
ATOM     21  C   UNL     1       5.685   4.623  17.610  0.00  0.00    +0.000 A 
ATOM     22  C   UNL     1       5.719   5.296  18.820  0.00  0.00    +0.000 A 
ATOM     23 CL   UNL     1       7.208   5.922  19.407  0.00  0.00    +0.000 Cl
ATOM     24  C   UNL     1       4.548   5.476  19.552  0.00  0.00    +0.000 A 
ATOM     25  C   UNL     1       3.309   4.967  19.095  0.00  0.00    +0.000 A 
BRANCH  19  26
ATOM     26  O   UNL     1       2.082   3.735  17.439  0.00  0.00    +0.000 OA
BRANCH  26  28
ATOM     27  C   UNL     1       0.672   2.235  18.727  0.00  0.00    +0.000 C 
ATOM     28  C   UNL     1       1.851   2.358  17.779  0.00  0.00    +0.000 C 
ENDBRANCH  26  28
ENDBRANCH  19  26
ENDBRANCH  17  25
ENDBRANCH   1  17
TORSDOF 6
ENDMDL
MODEL 6
REMARK VINA RESULT:      -6.5      2.040      2.997
REMARK  Name = 
REMARK  10 active torsions:
REMARK  status: ('A' for Active; 'I' for Inactive)
REMARK    1  A    between atoms: C_1  and  C_2
REMARK    2  A    between atoms: C_2  and  O_3
REMARK    3  A    between atoms: O_3  and  C_4
REMARK    4  A    between atoms: C_10  and  C_11
REMARK    5  A    between atoms: C_11  and  C_12
REMARK    6  A    between atoms: C_11  and  N_13
REMARK    7  A    between atoms: N_16  and  C_17
REMARK    8  A    between atoms: N_16  and  S_18
REMARK    9  A    between atoms: S_18  and  C_21
REMARK   10  A    between atoms: C_24  and  C_25
REMARK                            x       y       z     vdW  Elec       q    Type
REMARK                         _______ _______ _______ _____ _____    ______ ____
ROOT
ATOM      1  N   UNL     1       2.055   7.176  19.498  0.00  0.00    +0.000 N 
ATOM      2  C   UNL     1       1.909   8.514  19.235  0.00  0.00    +0.000 C 
ATOM      3  O   UNL     1       2.347   8.999  18.199  0.00  0.00    +0.000 OA
ATOM      4  N   UNL     1       1.199   9.275  20.191  0.00  0.00    +0.000 N 
ATOM      5  C   UNL     1       0.791   8.840  21.534  0.00  0.00    +0.000 C 
ATOM      6  H   UNL     1       1.571   6.751  20.268  0.00  0.00    +0.000 HD
ENDROOT
BRANCH   4   7
ATOM      7  S   UNL     1       0.928  10.942  19.927  0.00  0.00    +0.000 S 
ATOM      8  O   UNL     1       0.801  11.595  21.218  0.00  0.00    +0.000 OA
ATOM      9  O   UNL     1       1.891  11.439  18.962  0.00  0.00    +0.000 OA
BRANCH   7  10
ATOM     10  C   UNL     1      -0.692  10.971  19.194  0.00  0.00    +0.000 A 
ATOM     11  C   UNL     1      -1.653  11.870  19.668  0.00  0.00    +0.000 A 
ATOM     12  C   UNL     1      -2.921  11.894  19.082  0.00  0.00    +0.000 A 
ATOM     13  C   UNL     1      -3.229  11.029  18.023  0.00  0.00    +0.000 A 
ATOM     14  C   UNL     1      -4.593  11.024  17.398  0.00  0.00    +0.000 C 
ATOM     15  C   UNL     1      -2.250  10.148  17.546  0.00  0.00    +0.000 A 
ATOM     16  C   UNL     1      -0.978  10.131  18.117  0.00  0.00    +0.000 A 
ENDBRANCH   7  10
ENDBRANCH   4   7
BRANCH   1  17
ATOM     17  C   UNL     1       2.566   6.243  18.514  0.00  0.00    +0.000 C 
ATOM     18  C   UNL     1       1.534   5.989  17.410  0.00  0.00    +0.000 C 
BRANCH  17  25
ATOM     19  C   UNL     1       4.226   4.252  18.824  0.00  0.00    +0.000 A 
ATOM     20  C   UNL     1       4.566   3.090  19.539  0.00  0.00    +0.000 A 
ATOM     21  C   UNL     1       3.715   2.560  20.509  0.00  0.00    +0.000 A 
ATOM     22  C   UNL     1       2.515   3.193  20.787  0.00  0.00    +0.000 A 
ATOM     23 CL   UNL     1       1.460   2.537  21.975  0.00  0.00    +0.000 Cl
ATOM     24  C   UNL     1       2.171   4.364  20.116  0.00  0.00    +0.000 A 
ATOM     25  C   UNL     1       3.019   4.922  19.130  0.00  0.00    +0.000 A 
BRANCH  19  26
ATOM     26  O   UNL     1       5.045   4.786  17.848  0.00  0.00    +0.000 OA
BRANCH  26  28
ATOM     27  C   UNL     1       6.331   4.128  15.896  0.00  0.00    +0.000 C 
ATOM     28  C   UNL     1       4.971   4.132  16.570  0.00  0.00    +0.000 C 
ENDBRANCH  26  28
ENDBRANCH  19  26
ENDBRANCH  17  25
ENDBRANCH   1  17
TORSDOF 6
ENDMDL
MODEL 7
REMARK VINA RESULT:      -6.5      3.914      7.888
REMARK  Name = 
REMARK  10 active torsions:
REMARK  status: ('A' for Active; 'I' for Inactive)
REMARK    1  A    between atoms: C_1  and  C_2
REMARK    2  A    between atoms: C_2  and  O_3
REMARK    3  A    between atoms: O_3  and  C_4
REMARK    4  A    between atoms: C_10  and  C_11
REMARK    5  A    between atoms: C_11  and  C_12
REMARK    6  A    between atoms: C_11  and  N_13
REMARK    7  A    between atoms: N_16  and  C_17
REMARK    8  A    between atoms: N_16  and  S_18
REMARK    9  A    between atoms: S_18  and  C_21
REMARK   10  A    between atoms: C_24  and  C_25
REMARK                            x       y       z     vdW  Elec       q    Type
REMARK                         _______ _______ _______ _____ _____    ______ ____
ROOT
ATOM      1  N   UNL     1       3.585   6.539  18.349  0.00  0.00    +0.000 N 
ATOM      2  C   UNL     1       4.720   6.438  17.586  0.00  0.00    +0.000 C 
ATOM      3  O   UNL     1       4.830   7.072  16.544  0.00  0.00    +0.000 OA
ATOM      4  N   UNL     1       5.750   5.611  18.088  0.00  0.00    +0.000 N 
ATOM      5  C   UNL     1       5.658   4.680  19.221  0.00  0.00    +0.000 C 
ATOM      6  H   UNL     1       3.552   6.142  19.271  0.00  0.00    +0.000 HD
ENDROOT
BRANCH   4   7
ATOM      7  S   UNL     1       7.220   5.460  17.229  0.00  0.00    +0.000 S 
ATOM      8  O   UNL     1       7.726   6.792  16.951  0.00  0.00    +0.000 OA
ATOM      9  O   UNL     1       8.070   4.492  17.895  0.00  0.00    +0.000 OA
BRANCH   7  10
ATOM     10  C   UNL     1       6.700   4.791  15.664  0.00  0.00    +0.000 A 
ATOM     11  C   UNL     1       7.357   5.175  14.491  0.00  0.00    +0.000 A 
ATOM     12  C   UNL     1       6.949   4.640  13.267  0.00  0.00    +0.000 A 
ATOM     13  C   UNL     1       5.894   3.719  13.212  0.00  0.00    +0.000 A 
ATOM     14  C   UNL     1       5.427   3.152  11.904  0.00  0.00    +0.000 C 
ATOM     15  C   UNL     1       5.260   3.328  14.398  0.00  0.00    +0.000 A 
ATOM     16  C   UNL     1       5.672   3.847  15.624  0.00  0.00    +0.000 A 
ENDBRANCH   7  10
ENDBRANCH   4   7
BRANCH   1  17
ATOM     17  C   UNL     1       2.545   7.509  18.070  0.00  0.00    +0.000 C 
ATOM     18  C   UNL     1       3.122   8.747  17.375  0.00  0.00    +0.000 C 
BRANCH  17  25
ATOM     19  C   UNL     1       1.607   7.122  20.476  0.00  0.00    +0.000 A 
ATOM     20  C   UNL     1       0.944   7.661  21.592  0.00  0.00    +0.000 A 
ATOM     21  C   UNL     1       0.397   8.944  21.562  0.00  0.00    +0.000 A 
ATOM     22  C   UNL     1       0.518   9.713  20.416  0.00  0.00    +0.000 A 
ATOM     23 CL   UNL     1      -0.162  11.291  20.373  0.00  0.00    +0.000 Cl
ATOM     24  C   UNL     1       1.200   9.214  19.309  0.00  0.00    +0.000 A 
ATOM     25  C   UNL     1       1.765   7.917  19.317  0.00  0.00    +0.000 A 
BRANCH  19  26
ATOM     26  O   UNL     1       2.142   5.849  20.477  0.00  0.00    +0.000 OA
BRANCH  26  28
ATOM     27  C   UNL     1       1.427   3.774  19.437  0.00  0.00    +0.000 C 
ATOM     28  C   UNL     1       1.176   4.786  20.540  0.00  0.00    +0.000 C 
ENDBRANCH  26  28
ENDBRANCH  19  26
ENDBRANCH  17  25
ENDBRANCH   1  17
TORSDOF 6
ENDMDL
MODEL 8
REMARK VINA RESULT:      -6.4      2.509      3.403
REMARK  Name = 
REMARK  10 active torsions:
REMARK  status: ('A' for Active; 'I' for Inactive)
REMARK    1  A    between atoms: C_1  and  C_2
REMARK    2  A    between atoms: C_2  and  O_3
REMARK    3  A    between atoms: O_3  and  C_4
REMARK    4  A    between atoms: C_10  and  C_11
REMARK    5  A    between atoms: C_11  and  C_12
REMARK    6  A    between atoms: C_11  and  N_13
REMARK    7  A    between atoms: N_16  and  C_17
REMARK    8  A    between atoms: N_16  and  S_18
REMARK    9  A    between atoms: S_18  and  C_21
REMARK   10  A    between atoms: C_24  and  C_25
REMARK                            x       y       z     vdW  Elec       q    Type
REMARK                         _______ _______ _______ _____ _____    ______ ____
ROOT
ATOM      1  N   UNL     1       2.345   7.393  19.113  0.00  0.00    +0.000 N 
ATOM      2  C   UNL     1       1.615   8.516  18.818  0.00  0.00    +0.000 C 
ATOM      3  O   UNL     1       1.492   8.896  17.661  0.00  0.00    +0.000 OA
ATOM      4  N   UNL     1       0.990   9.169  19.905  0.00  0.00    +0.000 N 
ATOM      5  C   UNL     1       1.211   8.907  21.333  0.00  0.00    +0.000 C 
ATOM      6  H   UNL     1       2.324   6.997  20.035  0.00  0.00    +0.000 HD
ENDROOT
BRANCH   4   7
ATOM      7  S   UNL     1       0.022  10.550  19.629  0.00  0.00    +0.000 S 
ATOM      8  O   UNL     1      -0.543  10.455  18.295  0.00  0.00    +0.000 OA
ATOM      9  O   UNL     1      -0.853  10.760  20.767  0.00  0.00    +0.000 OA
BRANCH   7  10
ATOM     10  C   UNL     1       1.216  11.868  19.569  0.00  0.00    +0.000 A 
ATOM     11  C   UNL     1       1.536  12.570  20.736  0.00  0.00    +0.000 A 
ATOM     12  C   UNL     1       2.480  13.598  20.684  0.00  0.00    +0.000 A 
ATOM     13  C   UNL     1       3.108  13.922  19.474  0.00  0.00    +0.000 A 
ATOM     14  C   UNL     1       4.108  15.039  19.394  0.00  0.00    +0.000 C 
ATOM     15  C   UNL     1       2.793  13.196  18.318  0.00  0.00    +0.000 A 
ATOM     16  C   UNL     1       1.863  12.159  18.367  0.00  0.00    +0.000 A 
ENDBRANCH   7  10
ENDBRANCH   4   7
BRANCH   1  17
ATOM     17  C   UNL     1       2.857   6.508  18.085  0.00  0.00    +0.000 C 
ATOM     18  C   UNL     1       1.977   5.261  17.946  0.00  0.00    +0.000 C 
BRANCH  17  25
ATOM     19  C   UNL     1       4.737   4.979  19.055  0.00  0.00    +0.000 A 
ATOM     20  C   UNL     1       6.108   4.673  19.110  0.00  0.00    +0.000 A 
ATOM     21  C   UNL     1       7.059   5.486  18.493  0.00  0.00    +0.000 A 
ATOM     22  C   UNL     1       6.649   6.613  17.799  0.00  0.00    +0.000 A 
ATOM     23 CL   UNL     1       7.818   7.622  17.045  0.00  0.00    +0.000 Cl
ATOM     24  C   UNL     1       5.293   6.919  17.703  0.00  0.00    +0.000 A 
ATOM     25  C   UNL     1       4.311   6.108  18.319  0.00  0.00    +0.000 A 
BRANCH  19  26
ATOM     26  O   UNL     1       3.780   4.198  19.673  0.00  0.00    +0.000 OA
BRANCH  26  28
ATOM     27  C   UNL     1       3.545   2.034  18.595  0.00  0.00    +0.000 C 
ATOM     28  C   UNL     1       4.109   2.802  19.776  0.00  0.00    +0.000 C 
ENDBRANCH  26  28
ENDBRANCH  19  26
ENDBRANCH  17  25
ENDBRANCH   1  17
TORSDOF 6
ENDMDL
MODEL 9
REMARK VINA RESULT:      -6.4      2.414      3.518
REMARK  Name = 
REMARK  10 active torsions:
REMARK  status: ('A' for Active; 'I' for Inactive)
REMARK    1  A    between atoms: C_1  and  C_2
REMARK    2  A    between atoms: C_2  and  O_3
REMARK    3  A    between atoms: O_3  and  C_4
REMARK    4  A    between atoms: C_10  and  C_11
REMARK    5  A    between atoms: C_11  and  C_12
REMARK    6  A    between atoms: C_11  and  N_13
REMARK    7  A    between atoms: N_16  and  C_17
REMARK    8  A    between atoms: N_16  and  S_18
REMARK    9  A    between atoms: S_18  and  C_21
REMARK   10  A    between atoms: C_24  and  C_25
REMARK                            x       y       z     vdW  Elec       q    Type
REMARK                         _______ _______ _______ _____ _____    ______ ____
ROOT
ATOM      1  N   UNL     1       1.445   9.381  19.427  0.00  0.00    +0.000 N 
ATOM      2  C   UNL     1       0.358  10.191  19.221  0.00  0.00    +0.000 C 
ATOM      3  O   UNL     1      -0.778   9.768  19.393  0.00  0.00    +0.000 OA
ATOM      4  N   UNL     1       0.626  11.528  18.849  0.00  0.00    +0.000 N 
ATOM      5  C   UNL     1       1.924  12.087  18.448  0.00  0.00    +0.000 C 
ATOM      6  H   UNL     1       2.373   9.763  19.433  0.00  0.00    +0.000 HD
ENDROOT
BRANCH   4   7
ATOM      7  S   UNL     1      -0.665  12.624  18.615  0.00  0.00    +0.000 S 
ATOM      8  O   UNL     1      -0.110  13.954  18.438  0.00  0.00    +0.000 OA
ATOM      9  O   UNL     1      -1.577  12.088  17.621  0.00  0.00    +0.000 OA
BRANCH   7  10
ATOM     10  C   UNL     1      -1.475  12.631  20.198  0.00  0.00    +0.000 A 
ATOM     11  C   UNL     1      -0.712  12.669  21.370  0.00  0.00    +0.000 A 
ATOM     12  C   UNL     1      -1.355  12.682  22.610  0.00  0.00    +0.000 A 
ATOM     13  C   UNL     1      -2.754  12.663  22.683  0.00  0.00    +0.000 A 
ATOM     14  C   UNL     1      -3.461  12.653  24.007  0.00  0.00    +0.000 C 
ATOM     15  C   UNL     1      -3.505  12.646  21.501  0.00  0.00    +0.000 A 
ATOM     16  C   UNL     1      -2.870  12.648  20.260  0.00  0.00    +0.000 A 
ENDBRANCH   7  10
ENDBRANCH   4   7
BRANCH   1  17
ATOM     17  C   UNL     1       1.330   8.062  20.016  0.00  0.00    +0.000 C 
ATOM     18  C   UNL     1       1.637   8.101  21.517  0.00  0.00    +0.000 C 
BRANCH  17  25
ATOM     19  C   UNL     1       2.207   5.638  19.600  0.00  0.00    +0.000 A 
ATOM     20  C   UNL     1       2.999   4.780  18.817  0.00  0.00    +0.000 A 
ATOM     21  C   UNL     1       3.819   5.274  17.803  0.00  0.00    +0.000 A 
ATOM     22  C   UNL     1       3.850   6.636  17.549  0.00  0.00    +0.000 A 
ATOM     23 CL   UNL     1       4.866   7.249  16.306  0.00  0.00    +0.000 Cl
ATOM     24  C   UNL     1       3.050   7.503  18.290  0.00  0.00    +0.000 A 
ATOM     25  C   UNL     1       2.208   7.025  19.322  0.00  0.00    +0.000 A 
BRANCH  19  26
ATOM     26  O   UNL     1       1.400   5.173  20.620  0.00  0.00    +0.000 OA
BRANCH  26  28
ATOM     27  C   UNL     1       1.719   2.994  21.644  0.00  0.00    +0.000 C 
ATOM     28  C   UNL     1       1.051   3.782  20.532  0.00  0.00    +0.000 C 
ENDBRANCH  26  28
ENDBRANCH  19  26
ENDBRANCH  17  25
ENDBRANCH   1  17
TORSDOF 6
ENDMDL
