MODEL 1
REMARK VINA RESULT:      -6.0      0.000      0.000
REMARK  Name = 
REMARK  12 active torsions:
REMARK  status: ('A' for Active; 'I' for Inactive)
REMARK    1  A    between atoms: C_1  and  C_2
REMARK    2  A    between atoms: C_2  and  O_3
REMARK    3  A    between atoms: O_3  and  C_4
REMARK    4  A    between atoms: C_4  and  C_5
REMARK    5  A    between atoms: C_5  and  O_6
REMARK    6  A    between atoms: O_6  and  C_7
REMARK    7  A    between atoms: C_7  and  C_9
REMARK    8  A    between atoms: C_9  and  C_10
REMARK    9  A    between atoms: C_12  and  C_13
REMARK   10  A    between atoms: C_12  and  N_14
REMARK   11  A    between atoms: N_14  and  C_15
REMARK   12  A    between atoms: C_15  and  C_16
REMARK                            x       y       z     vdW  Elec       q    Type
REMARK                         _______ _______ _______ _____ _____    ______ ____
ROOT
ATOM      1  C   UNL     1       6.038   5.909  16.605  0.00  0.00    +0.000 C 
ATOM      2  C   UNL     1       4.766   5.705  17.050  0.00  0.00    +0.000 C 
ATOM      3  C   UNL     1       4.051   6.701  17.954  0.00  0.00    +0.000 C 
ENDROOT
BRANCH   1   4
ATOM      4  C   UNL     1       6.746   5.045  15.626  0.00  0.00    +0.000 C 
ATOM      5  O   UNL     1       7.843   4.547  15.816  0.00  0.00    +0.000 OA
BRANCH   4   6
ATOM      6  O   UNL     1       6.069   5.008  14.446  0.00  0.00    +0.000 OA
BRANCH   6   7
ATOM      7  C   UNL     1       6.003   3.725  13.833  0.00  0.00    +0.000 C 
BRANCH   7   8
ATOM      8  C   UNL     1       6.588   3.706  12.427  0.00  0.00    +0.000 C 
BRANCH   8   9
ATOM      9  O   UNL     1       5.676   2.978  11.607  0.00  0.00    +0.000 OA
BRANCH   9  11
ATOM     10  C   UNL     1       3.554   3.274  10.578  0.00  0.00    +0.000 C 
ATOM     11  C   UNL     1       4.316   3.285  11.888  0.00  0.00    +0.000 C 
ENDBRANCH   9  11
ENDBRANCH   8   9
ENDBRANCH   7   8
ENDBRANCH   6   7
ENDBRANCH   4   6
ENDBRANCH   1   4
BRANCH   1  12
ATOM     12  C   UNL     1       6.758   7.180  17.024  0.00  0.00    +0.000 C 
ATOM     13  N   UNL     1       7.356   8.235  17.370  0.00  0.00    +0.000 NA
ENDBRANCH   1  12
BRANCH   2  14
ATOM     14  N   UNL     1       3.908   4.660  16.675  0.00  0.00    +0.000 N 
ATOM     15  H   UNL     1       3.802   4.643  15.656  0.00  0.00    +0.000 HD
BRANCH  14  16
ATOM     16  C   UNL     1       4.148   3.278  17.103  0.00  0.00    +0.000 C 
BRANCH  16  17
ATOM     17  C   UNL     1       3.665   3.009  18.492  0.00  0.00    +0.000 A 
ATOM     18  C   UNL     1       4.397   2.639  19.600  0.00  0.00    +0.000 A 
ATOM     19  N   UNL     1       3.675   2.478  20.767  0.00  0.00    +0.000 NA
ATOM     20  C   UNL     1       2.421   2.754  20.516  0.00  0.00    +0.000 A 
ATOM     21 CL   UNL     1       1.207   2.699  21.729  0.00  0.00    +0.000 Cl
ATOM     22  S   UNL     1       2.015   3.172  18.923  0.00  0.00    +0.000 S 
ENDBRANCH  16  17
ENDBRANCH  14  16
ENDBRANCH   2  14
TORSDOF 10
ENDMDL
MODEL 2
REMARK VINA RESULT:      -5.8      4.252      6.526
REMARK  Name = 
REMARK  12 active torsions:
REMARK  status: ('A' for Active; 'I' for Inactive)
REMARK    1  A    between atoms: C_1  and  C_2
REMARK    2  A    between atoms: C_2  and  O_3
REMARK    3  A    between atoms: O_3  and  C_4
REMARK    4  A    between atoms: C_4  and  C_5
REMARK    5  A    between atoms: C_5  and  O_6
REMARK    6  A    between atoms: O_6  and  C_7
REMARK    7  A    between atoms: C_7  and  C_9
REMARK    8  A    between atoms: C_9  and  C_10
REMARK    9  A    between atoms: C_12  and  C_13
REMARK   10  A    between atoms: C_12  and  N_14
REMARK   11  A    between atoms: N_14  and  C_15
REMARK   12  A    between atoms: C_15  and  C_16
REMARK                            x       y       z     vdW  Elec       q    Type
REMARK                         _______ _______ _______ _____ _____    ______ ____
ROOT
ATOM      1  C   UNL     1       2.110   6.313  19.807  0.00  0.00    +0.000 C 
ATOM      2  C   UNL     1       2.921   6.384  18.714  0.00  0.00    +0.000 C 
ATOM      3  C   UNL     1       3.276   7.709  18.050  0.00  0.00    +0.000 C 
ENDROOT
BRANCH   1   4
ATOM      4  C   UNL     1       1.824   5.074  20.575  0.00  0.00    +0.000 C 
ATOM      5  O   UNL     1       2.484   4.689  21.527  0.00  0.00    +0.000 OA
BRANCH   4   6
ATOM      6  O   UNL     1       0.824   4.366  19.984  0.00  0.00    +0.000 OA
BRANCH   6   7
ATOM      7  C   UNL     1       1.022   2.956  19.959  0.00  0.00    +0.000 C 
BRANCH   7   8
ATOM      8  C   UNL     1       1.304   2.420  18.562  0.00  0.00    +0.000 C 
BRANCH   8   9
ATOM      9  O   UNL     1       2.683   2.663  18.294  0.00  0.00    +0.000 OA
BRANCH   9  11
ATOM     10  C   UNL     1       4.396   2.121  19.850  0.00  0.00    +0.000 C 
ATOM     11  C   UNL     1       3.524   1.600  18.725  0.00  0.00    +0.000 C 
ENDBRANCH   9  11
ENDBRANCH   8   9
ENDBRANCH   7   8
ENDBRANCH   6   7
ENDBRANCH   4   6
ENDBRANCH   1   4
BRANCH   1  12
ATOM     12  C   UNL     1       1.551   7.605  20.382  0.00  0.00    +0.000 C 
ATOM     13  N   UNL     1       1.087   8.676  20.858  0.00  0.00    +0.000 NA
ENDBRANCH   1  12
BRANCH   2  14
ATOM     14  N   UNL     1       3.619   5.321  18.122  0.00  0.00    +0.000 N 
ATOM     15  H   UNL     1       3.395   5.268  17.124  0.00  0.00    +0.000 HD
BRANCH  14  16
ATOM     16  C   UNL     1       5.076   5.199  18.241  0.00  0.00    +0.000 C 
BRANCH  16  17
ATOM     17  C   UNL     1       5.761   5.111  16.916  0.00  0.00    +0.000 A 
ATOM     18  C   UNL     1       6.923   5.729  16.506  0.00  0.00    +0.000 A 
ATOM     19  N   UNL     1       7.331   5.443  15.217  0.00  0.00    +0.000 NA
ATOM     20  C   UNL     1       6.479   4.598  14.695  0.00  0.00    +0.000 A 
ATOM     21 CL   UNL     1       6.659   3.975  13.105  0.00  0.00    +0.000 Cl
ATOM     22  S   UNL     1       5.157   4.129  15.648  0.00  0.00    +0.000 S 
ENDBRANCH  16  17
ENDBRANCH  14  16
ENDBRANCH   2  14
TORSDOF 10
ENDMDL
MODEL 3
REMARK VINA RESULT:      -5.8      4.126      6.075
REMARK  Name = 
REMARK  12 active torsions:
REMARK  status: ('A' for Active; 'I' for Inactive)
REMARK    1  A    between atoms: C_1  and  C_2
REMARK    2  A    between atoms: C_2  and  O_3
REMARK    3  A    between atoms: O_3  and  C_4
REMARK    4  A    between atoms: C_4  and  C_5
REMARK    5  A    between atoms: C_5  and  O_6
REMARK    6  A    between atoms: O_6  and  C_7
REMARK    7  A    between atoms: C_7  and  C_9
REMARK    8  A    between atoms: C_9  and  C_10
REMARK    9  A    between atoms: C_12  and  C_13
REMARK   10  A    between atoms: C_12  and  N_14
REMARK   11  A    between atoms: N_14  and  C_15
REMARK   12  A    between atoms: C_15  and  C_16
REMARK                            x       y       z     vdW  Elec       q    Type
REMARK                         _______ _______ _______ _____ _____    ______ ____
ROOT
ATOM      1  C   UNL     1       5.397   4.833  18.052  0.00  0.00    +0.000 C 
ATOM      2  C   UNL     1       4.862   6.049  17.750  0.00  0.00    +0.000 C 
ATOM      3  C   UNL     1       5.643   7.116  16.993  0.00  0.00    +0.000 C 
ENDROOT
BRANCH   1   4
ATOM      4  C   UNL     1       4.654   3.707  18.675  0.00  0.00    +0.000 C 
ATOM      5  O   UNL     1       5.082   3.024  19.590  0.00  0.00    +0.000 OA
BRANCH   4   6
ATOM      6  O   UNL     1       3.505   3.458  17.991  0.00  0.00    +0.000 OA
BRANCH   6   7
ATOM      7  C   UNL     1       2.994   2.137  18.137  0.00  0.00    +0.000 C 
BRANCH   7   8
ATOM      8  C   UNL     1       1.628   2.098  18.806  0.00  0.00    +0.000 C 
BRANCH   8   9
ATOM      9  O   UNL     1       1.855   2.019  20.212  0.00  0.00    +0.000 OA
BRANCH   9  11
ATOM     10  C   UNL     1       2.158   4.070  21.375  0.00  0.00    +0.000 C 
ATOM     11  C   UNL     1       1.155   3.020  20.940  0.00  0.00    +0.000 C 
ENDBRANCH   9  11
ENDBRANCH   8   9
ENDBRANCH   7   8
ENDBRANCH   6   7
ENDBRANCH   4   6
ENDBRANCH   1   4
BRANCH   1  12
ATOM     12  C   UNL     1       6.820   4.535  17.608  0.00  0.00    +0.000 C 
ATOM     13  N   UNL     1       7.999   4.287  17.237  0.00  0.00    +0.000 NA
ENDBRANCH   1  12
BRANCH   2  14
ATOM     14  N   UNL     1       3.537   6.456  17.970  0.00  0.00    +0.000 N 
ATOM     15  H   UNL     1       3.290   6.323  18.956  0.00  0.00    +0.000 HD
BRANCH  14  16
ATOM     16  C   UNL     1       3.071   7.794  17.588  0.00  0.00    +0.000 C 
BRANCH  16  17
ATOM     17  C   UNL     1       2.160   8.402  18.604  0.00  0.00    +0.000 A 
ATOM     18  C   UNL     1       1.429   9.568  18.514  0.00  0.00    +0.000 A 
ATOM     19  N   UNL     1       0.652   9.873  19.615  0.00  0.00    +0.000 NA
ATOM     20  C   UNL     1       0.797   8.918  20.498  0.00  0.00    +0.000 A 
ATOM     21 CL   UNL     1      -0.037   8.920  21.998  0.00  0.00    +0.000 Cl
ATOM     22  S   UNL     1       1.860   7.653  20.115  0.00  0.00    +0.000 S 
ENDBRANCH  16  17
ENDBRANCH  14  16
ENDBRANCH   2  14
TORSDOF 10
ENDMDL
MODEL 4
REMARK VINA RESULT:      -5.8      4.371      7.444
REMARK  Name = 
REMARK  12 active torsions:
REMARK  status: ('A' for Active; 'I' for Inactive)
REMARK    1  A    between atoms: C_1  and  C_2
REMARK    2  A    between atoms: C_2  and  O_3
REMARK    3  A    between atoms: O_3  and  C_4
REMARK    4  A    between atoms: C_4  and  C_5
REMARK    5  A    between atoms: C_5  and  O_6
REMARK    6  A    between atoms: O_6  and  C_7
REMARK    7  A    between atoms: C_7  and  C_9
REMARK    8  A    between atoms: C_9  and  C_10
REMARK    9  A    between atoms: C_12  and  C_13
REMARK   10  A    between atoms: C_12  and  N_14
REMARK   11  A    between atoms: N_14  and  C_15
REMARK   12  A    between atoms: C_15  and  C_16
REMARK                            x       y       z     vdW  Elec       q    Type
REMARK                         _______ _______ _______ _____ _____    ______ ____
ROOT
ATOM      1  C   UNL     1       2.844   3.729  20.107  0.00  0.00    +0.000 C 
ATOM      2  C   UNL     1       3.965   3.135  19.607  0.00  0.00    +0.000 C 
ATOM      3  C   UNL     1       4.552   1.867  20.213  0.00  0.00    +0.000 C 
ENDROOT
BRANCH   1   4
ATOM      4  C   UNL     1       2.150   4.889  19.492  0.00  0.00    +0.000 C 
ATOM      5  O   UNL     1       2.014   5.051  18.291  0.00  0.00    +0.000 OA
BRANCH   4   6
ATOM      6  O   UNL     1       1.820   5.805  20.442  0.00  0.00    +0.000 OA
BRANCH   6   7
ATOM      7  C   UNL     1       2.084   7.159  20.088  0.00  0.00    +0.000 C 
BRANCH   7   8
ATOM      8  C   UNL     1       1.291   8.158  20.920  0.00  0.00    +0.000 C 
BRANCH   8   9
ATOM      9  O   UNL     1       1.235   9.370  20.172  0.00  0.00    +0.000 OA
BRANCH   9  11
ATOM     10  C   UNL     1       0.246   9.838  18.061  0.00  0.00    +0.000 C 
ATOM     11  C   UNL     1       1.401   9.164  18.774  0.00  0.00    +0.000 C 
ENDBRANCH   9  11
ENDBRANCH   8   9
ENDBRANCH   7   8
ENDBRANCH   6   7
ENDBRANCH   4   6
ENDBRANCH   1   4
BRANCH   1  12
ATOM     12  C   UNL     1       2.158   3.092  21.304  0.00  0.00    +0.000 C 
ATOM     13  N   UNL     1       1.588   2.563  22.297  0.00  0.00    +0.000 NA
ENDBRANCH   1  12
BRANCH   2  14
ATOM     14  N   UNL     1       4.658   3.506  18.445  0.00  0.00    +0.000 N 
ATOM     15  H   UNL     1       3.994   3.742  17.702  0.00  0.00    +0.000 HD
BRANCH  14  16
ATOM     16  C   UNL     1       5.675   4.563  18.463  0.00  0.00    +0.000 C 
BRANCH  16  17
ATOM     17  C   UNL     1       6.249   4.838  17.110  0.00  0.00    +0.000 A 
ATOM     18  C   UNL     1       7.212   5.758  16.756  0.00  0.00    +0.000 A 
ATOM     19  N   UNL     1       7.562   5.774  15.419  0.00  0.00    +0.000 NA
ATOM     20  C   UNL     1       6.871   4.849  14.802  0.00  0.00    +0.000 A 
ATOM     21 CL   UNL     1       7.047   4.535  13.124  0.00  0.00    +0.000 Cl
ATOM     22  S   UNL     1       5.766   3.952  15.725  0.00  0.00    +0.000 S 
ENDBRANCH  16  17
ENDBRANCH  14  16
ENDBRANCH   2  14
TORSDOF 10
ENDMDL
MODEL 5
REMARK VINA RESULT:      -5.8      4.039      6.330
REMARK  Name = 
REMARK  12 active torsions:
REMARK  status: ('A' for Active; 'I' for Inactive)
REMARK    1  A    between atoms: C_1  and  C_2
REMARK    2  A    between atoms: C_2  and  O_3
REMARK    3  A    between atoms: O_3  and  C_4
REMARK    4  A    between atoms: C_4  and  C_5
REMARK    5  A    between atoms: C_5  and  O_6
REMARK    6  A    between atoms: O_6  and  C_7
REMARK    7  A    between atoms: C_7  and  C_9
REMARK    8  A    between atoms: C_9  and  C_10
REMARK    9  A    between atoms: C_12  and  C_13
REMARK   10  A    between atoms: C_12  and  N_14
REMARK   11  A    between atoms: N_14  and  C_15
REMARK   12  A    between atoms: C_15  and  C_16
REMARK                            x       y       z     vdW  Elec       q    Type
REMARK                         _______ _______ _______ _____ _____    ______ ____
ROOT
ATOM      1  C   UNL     1       4.029   4.430  17.083  0.00  0.00    +0.000 C 
ATOM      2  C   UNL     1       3.793   5.709  17.491  0.00  0.00    +0.000 C 
ATOM      3  C   UNL     1       4.758   6.849  17.189  0.00  0.00    +0.000 C 
ENDROOT
BRANCH   1   4
ATOM      4  C   UNL     1       3.077   3.300  17.234  0.00  0.00    +0.000 C 
ATOM      5  O   UNL     1       1.865   3.407  17.149  0.00  0.00    +0.000 OA
BRANCH   4   6
ATOM      6  O   UNL     1       3.733   2.172  17.617  0.00  0.00    +0.000 OA
BRANCH   6   7
ATOM      7  C   UNL     1       3.381   1.683  18.908  0.00  0.00    +0.000 C 
BRANCH   7   8
ATOM      8  C   UNL     1       4.058   2.446  20.038  0.00  0.00    +0.000 C 
BRANCH   8   9
ATOM      9  O   UNL     1       3.071   2.658  21.045  0.00  0.00    +0.000 OA
BRANCH   9  11
ATOM     10  C   UNL     1       1.019   3.760  20.568  0.00  0.00    +0.000 C 
ATOM     11  C   UNL     1       1.748   2.431  20.577  0.00  0.00    +0.000 C 
ENDBRANCH   9  11
ENDBRANCH   8   9
ENDBRANCH   7   8
ENDBRANCH   6   7
ENDBRANCH   4   6
ENDBRANCH   1   4
BRANCH   1  12
ATOM     12  C   UNL     1       5.295   4.142  16.293  0.00  0.00    +0.000 C 
ATOM     13  N   UNL     1       6.345   3.904  15.636  0.00  0.00    +0.000 NA
ENDBRANCH   1  12
BRANCH   2  14
ATOM     14  N   UNL     1       2.633   6.184  18.120  0.00  0.00    +0.000 N 
ATOM     15  H   UNL     1       1.900   5.468  18.088  0.00  0.00    +0.000 HD
BRANCH  14  16
ATOM     16  C   UNL     1       2.661   6.709  19.489  0.00  0.00    +0.000 C 
BRANCH  16  17
ATOM     17  C   UNL     1       1.903   7.989  19.636  0.00  0.00    +0.000 A 
ATOM     18  C   UNL     1       1.654   8.954  18.683  0.00  0.00    +0.000 A 
ATOM     19  N   UNL     1       0.900  10.032  19.106  0.00  0.00    +0.000 NA
ATOM     20  C   UNL     1       0.579   9.841  20.361  0.00  0.00    +0.000 A 
ATOM     21 CL   UNL     1      -0.387  10.954  21.241  0.00  0.00    +0.000 Cl
ATOM     22  S   UNL     1       1.162   8.438  21.114  0.00  0.00    +0.000 S 
ENDBRANCH  16  17
ENDBRANCH  14  16
ENDBRANCH   2  14
TORSDOF 10
ENDMDL
MODEL 6
REMARK VINA RESULT:      -5.8      1.587      1.886
REMARK  Name = 
REMARK  12 active torsions:
REMARK  status: ('A' for Active; 'I' for Inactive)
REMARK    1  A    between atoms: C_1  and  C_2
REMARK    2  A    between atoms: C_2  and  O_3
REMARK    3  A    between atoms: O_3  and  C_4
REMARK    4  A    between atoms: C_4  and  C_5
REMARK    5  A    between atoms: C_5  and  O_6
REMARK    6  A    between atoms: O_6  and  C_7
REMARK    7  A    between atoms: C_7  and  C_9
REMARK    8  A    between atoms: C_9  and  C_10
REMARK    9  A    between atoms: C_12  and  C_13
REMARK   10  A    between atoms: C_12  and  N_14
REMARK   11  A    between atoms: N_14  and  C_15
REMARK   12  A    between atoms: C_15  and  C_16
REMARK                            x       y       z     vdW  Elec       q    Type
REMARK                         _______ _______ _______ _____ _____    ______ ____
ROOT
ATOM      1  C   UNL     1       6.117   6.135  17.505  0.00  0.00    +0.000 C 
ATOM      2  C   UNL     1       4.765   6.274  17.403  0.00  0.00    +0.000 C 
ATOM      3  C   UNL     1       4.100   7.630  17.198  0.00  0.00    +0.000 C 
ENDROOT
BRANCH   1   4
ATOM      4  C   UNL     1       6.836   4.837  17.579  0.00  0.00    +0.000 C 
ATOM      5  O   UNL     1       6.952   4.173  18.597  0.00  0.00    +0.000 OA
BRANCH   4   6
ATOM      6  O   UNL     1       7.460   4.570  16.401  0.00  0.00    +0.000 OA
BRANCH   6   7
ATOM      7  C   UNL     1       6.667   3.872  15.446  0.00  0.00    +0.000 C 
BRANCH   7   8
ATOM      8  C   UNL     1       6.652   4.544  14.080  0.00  0.00    +0.000 C 
BRANCH   8   9
ATOM      9  O   UNL     1       5.766   3.790  13.255  0.00  0.00    +0.000 OA
BRANCH   9  11
ATOM     10  C   UNL     1       5.627   2.143  11.547  0.00  0.00    +0.000 C 
ATOM     11  C   UNL     1       6.371   3.367  12.039  0.00  0.00    +0.000 C 
ENDBRANCH   9  11
ENDBRANCH   8   9
ENDBRANCH   7   8
ENDBRANCH   6   7
ENDBRANCH   4   6
ENDBRANCH   1   4
BRANCH   1  12
ATOM     12  C   UNL     1       6.985   7.379  17.403  0.00  0.00    +0.000 C 
ATOM     13  N   UNL     1       7.703   8.411  17.317  0.00  0.00    +0.000 NA
ENDBRANCH   1  12
BRANCH   2  14
ATOM     14  N   UNL     1       3.821   5.237  17.353  0.00  0.00    +0.000 N 
ATOM     15  H   UNL     1       4.213   4.387  17.770  0.00  0.00    +0.000 HD
BRANCH  14  16
ATOM     16  C   UNL     1       2.471   5.402  17.902  0.00  0.00    +0.000 C 
BRANCH  16  17
ATOM     17  C   UNL     1       2.085   4.297  18.832  0.00  0.00    +0.000 A 
ATOM     18  C   UNL     1       1.867   2.967  18.542  0.00  0.00    +0.000 A 
ATOM     19  N   UNL     1       1.537   2.166  19.619  0.00  0.00    +0.000 NA
ATOM     20  C   UNL     1       1.537   2.907  20.698  0.00  0.00    +0.000 A 
ATOM     21 CL   UNL     1       1.202   2.266  22.254  0.00  0.00    +0.000 Cl
ATOM     22  S   UNL     1       1.878   4.559  20.513  0.00  0.00    +0.000 S 
ENDBRANCH  16  17
ENDBRANCH  14  16
ENDBRANCH   2  14
TORSDOF 10
ENDMDL
MODEL 7
REMARK VINA RESULT:      -5.8      4.777      7.646
REMARK  Name = 
REMARK  12 active torsions:
REMARK  status: ('A' for Active; 'I' for Inactive)
REMARK    1  A    between atoms: C_1  and  C_2
REMARK    2  A    between atoms: C_2  and  O_3
REMARK    3  A    between atoms: O_3  and  C_4
REMARK    4  A    between atoms: C_4  and  C_5
REMARK    5  A    between atoms: C_5  and  O_6
REMARK    6  A    between atoms: O_6  and  C_7
REMARK    7  A    between atoms: C_7  and  C_9
REMARK    8  A    between atoms: C_9  and  C_10
REMARK    9  A    between atoms: C_12  and  C_13
REMARK   10  A    between atoms: C_12  and  N_14
REMARK   11  A    between atoms: N_14  and  C_15
REMARK   12  A    between atoms: C_15  and  C_16
REMARK                            x       y       z     vdW  Elec       q    Type
REMARK                         _______ _______ _______ _____ _____    ______ ____
ROOT
ATOM      1  C   UNL     1       2.429   3.173  19.828  0.00  0.00    +0.000 C 
ATOM      2  C   UNL     1       3.568   3.310  19.093  0.00  0.00    +0.000 C 
ATOM      3  C   UNL     1       3.652   2.873  17.635  0.00  0.00    +0.000 C 
ENDROOT
BRANCH   1   4
ATOM      4  C   UNL     1       2.240   3.689  21.208  0.00  0.00    +0.000 C 
ATOM      5  O   UNL     1       1.765   3.040  22.125  0.00  0.00    +0.000 OA
BRANCH   4   6
ATOM      6  O   UNL     1       2.535   5.016  21.266  0.00  0.00    +0.000 OA
BRANCH   6   7
ATOM      7  C   UNL     1       1.569   5.872  20.665  0.00  0.00    +0.000 C 
BRANCH   7   8
ATOM      8  C   UNL     1       2.193   6.978  19.825  0.00  0.00    +0.000 C 
BRANCH   8   9
ATOM      9  O   UNL     1       1.748   8.217  20.371  0.00  0.00    +0.000 OA
BRANCH   9  11
ATOM     10  C   UNL     1      -0.149   9.267  21.345  0.00  0.00    +0.000 C 
ATOM     11  C   UNL     1       0.755   8.052  21.376  0.00  0.00    +0.000 C 
ENDBRANCH   9  11
ENDBRANCH   8   9
ENDBRANCH   7   8
ENDBRANCH   6   7
ENDBRANCH   4   6
ENDBRANCH   1   4
BRANCH   1  12
ATOM     12  C   UNL     1       1.202   2.573  19.162  0.00  0.00    +0.000 C 
ATOM     13  N   UNL     1       0.185   2.073  18.609  0.00  0.00    +0.000 NA
ENDBRANCH   1  12
BRANCH   2  14
ATOM     14  N   UNL     1       4.751   3.946  19.496  0.00  0.00    +0.000 N 
ATOM     15  H   UNL     1       5.544   3.302  19.404  0.00  0.00    +0.000 HD
BRANCH  14  16
ATOM     16  C   UNL     1       5.170   5.227  18.918  0.00  0.00    +0.000 C 
BRANCH  16  17
ATOM     17  C   UNL     1       6.025   5.063  17.703  0.00  0.00    +0.000 A 
ATOM     18  C   UNL     1       7.291   4.526  17.609  0.00  0.00    +0.000 A 
ATOM     19  N   UNL     1       7.832   4.487  16.338  0.00  0.00    +0.000 NA
ATOM     20  C   UNL     1       6.950   4.973  15.501  0.00  0.00    +0.000 A 
ATOM     21 CL   UNL     1       7.240   5.066  13.812  0.00  0.00    +0.000 Cl
ATOM     22  S   UNL     1       5.484   5.530  16.145  0.00  0.00    +0.000 S 
ENDBRANCH  16  17
ENDBRANCH  14  16
ENDBRANCH   2  14
TORSDOF 10
ENDMDL
MODEL 8
REMARK VINA RESULT:      -5.8      4.089      6.207
REMARK  Name = 
REMARK  12 active torsions:
REMARK  status: ('A' for Active; 'I' for Inactive)
REMARK    1  A    between atoms: C_1  and  C_2
REMARK    2  A    between atoms: C_2  and  O_3
REMARK    3  A    between atoms: O_3  and  C_4
REMARK    4  A    between atoms: C_4  and  C_5
REMARK    5  A    between atoms: C_5  and  O_6
REMARK    6  A    between atoms: O_6  and  C_7
REMARK    7  A    between atoms: C_7  and  C_9
REMARK    8  A    between atoms: C_9  and  C_10
REMARK    9  A    between atoms: C_12  and  C_13
REMARK   10  A    between atoms: C_12  and  N_14
REMARK   11  A    between atoms: N_14  and  C_15
REMARK   12  A    between atoms: C_15  and  C_16
REMARK                            x       y       z     vdW  Elec       q    Type
REMARK                         _______ _______ _______ _____ _____    ______ ____
ROOT
ATOM      1  C   UNL     1       4.005   4.496  17.063  0.00  0.00    +0.000 C 
ATOM      2  C   UNL     1       3.855   5.786  17.475  0.00  0.00    +0.000 C 
ATOM      3  C   UNL     1       4.892   6.861  17.172  0.00  0.00    +0.000 C 
ENDROOT
BRANCH   1   4
ATOM      4  C   UNL     1       2.981   3.430  17.214  0.00  0.00    +0.000 C 
ATOM      5  O   UNL     1       1.777   3.624  17.177  0.00  0.00    +0.000 OA
BRANCH   4   6
ATOM      6  O   UNL     1       3.568   2.247  17.540  0.00  0.00    +0.000 OA
BRANCH   6   7
ATOM      7  C   UNL     1       3.195   1.722  18.811  0.00  0.00    +0.000 C 
BRANCH   7   8
ATOM      8  C   UNL     1       4.052   2.257  19.950  0.00  0.00    +0.000 C 
BRANCH   8   9
ATOM      9  O   UNL     1       3.223   3.120  20.725  0.00  0.00    +0.000 OA
BRANCH   9  11
ATOM     10  C   UNL     1       1.031   4.026  20.568  0.00  0.00    +0.000 C 
ATOM     11  C   UNL     1       1.849   2.755  20.675  0.00  0.00    +0.000 C 
ENDBRANCH   9  11
ENDBRANCH   8   9
ENDBRANCH   7   8
ENDBRANCH   6   7
ENDBRANCH   4   6
ENDBRANCH   1   4
BRANCH   1  12
ATOM     12  C   UNL     1       5.247   4.127  16.268  0.00  0.00    +0.000 C 
ATOM     13  N   UNL     1       6.276   3.820  15.607  0.00  0.00    +0.000 NA
ENDBRANCH   1  12
BRANCH   2  14
ATOM     14  N   UNL     1       2.730   6.335  18.109  0.00  0.00    +0.000 N 
ATOM     15  H   UNL     1       2.731   6.082  19.102  0.00  0.00    +0.000 HD
BRANCH  14  16
ATOM     16  C   UNL     1       2.428   7.768  18.031  0.00  0.00    +0.000 C 
BRANCH  16  17
ATOM     17  C   UNL     1       1.786   8.294  19.274  0.00  0.00    +0.000 A 
ATOM     18  C   UNL     1       1.754   7.727  20.530  0.00  0.00    +0.000 A 
ATOM     19  N   UNL     1       1.094   8.458  21.500  0.00  0.00    +0.000 NA
ATOM     20  C   UNL     1       0.667   9.569  20.956  0.00  0.00    +0.000 A 
ATOM     21 CL   UNL     1      -0.179  10.764  21.853  0.00  0.00    +0.000 Cl
ATOM     22  S   UNL     1       0.970   9.800  19.304  0.00  0.00    +0.000 S 
ENDBRANCH  16  17
ENDBRANCH  14  16
ENDBRANCH   2  14
TORSDOF 10
ENDMDL
MODEL 9
REMARK VINA RESULT:      -5.7      3.871      5.561
REMARK  Name = 
REMARK  12 active torsions:
REMARK  status: ('A' for Active; 'I' for Inactive)
REMARK    1  A    between atoms: C_1  and  C_2
REMARK    2  A    between atoms: C_2  and  O_3
REMARK    3  A    between atoms: O_3  and  C_4
REMARK    4  A    between atoms: C_4  and  C_5
REMARK    5  A    between atoms: C_5  and  O_6
REMARK    6  A    between atoms: O_6  and  C_7
REMARK    7  A    between atoms: C_7  and  C_9
REMARK    8  A    between atoms: C_9  and  C_10
REMARK    9  A    between atoms: C_12  and  C_13
REMARK   10  A    between atoms: C_12  and  N_14
REMARK   11  A    between atoms: N_14  and  C_15
REMARK   12  A    between atoms: C_15  and  C_16
REMARK                            x       y       z     vdW  Elec       q    Type
REMARK                         _______ _______ _______ _____ _____    ______ ____
ROOT
ATOM      1  C   UNL     1       3.874   4.478  19.243  0.00  0.00    +0.000 C 
ATOM      2  C   UNL     1       2.823   5.210  19.709  0.00  0.00    +0.000 C 
ATOM      3  C   UNL     1       1.480   4.577  20.051  0.00  0.00    +0.000 C 
ENDROOT
BRANCH   1   4
ATOM      4  C   UNL     1       5.242   5.007  19.009  0.00  0.00    +0.000 C 
ATOM      5  O   UNL     1       6.245   4.588  19.564  0.00  0.00    +0.000 OA
BRANCH   4   6
ATOM      6  O   UNL     1       5.198   6.107  18.210  0.00  0.00    +0.000 OA
BRANCH   6   7
ATOM      7  C   UNL     1       5.508   5.866  16.840  0.00  0.00    +0.000 C 
BRANCH   7   8
ATOM      8  C   UNL     1       6.999   5.939  16.545  0.00  0.00    +0.000 C 
BRANCH   8   9
ATOM      9  O   UNL     1       7.345   4.745  15.848  0.00  0.00    +0.000 OA
BRANCH   9  11
ATOM     10  C   UNL     1       6.225   3.903  13.927  0.00  0.00    +0.000 C 
ATOM     11  C   UNL     1       6.207   3.996  15.440  0.00  0.00    +0.000 C 
ENDBRANCH   9  11
ENDBRANCH   8   9
ENDBRANCH   7   8
ENDBRANCH   6   7
ENDBRANCH   4   6
ENDBRANCH   1   4
BRANCH   1  12
ATOM     12  C   UNL     1       3.694   2.979  19.069  0.00  0.00    +0.000 C 
ATOM     13  N   UNL     1       3.545   1.736  18.923  0.00  0.00    +0.000 NA
ENDBRANCH   1  12
BRANCH   2  14
ATOM     14  N   UNL     1       2.838   6.572  20.045  0.00  0.00    +0.000 N 
ATOM     15  H   UNL     1       3.797   6.873  20.242  0.00  0.00    +0.000 HD
BRANCH  14  16
ATOM     16  C   UNL     1       2.241   7.585  19.168  0.00  0.00    +0.000 C 
BRANCH  16  17
ATOM     17  C   UNL     1       1.432   8.595  19.917  0.00  0.00    +0.000 A 
ATOM     18  C   UNL     1       0.875   9.767  19.450  0.00  0.00    +0.000 A 
ATOM     19  N   UNL     1       0.156  10.498  20.376  0.00  0.00    +0.000 NA
ATOM     20  C   UNL     1       0.168   9.847  21.512  0.00  0.00    +0.000 A 
ATOM     21 CL   UNL     1      -0.648  10.421  22.909  0.00  0.00    +0.000 Cl
ATOM     22  S   UNL     1       1.037   8.392  21.572  0.00  0.00    +0.000 S 
ENDBRANCH  16  17
ENDBRANCH  14  16
ENDBRANCH   2  14
TORSDOF 10
ENDMDL
