MODEL 1
REMARK VINA RESULT:      -7.6      0.000      0.000
REMARK  Name = 
REMARK  12 active torsions:
REMARK  status: ('A' for Active; 'I' for Inactive)
REMARK    1  A    between atoms: C_1  and  C_2
REMARK    2  A    between atoms: C_2  and  C_3
REMARK    3  A    between atoms: C_2  and  O_4
REMARK    4  A    between atoms: C_2  and  C_5
REMARK    5  A    between atoms: C_5  and  C_6
REMARK    6  A    between atoms: C_6  and  C_7
REMARK    7  A    between atoms: C_8  and  O_9
REMARK    8  A    between atoms: C_11  and  O_12
REMARK    9  A    between atoms: C_16  and  C_17
REMARK   10  A    between atoms: C_22  and  O_23
REMARK   11  A    between atoms: C_25  and  C_26
REMARK   12  A    between atoms: C_25  and  C_27
REMARK                            x       y       z     vdW  Elec       q    Type
REMARK                         _______ _______ _______ _____ _____    ______ ____
ROOT
ATOM      1  C   UNL     1       1.310   8.667  19.706  0.00  0.00    +0.000 A 
ATOM      2  C   UNL     1       1.226   7.887  20.865  0.00  0.00    +0.000 A 
ATOM      3  C   UNL     1       0.914   8.463  22.098  0.00  0.00    +0.000 A 
ATOM      4  C   UNL     1       0.687   9.835  22.200  0.00  0.00    +0.000 A 
ATOM      5  C   UNL     1       0.749  10.645  21.065  0.00  0.00    +0.000 A 
ATOM      6  C   UNL     1       1.033  10.053  19.827  0.00  0.00    +0.000 A 
ATOM      7  O   UNL     1       1.009  10.761  18.643  0.00  0.00    +0.000 OA
ATOM      8  C   UNL     1       0.194  11.947  18.651  0.00  0.00    +0.000 C 
ATOM      9  C   UNL     1       0.643  12.843  19.796  0.00  0.00    +0.000 C 
ATOM     10  C   UNL     1       0.538  12.115  21.103  0.00  0.00    +0.000 C 
ATOM     11  O   UNL     1       0.374  12.741  22.147  0.00  0.00    +0.000 OA
ENDROOT
BRANCH   8  12
ATOM     12  C   UNL     1      -1.297  11.649  18.505  0.00  0.00    +0.000 A 
ATOM     13  C   UNL     1      -2.264  12.281  19.315  0.00  0.00    +0.000 A 
ATOM     14  C   UNL     1      -3.625  11.982  19.219  0.00  0.00    +0.000 A 
ATOM     15  C   UNL     1      -4.044  11.015  18.313  0.00  0.00    +0.000 A 
ATOM     16  C   UNL     1      -3.113  10.357  17.513  0.00  0.00    +0.000 A 
ATOM     17  C   UNL     1      -1.758  10.662  17.623  0.00  0.00    +0.000 A 
ATOM     18  O   UNL     1      -5.339  10.620  18.166  0.00  0.00    +0.000 OA
ATOM     19  C   UNL     1      -6.365  11.328  18.889  0.00  0.00    +0.000 C 
ATOM     20  C   UNL     1      -7.225  12.021  17.827  0.00  0.00    +0.000 C 
ATOM     21  C   UNL     1      -7.179  10.254  19.617  0.00  0.00    +0.000 C 
ATOM     22  C   UNL     1      -5.884  12.349  19.898  0.00  0.00    +0.000 C 
ATOM     23  C   UNL     1      -4.596  12.660  20.063  0.00  0.00    +0.000 C 
BRANCH  17  24
ATOM     24  O   UNL     1      -0.853   9.945  16.891  0.00  0.00    +0.000 OA
ATOM     25  H   UNL     1      -0.556   9.185  17.420  0.00  0.00    +0.000 HD
ENDBRANCH  17  24
ENDBRANCH   8  12
BRANCH   2  26
ATOM     26  O   UNL     1       1.409   6.534  20.898  0.00  0.00    +0.000 OA
ATOM     27  H   UNL     1       0.812   6.090  20.277  0.00  0.00    +0.000 HD
ENDBRANCH   2  26
BRANCH   4  28
ATOM     28  O   UNL     1       0.389  10.359  23.425  0.00  0.00    +0.000 OA
ATOM     29  H   UNL     1      -0.538  10.178  23.649  0.00  0.00    +0.000 HD
ENDBRANCH   4  28
BRANCH   1  30
ATOM     30  C   UNL     1       1.626   8.094  18.336  0.00  0.00    +0.000 C 
BRANCH  30  31
ATOM     31  C   UNL     1       3.120   7.787  18.171  0.00  0.00    +0.000 C 
BRANCH  31  33
ATOM     32  C   UNL     1       4.614   6.016  17.241  0.00  0.00    +0.000 C 
ATOM     33  C   UNL     1       3.468   6.292  18.220  0.00  0.00    +0.000 C 
ATOM     34  C   UNL     1       2.275   5.390  17.896  0.00  0.00    +0.000 C 
BRANCH  33  35
ATOM     35  O   UNL     1       3.913   5.989  19.545  0.00  0.00    +0.000 OA
ATOM     36  H   UNL     1       4.799   5.596  19.478  0.00  0.00    +0.000 HD
ENDBRANCH  33  35
ENDBRANCH  31  33
ENDBRANCH  30  31
ENDBRANCH   1  30
TORSDOF 8
ENDMDL
MODEL 2
REMARK VINA RESULT:      -6.8      2.869      7.187
REMARK  Name = 
REMARK  12 active torsions:
REMARK  status: ('A' for Active; 'I' for Inactive)
REMARK    1  A    between atoms: C_1  and  C_2
REMARK    2  A    between atoms: C_2  and  C_3
REMARK    3  A    between atoms: C_2  and  O_4
REMARK    4  A    between atoms: C_2  and  C_5
REMARK    5  A    between atoms: C_5  and  C_6
REMARK    6  A    between atoms: C_6  and  C_7
REMARK    7  A    between atoms: C_8  and  O_9
REMARK    8  A    between atoms: C_11  and  O_12
REMARK    9  A    between atoms: C_16  and  C_17
REMARK   10  A    between atoms: C_22  and  O_23
REMARK   11  A    between atoms: C_25  and  C_26
REMARK   12  A    between atoms: C_25  and  C_27
REMARK                            x       y       z     vdW  Elec       q    Type
REMARK                         _______ _______ _______ _____ _____    ______ ____
ROOT
ATOM      1  C   UNL     1      -2.141  12.046  20.912  0.00  0.00    +0.000 A 
ATOM      2  C   UNL     1      -2.445  12.110  22.276  0.00  0.00    +0.000 A 
ATOM      3  C   UNL     1      -1.701  11.390  23.213  0.00  0.00    +0.000 A 
ATOM      4  C   UNL     1      -0.639  10.584  22.804  0.00  0.00    +0.000 A 
ATOM      5  C   UNL     1      -0.296  10.503  21.453  0.00  0.00    +0.000 A 
ATOM      6  C   UNL     1      -1.030  11.254  20.524  0.00  0.00    +0.000 A 
ATOM      7  O   UNL     1      -0.693  11.314  19.188  0.00  0.00    +0.000 OA
ATOM      8  C   UNL     1       0.687  11.033  18.888  0.00  0.00    +0.000 C 
ATOM      9  C   UNL     1       1.047   9.673  19.464  0.00  0.00    +0.000 C 
ATOM     10  C   UNL     1       0.809   9.651  20.945  0.00  0.00    +0.000 C 
ATOM     11  O   UNL     1       1.451   8.889  21.662  0.00  0.00    +0.000 OA
ENDROOT
BRANCH   8  12
ATOM     12  C   UNL     1       1.614  12.213  19.178  0.00  0.00    +0.000 A 
ATOM     13  C   UNL     1       1.470  13.002  20.339  0.00  0.00    +0.000 A 
ATOM     14  C   UNL     1       2.283  14.109  20.591  0.00  0.00    +0.000 A 
ATOM     15  C   UNL     1       3.254  14.461  19.660  0.00  0.00    +0.000 A 
ATOM     16  C   UNL     1       3.408  13.716  18.494  0.00  0.00    +0.000 A 
ATOM     17  C   UNL     1       2.587  12.618  18.254  0.00  0.00    +0.000 A 
ATOM     18  O   UNL     1       4.073  15.542  19.788  0.00  0.00    +0.000 OA
ATOM     19  C   UNL     1       4.036  16.299  21.015  0.00  0.00    +0.000 C 
ATOM     20  C   UNL     1       5.407  16.104  21.669  0.00  0.00    +0.000 C 
ATOM     21  C   UNL     1       3.846  17.760  20.598  0.00  0.00    +0.000 C 
ATOM     22  C   UNL     1       2.946  15.921  21.995  0.00  0.00    +0.000 C 
ATOM     23  C   UNL     1       2.115  14.894  21.802  0.00  0.00    +0.000 C 
BRANCH  17  24
ATOM     24  O   UNL     1       2.697  11.952  17.065  0.00  0.00    +0.000 OA
ATOM     25  H   UNL     1       2.136  11.159  17.099  0.00  0.00    +0.000 HD
ENDBRANCH  17  24
ENDBRANCH   8  12
BRANCH   2  26
ATOM     26  O   UNL     1      -3.446  12.873  22.807  0.00  0.00    +0.000 OA
ATOM     27  H   UNL     1      -3.861  12.423  23.559  0.00  0.00    +0.000 HD
ENDBRANCH   2  26
BRANCH   4  28
ATOM     28  O   UNL     1       0.060   9.894  23.752  0.00  0.00    +0.000 OA
ATOM     29  H   UNL     1      -0.549   9.388  24.314  0.00  0.00    +0.000 HD
ENDBRANCH   4  28
BRANCH   1  30
ATOM     30  C   UNL     1      -2.901  12.820  19.851  0.00  0.00    +0.000 C 
BRANCH  30  31
ATOM     31  C   UNL     1      -4.076  12.014  19.280  0.00  0.00    +0.000 C 
BRANCH  31  33
ATOM     32  C   UNL     1      -5.032  11.851  16.980  0.00  0.00    +0.000 C 
ATOM     33  C   UNL     1      -3.840  11.468  17.864  0.00  0.00    +0.000 C 
ATOM     34  C   UNL     1      -3.634   9.952  17.835  0.00  0.00    +0.000 C 
BRANCH  33  35
ATOM     35  O   UNL     1      -2.664  12.093  17.344  0.00  0.00    +0.000 OA
ATOM     36  H   UNL     1      -2.615  11.892  16.395  0.00  0.00    +0.000 HD
ENDBRANCH  33  35
ENDBRANCH  31  33
ENDBRANCH  30  31
ENDBRANCH   1  30
TORSDOF 8
ENDMDL
MODEL 3
REMARK VINA RESULT:      -6.6      3.049      7.301
REMARK  Name = 
REMARK  12 active torsions:
REMARK  status: ('A' for Active; 'I' for Inactive)
REMARK    1  A    between atoms: C_1  and  C_2
REMARK    2  A    between atoms: C_2  and  C_3
REMARK    3  A    between atoms: C_2  and  O_4
REMARK    4  A    between atoms: C_2  and  C_5
REMARK    5  A    between atoms: C_5  and  C_6
REMARK    6  A    between atoms: C_6  and  C_7
REMARK    7  A    between atoms: C_8  and  O_9
REMARK    8  A    between atoms: C_11  and  O_12
REMARK    9  A    between atoms: C_16  and  C_17
REMARK   10  A    between atoms: C_22  and  O_23
REMARK   11  A    between atoms: C_25  and  C_26
REMARK   12  A    between atoms: C_25  and  C_27
REMARK                            x       y       z     vdW  Elec       q    Type
REMARK                         _______ _______ _______ _____ _____    ______ ____
ROOT
ATOM      1  C   UNL     1      -0.804  10.619  22.177  0.00  0.00    +0.000 A 
ATOM      2  C   UNL     1       0.204   9.806  22.706  0.00  0.00    +0.000 A 
ATOM      3  C   UNL     1       1.049   9.073  21.870  0.00  0.00    +0.000 A 
ATOM      4  C   UNL     1       0.897   9.131  20.485  0.00  0.00    +0.000 A 
ATOM      5  C   UNL     1      -0.089   9.940  19.918  0.00  0.00    +0.000 A 
ATOM      6  C   UNL     1      -0.912  10.696  20.765  0.00  0.00    +0.000 A 
ATOM      7  O   UNL     1      -1.837  11.599  20.286  0.00  0.00    +0.000 OA
ATOM      8  C   UNL     1      -1.571  12.116  18.969  0.00  0.00    +0.000 C 
ATOM      9  C   UNL     1      -1.423  10.948  18.006  0.00  0.00    +0.000 C 
ATOM     10  C   UNL     1      -0.319  10.035  18.454  0.00  0.00    +0.000 C 
ATOM     11  O   UNL     1       0.284   9.348  17.635  0.00  0.00    +0.000 OA
ENDROOT
BRANCH   8  12
ATOM     12  C   UNL     1      -0.500  13.205  18.960  0.00  0.00    +0.000 A 
ATOM     13  C   UNL     1       0.839  12.927  18.613  0.00  0.00    +0.000 A 
ATOM     14  C   UNL     1       1.834  13.907  18.644  0.00  0.00    +0.000 A 
ATOM     15  C   UNL     1       1.504  15.194  19.050  0.00  0.00    +0.000 A 
ATOM     16  C   UNL     1       0.196  15.497  19.420  0.00  0.00    +0.000 A 
ATOM     17  C   UNL     1      -0.785  14.509  19.388  0.00  0.00    +0.000 A 
ATOM     18  O   UNL     1       2.402  16.213  19.154  0.00  0.00    +0.000 OA
ATOM     19  C   UNL     1       3.751  15.997  18.693  0.00  0.00    +0.000 C 
ATOM     20  C   UNL     1       3.939  16.931  17.494  0.00  0.00    +0.000 C 
ATOM     21  C   UNL     1       4.659  16.424  19.851  0.00  0.00    +0.000 C 
ATOM     22  C   UNL     1       4.097  14.579  18.293  0.00  0.00    +0.000 C 
ATOM     23  C   UNL     1       3.202  13.588  18.270  0.00  0.00    +0.000 C 
BRANCH  17  24
ATOM     24  O   UNL     1      -2.043  14.805  19.835  0.00  0.00    +0.000 OA
ATOM     25  H   UNL     1      -2.160  14.414  20.718  0.00  0.00    +0.000 HD
ENDBRANCH  17  24
ENDBRANCH   8  12
BRANCH   2  26
ATOM     26  O   UNL     1       0.468   9.675  24.040  0.00  0.00    +0.000 OA
ATOM     27  H   UNL     1       1.112   8.969  24.197  0.00  0.00    +0.000 HD
ENDBRANCH   2  26
BRANCH   4  28
ATOM     28  O   UNL     1       1.741   8.395  19.704  0.00  0.00    +0.000 OA
ATOM     29  H   UNL     1       1.993   7.578  20.164  0.00  0.00    +0.000 HD
ENDBRANCH   4  28
BRANCH   1  30
ATOM     30  C   UNL     1      -1.738  11.454  23.035  0.00  0.00    +0.000 C 
BRANCH  30  31
ATOM     31  C   UNL     1      -1.231  12.892  23.207  0.00  0.00    +0.000 C 
BRANCH  31  33
ATOM     32  C   UNL     1      -1.695  15.344  23.154  0.00  0.00    +0.000 C 
ATOM     33  C   UNL     1      -2.339  13.955  23.228  0.00  0.00    +0.000 C 
ATOM     34  C   UNL     1      -3.234  13.860  24.465  0.00  0.00    +0.000 C 
BRANCH  33  35
ATOM     35  O   UNL     1      -3.152  13.764  22.068  0.00  0.00    +0.000 OA
ATOM     36  H   UNL     1      -3.347  14.639  21.694  0.00  0.00    +0.000 HD
ENDBRANCH  33  35
ENDBRANCH  31  33
ENDBRANCH  30  31
ENDBRANCH   1  30
TORSDOF 8
ENDMDL
MODEL 4
REMARK VINA RESULT:      -6.6      3.409      8.698
REMARK  Name = 
REMARK  12 active torsions:
REMARK  status: ('A' for Active; 'I' for Inactive)
REMARK    1  A    between atoms: C_1  and  C_2
REMARK    2  A    between atoms: C_2  and  C_3
REMARK    3  A    between atoms: C_2  and  O_4
REMARK    4  A    between atoms: C_2  and  C_5
REMARK    5  A    between atoms: C_5  and  C_6
REMARK    6  A    between atoms: C_6  and  C_7
REMARK    7  A    between atoms: C_8  and  O_9
REMARK    8  A    between atoms: C_11  and  O_12
REMARK    9  A    between atoms: C_16  and  C_17
REMARK   10  A    between atoms: C_22  and  O_23
REMARK   11  A    between atoms: C_25  and  C_26
REMARK   12  A    between atoms: C_25  and  C_27
REMARK                            x       y       z     vdW  Elec       q    Type
REMARK                         _______ _______ _______ _____ _____    ______ ____
ROOT
ATOM      1  C   UNL     1      -6.644  14.867  22.202  0.00  0.00    +0.000 A 
ATOM      2  C   UNL     1      -6.764  14.638  23.577  0.00  0.00    +0.000 A 
ATOM      3  C   UNL     1      -7.095  13.374  24.069  0.00  0.00    +0.000 A 
ATOM      4  C   UNL     1      -7.321  12.312  23.195  0.00  0.00    +0.000 A 
ATOM      5  C   UNL     1      -7.199  12.496  21.817  0.00  0.00    +0.000 A 
ATOM      6  C   UNL     1      -6.836  13.762  21.334  0.00  0.00    +0.000 A 
ATOM      7  O   UNL     1      -6.591  14.003  19.998  0.00  0.00    +0.000 OA
ATOM      8  C   UNL     1      -6.208  12.851  19.224  0.00  0.00    +0.000 C 
ATOM      9  C   UNL     1      -7.274  11.778  19.381  0.00  0.00    +0.000 C 
ATOM     10  C   UNL     1      -7.444  11.416  20.827  0.00  0.00    +0.000 C 
ATOM     11  O   UNL     1      -7.853  10.301  21.140  0.00  0.00    +0.000 OA
ENDROOT
BRANCH   8  12
ATOM     12  C   UNL     1      -4.745  12.456  19.423  0.00  0.00    +0.000 A 
ATOM     13  C   UNL     1      -4.024  12.839  20.574  0.00  0.00    +0.000 A 
ATOM     14  C   UNL     1      -2.675  12.521  20.745  0.00  0.00    +0.000 A 
ATOM     15  C   UNL     1      -2.011  11.823  19.742  0.00  0.00    +0.000 A 
ATOM     16  C   UNL     1      -2.689  11.450  18.585  0.00  0.00    +0.000 A 
ATOM     17  C   UNL     1      -4.033  11.777  18.425  0.00  0.00    +0.000 A 
ATOM     18  O   UNL     1      -0.690  11.497  19.789  0.00  0.00    +0.000 OA
ATOM     19  C   UNL     1       0.048  11.765  20.999  0.00  0.00    +0.000 C 
ATOM     20  C   UNL     1       0.443  10.396  21.561  0.00  0.00    +0.000 C 
ATOM     21  C   UNL     1       1.293  12.544  20.564  0.00  0.00    +0.000 C 
ATOM     22  C   UNL     1      -0.683  12.558  22.060  0.00  0.00    +0.000 C 
ATOM     23  C   UNL     1      -1.963  12.922  21.948  0.00  0.00    +0.000 C 
BRANCH  17  24
ATOM     24  O   UNL     1      -4.656  11.476  17.247  0.00  0.00    +0.000 OA
ATOM     25  H   UNL     1      -5.527  11.091  17.444  0.00  0.00    +0.000 HD
ENDBRANCH  17  24
ENDBRANCH   8  12
BRANCH   2  26
ATOM     26  O   UNL     1      -6.552  15.586  24.537  0.00  0.00    +0.000 OA
ATOM     27  H   UNL     1      -5.698  15.451  24.973  0.00  0.00    +0.000 HD
ENDBRANCH   2  26
BRANCH   4  28
ATOM     28  O   UNL     1      -7.647  11.094  23.717  0.00  0.00    +0.000 OA
ATOM     29  H   UNL     1      -7.879  11.184  24.656  0.00  0.00    +0.000 HD
ENDBRANCH   4  28
BRANCH   1  30
ATOM     30  C   UNL     1      -6.267  16.213  21.609  0.00  0.00    +0.000 C 
BRANCH  30  31
ATOM     31  C   UNL     1      -4.771  16.512  21.766  0.00  0.00    +0.000 C 
BRANCH  31  33
ATOM     32  C   UNL     1      -2.633  16.307  20.492  0.00  0.00    +0.000 C 
ATOM     33  C   UNL     1      -4.057  16.873  20.454  0.00  0.00    +0.000 C 
ATOM     34  C   UNL     1      -4.014  18.380  20.193  0.00  0.00    +0.000 C 
BRANCH  33  35
ATOM     35  O   UNL     1      -4.770  16.250  19.382  0.00  0.00    +0.000 OA
ATOM     36  H   UNL     1      -5.463  15.692  19.771  0.00  0.00    +0.000 HD
ENDBRANCH  33  35
ENDBRANCH  31  33
ENDBRANCH  30  31
ENDBRANCH   1  30
TORSDOF 8
ENDMDL
MODEL 5
REMARK VINA RESULT:      -6.5      3.447      8.634
REMARK  Name = 
REMARK  12 active torsions:
REMARK  status: ('A' for Active; 'I' for Inactive)
REMARK    1  A    between atoms: C_1  and  C_2
REMARK    2  A    between atoms: C_2  and  C_3
REMARK    3  A    between atoms: C_2  and  O_4
REMARK    4  A    between atoms: C_2  and  C_5
REMARK    5  A    between atoms: C_5  and  C_6
REMARK    6  A    between atoms: C_6  and  C_7
REMARK    7  A    between atoms: C_8  and  O_9
REMARK    8  A    between atoms: C_11  and  O_12
REMARK    9  A    between atoms: C_16  and  C_17
REMARK   10  A    between atoms: C_22  and  O_23
REMARK   11  A    between atoms: C_25  and  C_26
REMARK   12  A    between atoms: C_25  and  C_27
REMARK                            x       y       z     vdW  Elec       q    Type
REMARK                         _______ _______ _______ _____ _____    ______ ____
ROOT
ATOM      1  C   UNL     1      -6.354  14.929  22.125  0.00  0.00    +0.000 A 
ATOM      2  C   UNL     1      -6.272  14.734  23.508  0.00  0.00    +0.000 A 
ATOM      3  C   UNL     1      -6.579  13.498  24.079  0.00  0.00    +0.000 A 
ATOM      4  C   UNL     1      -6.984  12.430  23.279  0.00  0.00    +0.000 A 
ATOM      5  C   UNL     1      -7.067  12.580  21.893  0.00  0.00    +0.000 A 
ATOM      6  C   UNL     1      -6.726  13.817  21.327  0.00  0.00    +0.000 A 
ATOM      7  O   UNL     1      -6.677  14.019  19.963  0.00  0.00    +0.000 OA
ATOM      8  C   UNL     1      -6.469  12.835  19.171  0.00  0.00    +0.000 C 
ATOM      9  C   UNL     1      -7.546  11.818  19.518  0.00  0.00    +0.000 C 
ATOM     10  C   UNL     1      -7.508  11.494  20.983  0.00  0.00    +0.000 C 
ATOM     11  O   UNL     1      -7.913  10.406  21.384  0.00  0.00    +0.000 OA
ENDROOT
BRANCH   8  12
ATOM     12  C   UNL     1      -5.013  12.374  19.157  0.00  0.00    +0.000 A 
ATOM     13  C   UNL     1      -4.096  12.780  20.150  0.00  0.00    +0.000 A 
ATOM     14  C   UNL     1      -2.752  12.400  20.120  0.00  0.00    +0.000 A 
ATOM     15  C   UNL     1      -2.293  11.614  19.070  0.00  0.00    +0.000 A 
ATOM     16  C   UNL     1      -3.168  11.214  18.062  0.00  0.00    +0.000 A 
ATOM     17  C   UNL     1      -4.504  11.604  18.102  0.00  0.00    +0.000 A 
ATOM     18  O   UNL     1      -0.998  11.221  18.924  0.00  0.00    +0.000 OA
ATOM     19  C   UNL     1      -0.061  11.514  19.979  0.00  0.00    +0.000 C 
ATOM     20  C   UNL     1       0.361  10.159  20.555  0.00  0.00    +0.000 C 
ATOM     21  C   UNL     1       1.129  12.200  19.301  0.00  0.00    +0.000 C 
ATOM     22  C   UNL     1      -0.572  12.403  21.093  0.00  0.00    +0.000 C 
ATOM     23  C   UNL     1      -1.836  12.827  21.165  0.00  0.00    +0.000 C 
BRANCH  17  24
ATOM     24  O   UNL     1      -5.325  11.272  17.061  0.00  0.00    +0.000 OA
ATOM     25  H   UNL     1      -5.352  10.304  16.980  0.00  0.00    +0.000 HD
ENDBRANCH  17  24
ENDBRANCH   8  12
BRANCH   2  26
ATOM     26  O   UNL     1      -5.873  15.690  24.398  0.00  0.00    +0.000 OA
ATOM     27  H   UNL     1      -6.594  15.920  25.003  0.00  0.00    +0.000 HD
ENDBRANCH   2  26
BRANCH   4  28
ATOM     28  O   UNL     1      -7.280  11.240  23.878  0.00  0.00    +0.000 OA
ATOM     29  H   UNL     1      -6.527  10.937  24.409  0.00  0.00    +0.000 HD
ENDBRANCH   4  28
BRANCH   1  30
ATOM     30  C   UNL     1      -6.013  16.243  21.445  0.00  0.00    +0.000 C 
BRANCH  30  31
ATOM     31  C   UNL     1      -4.546  16.296  20.998  0.00  0.00    +0.000 C 
BRANCH  31  33
ATOM     32  C   UNL     1      -2.700  17.964  21.208  0.00  0.00    +0.000 C 
ATOM     33  C   UNL     1      -3.608  17.006  21.987  0.00  0.00    +0.000 C 
ATOM     34  C   UNL     1      -2.760  16.033  22.808  0.00  0.00    +0.000 C 
BRANCH  33  35
ATOM     35  O   UNL     1      -4.417  17.769  22.886  0.00  0.00    +0.000 OA
ATOM     36  H   UNL     1      -4.407  17.320  23.748  0.00  0.00    +0.000 HD
ENDBRANCH  33  35
ENDBRANCH  31  33
ENDBRANCH  30  31
ENDBRANCH   1  30
TORSDOF 8
ENDMDL
MODEL 6
REMARK VINA RESULT:      -6.4      3.154      7.911
REMARK  Name = 
REMARK  12 active torsions:
REMARK  status: ('A' for Active; 'I' for Inactive)
REMARK    1  A    between atoms: C_1  and  C_2
REMARK    2  A    between atoms: C_2  and  C_3
REMARK    3  A    between atoms: C_2  and  O_4
REMARK    4  A    between atoms: C_2  and  C_5
REMARK    5  A    between atoms: C_5  and  C_6
REMARK    6  A    between atoms: C_6  and  C_7
REMARK    7  A    between atoms: C_8  and  O_9
REMARK    8  A    between atoms: C_11  and  O_12
REMARK    9  A    between atoms: C_16  and  C_17
REMARK   10  A    between atoms: C_22  and  O_23
REMARK   11  A    between atoms: C_25  and  C_26
REMARK   12  A    between atoms: C_25  and  C_27
REMARK                            x       y       z     vdW  Elec       q    Type
REMARK                         _______ _______ _______ _____ _____    ______ ____
ROOT
ATOM      1  C   UNL     1      -0.783  11.186  22.373  0.00  0.00    +0.000 A 
ATOM      2  C   UNL     1      -0.124  10.031  22.809  0.00  0.00    +0.000 A 
ATOM      3  C   UNL     1       0.520   9.186  21.902  0.00  0.00    +0.000 A 
ATOM      4  C   UNL     1       0.511   9.475  20.538  0.00  0.00    +0.000 A 
ATOM      5  C   UNL     1      -0.124  10.624  20.066  0.00  0.00    +0.000 A 
ATOM      6  C   UNL     1      -0.741  11.482  20.987  0.00  0.00    +0.000 A 
ATOM      7  O   UNL     1      -1.299  12.688  20.618  0.00  0.00    +0.000 OA
ATOM      8  C   UNL     1      -0.774  13.265  19.408  0.00  0.00    +0.000 C 
ATOM      9  C   UNL     1      -0.914  12.251  18.282  0.00  0.00    +0.000 C 
ATOM     10  C   UNL     1      -0.189  10.984  18.626  0.00  0.00    +0.000 C 
ATOM     11  O   UNL     1       0.240  10.256  17.734  0.00  0.00    +0.000 OA
ENDROOT
BRANCH   8  12
ATOM     12  C   UNL     1       0.577  13.948  19.607  0.00  0.00    +0.000 A 
ATOM     13  C   UNL     1       1.652  13.741  18.716  0.00  0.00    +0.000 A 
ATOM     14  C   UNL     1       2.905  14.326  18.915  0.00  0.00    +0.000 A 
ATOM     15  C   UNL     1       3.111  15.121  20.036  0.00  0.00    +0.000 A 
ATOM     16  C   UNL     1       2.078  15.327  20.946  0.00  0.00    +0.000 A 
ATOM     17  C   UNL     1       0.835  14.735  20.738  0.00  0.00    +0.000 A 
ATOM     18  O   UNL     1       4.302  15.705  20.345  0.00  0.00    +0.000 OA
ATOM     19  C   UNL     1       5.385  15.616  19.398  0.00  0.00    +0.000 C 
ATOM     20  C   UNL     1       5.642  17.048  18.918  0.00  0.00    +0.000 C 
ATOM     21  C   UNL     1       6.588  15.093  20.189  0.00  0.00    +0.000 C 
ATOM     22  C   UNL     1       5.150  14.714  18.205  0.00  0.00    +0.000 C 
ATOM     23  C   UNL     1       3.988  14.100  17.971  0.00  0.00    +0.000 C 
BRANCH  17  24
ATOM     24  O   UNL     1      -0.139  14.880  21.686  0.00  0.00    +0.000 OA
ATOM     25  H   UNL     1       0.274  15.176  22.515  0.00  0.00    +0.000 HD
ENDBRANCH  17  24
ENDBRANCH   8  12
BRANCH   2  26
ATOM     26  O   UNL     1      -0.028   9.644  24.115  0.00  0.00    +0.000 OA
ATOM     27  H   UNL     1       0.891   9.447  24.350  0.00  0.00    +0.000 HD
ENDBRANCH   2  26
BRANCH   4  28
ATOM     28  O   UNL     1       1.149   8.620  19.685  0.00  0.00    +0.000 OA
ATOM     29  H   UNL     1       0.928   8.840  18.766  0.00  0.00    +0.000 HD
ENDBRANCH   4  28
BRANCH   1  30
ATOM     30  C   UNL     1      -1.483  12.151  23.313  0.00  0.00    +0.000 C 
BRANCH  30  31
ATOM     31  C   UNL     1      -2.995  11.900  23.376  0.00  0.00    +0.000 C 
BRANCH  31  33
ATOM     32  C   UNL     1      -4.810  13.513  23.954  0.00  0.00    +0.000 C 
ATOM     33  C   UNL     1      -3.852  13.060  22.848  0.00  0.00    +0.000 C 
ATOM     34  C   UNL     1      -4.642  12.695  21.589  0.00  0.00    +0.000 C 
BRANCH  33  35
ATOM     35  O   UNL     1      -2.974  14.143  22.529  0.00  0.00    +0.000 OA
ATOM     36  H   UNL     1      -2.440  14.335  23.318  0.00  0.00    +0.000 HD
ENDBRANCH  33  35
ENDBRANCH  31  33
ENDBRANCH  30  31
ENDBRANCH   1  30
TORSDOF 8
ENDMDL
MODEL 7
REMARK VINA RESULT:      -6.4      2.186      4.638
REMARK  Name = 
REMARK  12 active torsions:
REMARK  status: ('A' for Active; 'I' for Inactive)
REMARK    1  A    between atoms: C_1  and  C_2
REMARK    2  A    between atoms: C_2  and  C_3
REMARK    3  A    between atoms: C_2  and  O_4
REMARK    4  A    between atoms: C_2  and  C_5
REMARK    5  A    between atoms: C_5  and  C_6
REMARK    6  A    between atoms: C_6  and  C_7
REMARK    7  A    between atoms: C_8  and  O_9
REMARK    8  A    between atoms: C_11  and  O_12
REMARK    9  A    between atoms: C_16  and  C_17
REMARK   10  A    between atoms: C_22  and  O_23
REMARK   11  A    between atoms: C_25  and  C_26
REMARK   12  A    between atoms: C_25  and  C_27
REMARK                            x       y       z     vdW  Elec       q    Type
REMARK                         _______ _______ _______ _____ _____    ______ ____
ROOT
ATOM      1  C   UNL     1       1.076  11.726  19.123  0.00  0.00    +0.000 A 
ATOM      2  C   UNL     1       1.352  10.427  18.684  0.00  0.00    +0.000 A 
ATOM      3  C   UNL     1       1.066   9.320  19.485  0.00  0.00    +0.000 A 
ATOM      4  C   UNL     1       0.502   9.490  20.750  0.00  0.00    +0.000 A 
ATOM      5  C   UNL     1       0.200  10.770  21.219  0.00  0.00    +0.000 A 
ATOM      6  C   UNL     1       0.463  11.872  20.394  0.00  0.00    +0.000 A 
ATOM      7  O   UNL     1       0.098  13.158  20.735  0.00  0.00    +0.000 OA
ATOM      8  C   UNL     1      -0.991  13.261  21.671  0.00  0.00    +0.000 C 
ATOM      9  C   UNL     1      -0.645  12.460  22.916  0.00  0.00    +0.000 C 
ATOM     10  C   UNL     1      -0.383  11.026  22.561  0.00  0.00    +0.000 C 
ATOM     11  O   UNL     1      -0.566  10.141  23.392  0.00  0.00    +0.000 OA
ENDROOT
BRANCH   8  12
ATOM     12  C   UNL     1      -2.358  13.044  21.023  0.00  0.00    +0.000 A 
ATOM     13  C   UNL     1      -2.495  12.380  19.786  0.00  0.00    +0.000 A 
ATOM     14  C   UNL     1      -3.735  12.215  19.164  0.00  0.00    +0.000 A 
ATOM     15  C   UNL     1      -4.871  12.739  19.770  0.00  0.00    +0.000 A 
ATOM     16  C   UNL     1      -4.767  13.419  20.981  0.00  0.00    +0.000 A 
ATOM     17  C   UNL     1      -3.523  13.580  21.587  0.00  0.00    +0.000 A 
ATOM     18  O   UNL     1      -6.120  12.670  19.232  0.00  0.00    +0.000 OA
ATOM     19  C   UNL     1      -6.316  11.895  18.032  0.00  0.00    +0.000 C 
ATOM     20  C   UNL     1      -7.220  10.724  18.431  0.00  0.00    +0.000 C 
ATOM     21  C   UNL     1      -7.044  12.822  17.053  0.00  0.00    +0.000 C 
ATOM     22  C   UNL     1      -5.062  11.368  17.370  0.00  0.00    +0.000 C 
ATOM     23  C   UNL     1      -3.842  11.516  17.894  0.00  0.00    +0.000 C 
BRANCH  17  24
ATOM     24  O   UNL     1      -3.431  14.322  22.731  0.00  0.00    +0.000 OA
ATOM     25  H   UNL     1      -2.711  13.966  23.278  0.00  0.00    +0.000 HD
ENDBRANCH  17  24
ENDBRANCH   8  12
BRANCH   2  26
ATOM     26  O   UNL     1       1.886  10.123  17.464  0.00  0.00    +0.000 OA
ATOM     27  H   UNL     1       2.286   9.241  17.471  0.00  0.00    +0.000 HD
ENDBRANCH   2  26
BRANCH   4  28
ATOM     28  O   UNL     1       0.242   8.383  21.504  0.00  0.00    +0.000 OA
ATOM     29  H   UNL     1      -0.595   7.978  21.224  0.00  0.00    +0.000 HD
ENDBRANCH   4  28
BRANCH   1  30
ATOM     30  C   UNL     1       1.347  12.964  18.288  0.00  0.00    +0.000 C 
BRANCH  30  31
ATOM     31  C   UNL     1       2.844  13.292  18.213  0.00  0.00    +0.000 C 
BRANCH  31  33
ATOM     32  C   UNL     1       4.230  14.978  19.424  0.00  0.00    +0.000 C 
ATOM     33  C   UNL     1       3.170  14.788  18.334  0.00  0.00    +0.000 C 
ATOM     34  C   UNL     1       1.941  15.645  18.645  0.00  0.00    +0.000 C 
BRANCH  33  35
ATOM     35  O   UNL     1       3.715  15.220  17.084  0.00  0.00    +0.000 OA
ATOM     36  H   UNL     1       3.989  14.429  16.591  0.00  0.00    +0.000 HD
ENDBRANCH  33  35
ENDBRANCH  31  33
ENDBRANCH  30  31
ENDBRANCH   1  30
TORSDOF 8
ENDMDL
MODEL 8
REMARK VINA RESULT:      -6.3      3.126      7.473
REMARK  Name = 
REMARK  12 active torsions:
REMARK  status: ('A' for Active; 'I' for Inactive)
REMARK    1  A    between atoms: C_1  and  C_2
REMARK    2  A    between atoms: C_2  and  C_3
REMARK    3  A    between atoms: C_2  and  O_4
REMARK    4  A    between atoms: C_2  and  C_5
REMARK    5  A    between atoms: C_5  and  C_6
REMARK    6  A    between atoms: C_6  and  C_7
REMARK    7  A    between atoms: C_8  and  O_9
REMARK    8  A    between atoms: C_11  and  O_12
REMARK    9  A    between atoms: C_16  and  C_17
REMARK   10  A    between atoms: C_22  and  O_23
REMARK   11  A    between atoms: C_25  and  C_26
REMARK   12  A    between atoms: C_25  and  C_27
REMARK                            x       y       z     vdW  Elec       q    Type
REMARK                         _______ _______ _______ _____ _____    ______ ____
ROOT
ATOM      1  C   UNL     1      -2.548  12.283  20.971  0.00  0.00    +0.000 A 
ATOM      2  C   UNL     1      -2.883  12.191  22.326  0.00  0.00    +0.000 A 
ATOM      3  C   UNL     1      -2.051  11.524  23.228  0.00  0.00    +0.000 A 
ATOM      4  C   UNL     1      -0.869  10.928  22.792  0.00  0.00    +0.000 A 
ATOM      5  C   UNL     1      -0.493  11.010  21.450  0.00  0.00    +0.000 A 
ATOM      6  C   UNL     1      -1.320  11.707  20.558  0.00  0.00    +0.000 A 
ATOM      7  O   UNL     1      -0.972  11.925  19.241  0.00  0.00    +0.000 OA
ATOM      8  C   UNL     1       0.440  11.888  18.962  0.00  0.00    +0.000 C 
ATOM      9  C   UNL     1       1.000  10.559  19.445  0.00  0.00    +0.000 C 
ATOM     10  C   UNL     1       0.742  10.383  20.912  0.00  0.00    +0.000 C 
ATOM     11  O   UNL     1       1.484   9.676  21.589  0.00  0.00    +0.000 OA
ENDROOT
BRANCH   8  12
ATOM     12  C   UNL     1       1.163  13.171  19.368  0.00  0.00    +0.000 A 
ATOM     13  C   UNL     1       2.336  13.146  20.152  0.00  0.00    +0.000 A 
ATOM     14  C   UNL     1       2.979  14.315  20.565  0.00  0.00    +0.000 A 
ATOM     15  C   UNL     1       2.439  15.546  20.213  0.00  0.00    +0.000 A 
ATOM     16  C   UNL     1       1.270  15.606  19.458  0.00  0.00    +0.000 A 
ATOM     17  C   UNL     1       0.636  14.432  19.057  0.00  0.00    +0.000 A 
ATOM     18  O   UNL     1       2.962  16.744  20.595  0.00  0.00    +0.000 OA
ATOM     19  C   UNL     1       4.224  16.758  21.292  0.00  0.00    +0.000 C 
ATOM     20  C   UNL     1       5.214  17.456  20.354  0.00  0.00    +0.000 C 
ATOM     21  C   UNL     1       3.996  17.601  22.550  0.00  0.00    +0.000 C 
ATOM     22  C   UNL     1       4.774  15.407  21.698  0.00  0.00    +0.000 C 
ATOM     23  C   UNL     1       4.193  14.252  21.363  0.00  0.00    +0.000 C 
BRANCH  17  24
ATOM     24  O   UNL     1      -0.554  14.513  18.390  0.00  0.00    +0.000 OA
ATOM     25  H   UNL     1      -1.173  15.044  18.920  0.00  0.00    +0.000 HD
ENDBRANCH  17  24
ENDBRANCH   8  12
BRANCH   2  26
ATOM     26  O   UNL     1      -4.001  12.743  22.883  0.00  0.00    +0.000 OA
ATOM     27  H   UNL     1      -4.758  12.143  22.806  0.00  0.00    +0.000 HD
ENDBRANCH   2  26
BRANCH   4  28
ATOM     28  O   UNL     1      -0.086  10.283  23.705  0.00  0.00    +0.000 OA
ATOM     29  H   UNL     1      -0.592  10.111  24.516  0.00  0.00    +0.000 HD
ENDBRANCH   4  28
BRANCH   1  30
ATOM     30  C   UNL     1      -3.402  13.011  19.948  0.00  0.00    +0.000 C 
BRANCH  30  31
ATOM     31  C   UNL     1      -4.486  12.103  19.352  0.00  0.00    +0.000 C 
BRANCH  31  33
ATOM     32  C   UNL     1      -5.326  11.839  17.016  0.00  0.00    +0.000 C 
ATOM     33  C   UNL     1      -4.152  11.550  17.958  0.00  0.00    +0.000 C 
ATOM     34  C   UNL     1      -3.847  10.051  17.968  0.00  0.00    +0.000 C 
BRANCH  33  35
ATOM     35  O   UNL     1      -2.997  12.242  17.478  0.00  0.00    +0.000 OA
ATOM     36  H   UNL     1      -3.062  12.294  16.510  0.00  0.00    +0.000 HD
ENDBRANCH  33  35
ENDBRANCH  31  33
ENDBRANCH  30  31
ENDBRANCH   1  30
TORSDOF 8
ENDMDL
MODEL 9
REMARK VINA RESULT:      -6.3      8.243     10.691
REMARK  Name = 
REMARK  12 active torsions:
REMARK  status: ('A' for Active; 'I' for Inactive)
REMARK    1  A    between atoms: C_1  and  C_2
REMARK    2  A    between atoms: C_2  and  C_3
REMARK    3  A    between atoms: C_2  and  O_4
REMARK    4  A    between atoms: C_2  and  C_5
REMARK    5  A    between atoms: C_5  and  C_6
REMARK    6  A    between atoms: C_6  and  C_7
REMARK    7  A    between atoms: C_8  and  O_9
REMARK    8  A    between atoms: C_11  and  O_12
REMARK    9  A    between atoms: C_16  and  C_17
REMARK   10  A    between atoms: C_22  and  O_23
REMARK   11  A    between atoms: C_25  and  C_26
REMARK   12  A    between atoms: C_25  and  C_27
REMARK                            x       y       z     vdW  Elec       q    Type
REMARK                         _______ _______ _______ _____ _____    ______ ____
ROOT
ATOM      1  C   UNL     1      10.639  13.334  19.704  0.00  0.00    +0.000 A 
ATOM      2  C   UNL     1      10.599  12.007  19.261  0.00  0.00    +0.000 A 
ATOM      3  C   UNL     1      10.018  11.006  20.042  0.00  0.00    +0.000 A 
ATOM      4  C   UNL     1       9.472  11.309  21.288  0.00  0.00    +0.000 A 
ATOM      5  C   UNL     1       9.481  12.623  21.760  0.00  0.00    +0.000 A 
ATOM      6  C   UNL     1      10.039  13.626  20.955  0.00  0.00    +0.000 A 
ATOM      7  O   UNL     1       9.994  14.961  21.297  0.00  0.00    +0.000 OA
ATOM      8  C   UNL     1       8.933  15.332  22.197  0.00  0.00    +0.000 C 
ATOM      9  C   UNL     1       9.025  14.468  23.445  0.00  0.00    +0.000 C 
ATOM     10  C   UNL     1       8.935  13.015  23.085  0.00  0.00    +0.000 C 
ATOM     11  O   UNL     1       8.508  12.202  23.900  0.00  0.00    +0.000 OA
ENDROOT
BRANCH   8  12
ATOM     12  C   UNL     1       7.579  15.463  21.502  0.00  0.00    +0.000 A 
ATOM     13  C   UNL     1       7.389  15.055  20.164  0.00  0.00    +0.000 A 
ATOM     14  C   UNL     1       6.167  15.212  19.507  0.00  0.00    +0.000 A 
ATOM     15  C   UNL     1       5.106  15.807  20.181  0.00  0.00    +0.000 A 
ATOM     16  C   UNL     1       5.267  16.239  21.494  0.00  0.00    +0.000 A 
ATOM     17  C   UNL     1       6.493  16.081  22.136  0.00  0.00    +0.000 A 
ATOM     18  O   UNL     1       3.887  16.042  19.622  0.00  0.00    +0.000 OA
ATOM     19  C   UNL     1       3.619  15.532  18.301  0.00  0.00    +0.000 C 
ATOM     20  C   UNL     1       2.520  14.478  18.472  0.00  0.00    +0.000 C 
ATOM     21  C   UNL     1       3.095  16.723  17.492  0.00  0.00    +0.000 C 
ATOM     22  C   UNL     1       4.798  14.923  17.573  0.00  0.00    +0.000 C 
ATOM     23  C   UNL     1       6.002  14.772  18.131  0.00  0.00    +0.000 C 
BRANCH  17  24
ATOM     24  O   UNL     1       6.655  16.589  23.395  0.00  0.00    +0.000 OA
ATOM     25  H   UNL     1       6.125  17.400  23.475  0.00  0.00    +0.000 HD
ENDBRANCH  17  24
ENDBRANCH   8  12
BRANCH   2  26
ATOM     26  O   UNL     1      11.082  11.582  18.056  0.00  0.00    +0.000 OA
ATOM     27  H   UNL     1      10.959  10.626  17.952  0.00  0.00    +0.000 HD
ENDBRANCH   2  26
BRANCH   4  28
ATOM     28  O   UNL     1       8.918  10.300  22.022  0.00  0.00    +0.000 OA
ATOM     29  H   UNL     1       9.263  10.319  22.929  0.00  0.00    +0.000 HD
ENDBRANCH   4  28
BRANCH   1  30
ATOM     30  C   UNL     1      11.239  14.467  18.891  0.00  0.00    +0.000 C 
BRANCH  30  31
ATOM     31  C   UNL     1      10.336  14.875  17.719  0.00  0.00    +0.000 C 
BRANCH  31  33
ATOM     32  C   UNL     1      12.100  16.622  17.459  0.00  0.00    +0.000 C 
ATOM     33  C   UNL     1      10.647  16.261  17.134  0.00  0.00    +0.000 C 
ATOM     34  C   UNL     1       9.709  17.352  17.653  0.00  0.00    +0.000 C 
BRANCH  33  35
ATOM     35  O   UNL     1      10.501  16.179  15.714  0.00  0.00    +0.000 OA
ATOM     36  H   UNL     1      11.133  16.799  15.314  0.00  0.00    +0.000 HD
ENDBRANCH  33  35
ENDBRANCH  31  33
ENDBRANCH  30  31
ENDBRANCH   1  30
TORSDOF 8
ENDMDL
