MODEL 1
REMARK VINA RESULT:      -6.9      0.000      0.000
REMARK  Name = 
REMARK  3 active torsions:
REMARK  status: ('A' for Active; 'I' for Inactive)
REMARK    1  A    between atoms: C_1  and  C_2
REMARK    2  A    between atoms: C_7  and  C_9
REMARK    3  A    between atoms: C_9  and  C_10
REMARK                            x       y       z     vdW  Elec       q    Type
REMARK                         _______ _______ _______ _____ _____    ______ ____
ROOT
ATOM      1  C   UNL     1       7.992   8.230  17.643  0.00  0.00    +0.000 C 
ATOM      2  C   UNL     1       7.352   6.914  17.911  0.00  0.00    +0.000 A 
ATOM      3  C   UNL     1       7.679   5.982  18.871  0.00  0.00    +0.000 A 
ATOM      4  N   UNL     1       6.869   4.872  18.923  0.00  0.00    +0.000 NA
ATOM      5  C   UNL     1       5.937   4.963  18.014  0.00  0.00    +0.000 A 
ATOM      6  N   UNL     1       4.895   4.101  17.774  0.00  0.00    +0.000 N 
ATOM      7  C   UNL     1       4.588   3.106  18.678  0.00  0.00    +0.000 C 
ATOM      8  O   UNL     1       5.148   2.900  19.755  0.00  0.00    +0.000 OA
ATOM      9  S   UNL     1       6.013   6.339  16.996  0.00  0.00    +0.000 S 
ATOM     10  H   UNL     1       4.305   4.293  16.981  0.00  0.00    +0.000 HD
ENDROOT
BRANCH   7  11
ATOM     11  C   UNL     1       3.407   2.239  18.289  0.00  0.00    +0.000 C 
BRANCH  11  12
ATOM     12  C   UNL     1       2.156   2.479  19.128  0.00  0.00    +0.000 C 
ATOM     13  C   UNL     1       2.371   2.256  20.625  0.00  0.00    +0.000 C 
ATOM     14  C   UNL     1       1.184   2.961  21.269  0.00  0.00    +0.000 C 
ATOM     15  C   UNL     1       0.814   4.104  20.326  0.00  0.00    +0.000 C 
ATOM     16  C   UNL     1       1.692   3.937  19.088  0.00  0.00    +0.000 C 
ENDBRANCH  11  12
ENDBRANCH   7  11
TORSDOF 2
ENDMDL
MODEL 2
REMARK VINA RESULT:      -6.7      1.404      1.587
REMARK  Name = 
REMARK  3 active torsions:
REMARK  status: ('A' for Active; 'I' for Inactive)
REMARK    1  A    between atoms: C_1  and  C_2
REMARK    2  A    between atoms: C_7  and  C_9
REMARK    3  A    between atoms: C_9  and  C_10
REMARK                            x       y       z     vdW  Elec       q    Type
REMARK                         _______ _______ _______ _____ _____    ______ ____
ROOT
ATOM      1  C   UNL     1       8.050   7.908  17.713  0.00  0.00    +0.000 C 
ATOM      2  C   UNL     1       6.942   6.914  17.710  0.00  0.00    +0.000 A 
ATOM      3  C   UNL     1       5.846   6.859  16.878  0.00  0.00    +0.000 A 
ATOM      4  N   UNL     1       5.008   5.784  17.069  0.00  0.00    +0.000 NA
ATOM      5  C   UNL     1       5.467   5.035  18.034  0.00  0.00    +0.000 A 
ATOM      6  N   UNL     1       4.966   3.842  18.496  0.00  0.00    +0.000 N 
ATOM      7  C   UNL     1       3.993   3.170  17.786  0.00  0.00    +0.000 C 
ATOM      8  O   UNL     1       3.509   3.513  16.708  0.00  0.00    +0.000 OA
ATOM      9  S   UNL     1       6.881   5.600  18.818  0.00  0.00    +0.000 S 
ATOM     10  H   UNL     1       5.410   3.431  19.300  0.00  0.00    +0.000 HD
ENDROOT
BRANCH   7  11
ATOM     11  C   UNL     1       3.544   1.862  18.409  0.00  0.00    +0.000 C 
BRANCH  11  12
ATOM     12  C   UNL     1       2.467   2.019  19.477  0.00  0.00    +0.000 C 
ATOM     13  C   UNL     1       3.005   2.516  20.819  0.00  0.00    +0.000 C 
ATOM     14  C   UNL     1       1.760   3.010  21.546  0.00  0.00    +0.000 C 
ATOM     15  C   UNL     1       0.798   3.479  20.456  0.00  0.00    +0.000 C 
ATOM     16  C   UNL     1       1.444   3.102  19.124  0.00  0.00    +0.000 C 
ENDBRANCH  11  12
ENDBRANCH   7  11
TORSDOF 2
ENDMDL
MODEL 3
REMARK VINA RESULT:      -6.4      2.126      6.051
REMARK  Name = 
REMARK  3 active torsions:
REMARK  status: ('A' for Active; 'I' for Inactive)
REMARK    1  A    between atoms: C_1  and  C_2
REMARK    2  A    between atoms: C_7  and  C_9
REMARK    3  A    between atoms: C_9  and  C_10
REMARK                            x       y       z     vdW  Elec       q    Type
REMARK                         _______ _______ _______ _____ _____    ______ ____
ROOT
ATOM      1  C   UNL     1       1.434   2.499  21.771  0.00  0.00    +0.000 C 
ATOM      2  C   UNL     1       2.140   2.858  20.511  0.00  0.00    +0.000 A 
ATOM      3  C   UNL     1       1.642   3.518  19.410  0.00  0.00    +0.000 A 
ATOM      4  N   UNL     1       2.548   3.766  18.405  0.00  0.00    +0.000 NA
ATOM      5  C   UNL     1       3.719   3.300  18.743  0.00  0.00    +0.000 A 
ATOM      6  N   UNL     1       4.903   3.395  18.053  0.00  0.00    +0.000 N 
ATOM      7  C   UNL     1       5.018   4.242  16.971  0.00  0.00    +0.000 C 
ATOM      8  O   UNL     1       4.144   4.993  16.537  0.00  0.00    +0.000 OA
ATOM      9  S   UNL     1       3.796   2.476  20.242  0.00  0.00    +0.000 S 
ATOM     10  H   UNL     1       5.702   2.914  18.432  0.00  0.00    +0.000 HD
ENDROOT
BRANCH   7  11
ATOM     11  C   UNL     1       6.385   4.252  16.316  0.00  0.00    +0.000 C 
BRANCH  11  12
ATOM     12  C   UNL     1       7.319   5.335  16.845  0.00  0.00    +0.000 C 
ATOM     13  C   UNL     1       6.712   6.737  16.811  0.00  0.00    +0.000 C 
ATOM     14  C   UNL     1       7.597   7.537  17.758  0.00  0.00    +0.000 C 
ATOM     15  C   UNL     1       8.110   6.539  18.794  0.00  0.00    +0.000 C 
ATOM     16  C   UNL     1       7.637   5.162  18.332  0.00  0.00    +0.000 C 
ENDBRANCH  11  12
ENDBRANCH   7  11
TORSDOF 2
ENDMDL
MODEL 4
REMARK VINA RESULT:      -6.4      3.482      6.441
REMARK  Name = 
REMARK  3 active torsions:
REMARK  status: ('A' for Active; 'I' for Inactive)
REMARK    1  A    between atoms: C_1  and  C_2
REMARK    2  A    between atoms: C_7  and  C_9
REMARK    3  A    between atoms: C_9  and  C_10
REMARK                            x       y       z     vdW  Elec       q    Type
REMARK                         _______ _______ _______ _____ _____    ______ ____
ROOT
ATOM      1  C   UNL     1       1.210   2.400  19.752  0.00  0.00    +0.000 C 
ATOM      2  C   UNL     1       2.434   3.045  19.204  0.00  0.00    +0.000 A 
ATOM      3  C   UNL     1       3.671   3.174  19.795  0.00  0.00    +0.000 A 
ATOM      4  N   UNL     1       4.640   3.770  19.023  0.00  0.00    +0.000 NA
ATOM      5  C   UNL     1       4.142   4.088  17.859  0.00  0.00    +0.000 A 
ATOM      6  N   UNL     1       4.788   4.642  16.781  0.00  0.00    +0.000 N 
ATOM      7  C   UNL     1       6.165   4.713  16.749  0.00  0.00    +0.000 C 
ATOM      8  O   UNL     1       6.937   4.288  17.609  0.00  0.00    +0.000 OA
ATOM      9  S   UNL     1       2.475   3.762  17.640  0.00  0.00    +0.000 S 
ATOM     10  H   UNL     1       4.230   4.886  15.979  0.00  0.00    +0.000 HD
ENDROOT
BRANCH   7  11
ATOM     11  C   UNL     1       6.739   5.337  15.493  0.00  0.00    +0.000 C 
BRANCH  11  12
ATOM     12  C   UNL     1       6.864   4.370  14.320  0.00  0.00    +0.000 C 
ATOM     13  C   UNL     1       5.521   3.976  13.706  0.00  0.00    +0.000 C 
ATOM     14  C   UNL     1       5.899   3.406  12.345  0.00  0.00    +0.000 C 
ATOM     15  C   UNL     1       7.177   4.133  11.928  0.00  0.00    +0.000 C 
ATOM     16  C   UNL     1       7.591   4.989  13.123  0.00  0.00    +0.000 C 
ENDBRANCH  11  12
ENDBRANCH   7  11
TORSDOF 2
ENDMDL
MODEL 5
REMARK VINA RESULT:      -6.3      2.618      3.287
REMARK  Name = 
REMARK  3 active torsions:
REMARK  status: ('A' for Active; 'I' for Inactive)
REMARK    1  A    between atoms: C_1  and  C_2
REMARK    2  A    between atoms: C_7  and  C_9
REMARK    3  A    between atoms: C_9  and  C_10
REMARK                            x       y       z     vdW  Elec       q    Type
REMARK                         _______ _______ _______ _____ _____    ______ ____
ROOT
ATOM      1  C   UNL     1       7.014   4.754  14.948  0.00  0.00    +0.000 C 
ATOM      2  C   UNL     1       6.056   5.342  15.923  0.00  0.00    +0.000 A 
ATOM      3  C   UNL     1       5.287   6.476  15.787  0.00  0.00    +0.000 A 
ATOM      4  N   UNL     1       4.441   6.750  16.837  0.00  0.00    +0.000 NA
ATOM      5  C   UNL     1       4.568   5.832  17.756  0.00  0.00    +0.000 A 
ATOM      6  N   UNL     1       3.866   5.700  18.929  0.00  0.00    +0.000 N 
ATOM      7  C   UNL     1       2.731   6.450  19.154  0.00  0.00    +0.000 C 
ATOM      8  O   UNL     1       2.221   7.253  18.373  0.00  0.00    +0.000 OA
ATOM      9  S   UNL     1       5.751   4.630  17.459  0.00  0.00    +0.000 S 
ATOM     10  H   UNL     1       4.144   4.965  19.558  0.00  0.00    +0.000 HD
ENDROOT
BRANCH   7  11
ATOM     11  C   UNL     1       2.053   6.190  20.485  0.00  0.00    +0.000 C 
BRANCH  11  12
ATOM     12  C   UNL     1       1.363   4.833  20.576  0.00  0.00    +0.000 C 
ATOM     13  C   UNL     1       1.325   4.076  19.250  0.00  0.00    +0.000 C 
ATOM     14  C   UNL     1       1.020   2.641  19.661  0.00  0.00    +0.000 C 
ATOM     15  C   UNL     1       1.617   2.471  21.057  0.00  0.00    +0.000 C 
ATOM     16  C   UNL     1       2.113   3.853  21.481  0.00  0.00    +0.000 C 
ENDBRANCH  11  12
ENDBRANCH   7  11
TORSDOF 2
ENDMDL
MODEL 6
REMARK VINA RESULT:      -6.2      3.376      6.369
REMARK  Name = 
REMARK  3 active torsions:
REMARK  status: ('A' for Active; 'I' for Inactive)
REMARK    1  A    between atoms: C_1  and  C_2
REMARK    2  A    between atoms: C_7  and  C_9
REMARK    3  A    between atoms: C_9  and  C_10
REMARK                            x       y       z     vdW  Elec       q    Type
REMARK                         _______ _______ _______ _____ _____    ______ ____
ROOT
ATOM      1  C   UNL     1       1.836   2.915  21.438  0.00  0.00    +0.000 C 
ATOM      2  C   UNL     1       2.618   3.522  20.327  0.00  0.00    +0.000 A 
ATOM      3  C   UNL     1       2.580   4.818  19.863  0.00  0.00    +0.000 A 
ATOM      4  N   UNL     1       3.465   5.114  18.852  0.00  0.00    +0.000 NA
ATOM      5  C   UNL     1       4.166   4.054  18.556  0.00  0.00    +0.000 A 
ATOM      6  N   UNL     1       5.193   3.939  17.652  0.00  0.00    +0.000 N 
ATOM      7  C   UNL     1       5.766   5.064  17.096  0.00  0.00    +0.000 C 
ATOM      8  O   UNL     1       5.472   6.232  17.348  0.00  0.00    +0.000 OA
ATOM      9  S   UNL     1       3.765   2.625  19.411  0.00  0.00    +0.000 S 
ATOM     10  H   UNL     1       5.580   3.022  17.500  0.00  0.00    +0.000 HD
ENDROOT
BRANCH   7  11
ATOM     11  C   UNL     1       6.897   4.785  16.125  0.00  0.00    +0.000 C 
BRANCH  11  12
ATOM     12  C   UNL     1       6.478   4.815  14.659  0.00  0.00    +0.000 C 
ATOM     13  C   UNL     1       7.651   4.963  13.691  0.00  0.00    +0.000 C 
ATOM     14  C   UNL     1       7.071   4.528  12.351  0.00  0.00    +0.000 C 
ATOM     15  C   UNL     1       5.982   3.509  12.678  0.00  0.00    +0.000 C 
ATOM     16  C   UNL     1       5.852   3.496  14.200  0.00  0.00    +0.000 C 
ENDBRANCH  11  12
ENDBRANCH   7  11
TORSDOF 2
ENDMDL
MODEL 7
REMARK VINA RESULT:      -6.1      3.249      6.186
REMARK  Name = 
REMARK  3 active torsions:
REMARK  status: ('A' for Active; 'I' for Inactive)
REMARK    1  A    between atoms: C_1  and  C_2
REMARK    2  A    between atoms: C_7  and  C_9
REMARK    3  A    between atoms: C_9  and  C_10
REMARK                            x       y       z     vdW  Elec       q    Type
REMARK                         _______ _______ _______ _____ _____    ______ ____
ROOT
ATOM      1  C   UNL     1       2.210   2.631  21.537  0.00  0.00    +0.000 C 
ATOM      2  C   UNL     1       2.904   3.311  20.410  0.00  0.00    +0.000 A 
ATOM      3  C   UNL     1       2.666   4.564  19.891  0.00  0.00    +0.000 A 
ATOM      4  N   UNL     1       3.510   4.958  18.878  0.00  0.00    +0.000 NA
ATOM      5  C   UNL     1       4.378   4.014  18.636  0.00  0.00    +0.000 A 
ATOM      6  N   UNL     1       5.426   4.031  17.749  0.00  0.00    +0.000 N 
ATOM      7  C   UNL     1       5.821   5.210  17.152  0.00  0.00    +0.000 C 
ATOM      8  O   UNL     1       5.337   6.325  17.350  0.00  0.00    +0.000 OA
ATOM      9  S   UNL     1       4.197   2.575  19.546  0.00  0.00    +0.000 S 
ATOM     10  H   UNL     1       5.958   3.182  17.641  0.00  0.00    +0.000 HD
ENDROOT
BRANCH   7  11
ATOM     11  C   UNL     1       6.998   5.079  16.207  0.00  0.00    +0.000 C 
BRANCH  11  12
ATOM     12  C   UNL     1       6.710   4.239  14.967  0.00  0.00    +0.000 C 
ATOM     13  C   UNL     1       5.272   4.363  14.465  0.00  0.00    +0.000 C 
ATOM     14  C   UNL     1       5.340   3.833  13.038  0.00  0.00    +0.000 C 
ATOM     15  C   UNL     1       6.753   4.140  12.545  0.00  0.00    +0.000 C 
ATOM     16  C   UNL     1       7.513   4.698  13.747  0.00  0.00    +0.000 C 
ENDBRANCH  11  12
ENDBRANCH   7  11
TORSDOF 2
ENDMDL
MODEL 8
REMARK VINA RESULT:      -6.1      3.609      6.277
REMARK  Name = 
REMARK  3 active torsions:
REMARK  status: ('A' for Active; 'I' for Inactive)
REMARK    1  A    between atoms: C_1  and  C_2
REMARK    2  A    between atoms: C_7  and  C_9
REMARK    3  A    between atoms: C_9  and  C_10
REMARK                            x       y       z     vdW  Elec       q    Type
REMARK                         _______ _______ _______ _____ _____    ______ ____
ROOT
ATOM      1  C   UNL     1       1.340   4.745  20.531  0.00  0.00    +0.000 C 
ATOM      2  C   UNL     1       2.580   4.870  19.718  0.00  0.00    +0.000 A 
ATOM      3  C   UNL     1       3.840   4.391  20.000  0.00  0.00    +0.000 A 
ATOM      4  N   UNL     1       4.790   4.607  19.029  0.00  0.00    +0.000 NA
ATOM      5  C   UNL     1       4.254   5.242  18.022  0.00  0.00    +0.000 A 
ATOM      6  N   UNL     1       4.839   5.594  16.831  0.00  0.00    +0.000 N 
ATOM      7  C   UNL     1       6.067   5.078  16.474  0.00  0.00    +0.000 C 
ATOM      8  O   UNL     1       6.732   4.267  17.118  0.00  0.00    +0.000 OA
ATOM      9  S   UNL     1       2.608   5.682  18.202  0.00  0.00    +0.000 S 
ATOM     10  H   UNL     1       4.293   6.145  16.189  0.00  0.00    +0.000 HD
ENDROOT
BRANCH   7  11
ATOM     11  C   UNL     1       6.583   5.544  15.127  0.00  0.00    +0.000 C 
BRANCH  11  12
ATOM     12  C   UNL     1       6.736   4.427  14.099  0.00  0.00    +0.000 C 
ATOM     13  C   UNL     1       5.405   3.921  13.543  0.00  0.00    +0.000 C 
ATOM     14  C   UNL     1       5.804   3.178  12.274  0.00  0.00    +0.000 C 
ATOM     15  C   UNL     1       7.067   3.869  11.763  0.00  0.00    +0.000 C 
ATOM     16  C   UNL     1       7.455   4.891  12.830  0.00  0.00    +0.000 C 
ENDBRANCH  11  12
ENDBRANCH   7  11
TORSDOF 2
ENDMDL
MODEL 9
REMARK VINA RESULT:      -6.1      4.429      6.463
REMARK  Name = 
REMARK  3 active torsions:
REMARK  status: ('A' for Active; 'I' for Inactive)
REMARK    1  A    between atoms: C_1  and  C_2
REMARK    2  A    between atoms: C_7  and  C_9
REMARK    3  A    between atoms: C_9  and  C_10
REMARK                            x       y       z     vdW  Elec       q    Type
REMARK                         _______ _______ _______ _____ _____    ______ ____
ROOT
ATOM      1  C   UNL     1       2.569   4.731  20.499  0.00  0.00    +0.000 C 
ATOM      2  C   UNL     1       3.174   4.974  19.161  0.00  0.00    +0.000 A 
ATOM      3  C   UNL     1       3.225   6.150  18.447  0.00  0.00    +0.000 A 
ATOM      4  N   UNL     1       3.905   6.091  17.252  0.00  0.00    +0.000 NA
ATOM      5  C   UNL     1       4.364   4.884  17.066  0.00  0.00    +0.000 A 
ATOM      6  N   UNL     1       5.145   4.421  16.035  0.00  0.00    +0.000 N 
ATOM      7  C   UNL     1       5.742   5.302  15.158  0.00  0.00    +0.000 C 
ATOM      8  O   UNL     1       5.681   6.531  15.205  0.00  0.00    +0.000 OA
ATOM      9  S   UNL     1       3.954   3.731  18.264  0.00  0.00    +0.000 S 
ATOM     10  H   UNL     1       5.352   3.436  16.015  0.00  0.00    +0.000 HD
ENDROOT
BRANCH   7  11
ATOM     11  C   UNL     1       6.584   4.650  14.080  0.00  0.00    +0.000 C 
BRANCH  11  12
ATOM     12  C   UNL     1       5.857   3.562  13.296  0.00  0.00    +0.000 C 
ATOM     13  C   UNL     1       4.701   4.089  12.447  0.00  0.00    +0.000 C 
ATOM     14  C   UNL     1       4.436   2.961  11.457  0.00  0.00    +0.000 C 
ATOM     15  C   UNL     1       5.779   2.261  11.252  0.00  0.00    +0.000 C 
ATOM     16  C   UNL     1       6.750   2.901  12.243  0.00  0.00    +0.000 C 
ENDBRANCH  11  12
ENDBRANCH   7  11
TORSDOF 2
ENDMDL
