MODEL 1
REMARK VINA RESULT:      -7.9      0.000      0.000
REMARK  Name = 
REMARK  8 active torsions:
REMARK  status: ('A' for Active; 'I' for Inactive)
REMARK    1  A    between atoms: C_1  and  O_2
REMARK    2  A    between atoms: O_2  and  C_3
REMARK    3  A    between atoms: C_6  and  C_7
REMARK    4  A    between atoms: C_7  and  N_8
REMARK    5  A    between atoms: C_11  and  C_12
REMARK    6  A    between atoms: C_18  and  O_19
REMARK    7  A    between atoms: O_19  and  C_20
REMARK    8  A    between atoms: C_20  and  C_21
REMARK                            x       y       z     vdW  Elec       q    Type
REMARK                         _______ _______ _______ _____ _____    ______ ____
ROOT
ATOM      1  C   UNL     1       1.335   8.104  20.155  0.00  0.00    +0.000 A 
ATOM      2  C   UNL     1       1.557   8.981  19.084  0.00  0.00    +0.000 A 
ATOM      3  C   UNL     1       2.446   8.666  18.058  0.00  0.00    +0.000 A 
ATOM      4  C   UNL     1       3.133   7.453  18.068  0.00  0.00    +0.000 A 
ATOM      5  C   UNL     1       2.880   6.545  19.106  0.00  0.00    +0.000 A 
ATOM      6  C   UNL     1       1.961   6.837  20.127  0.00  0.00    +0.000 A 
ENDROOT
BRANCH   1   8
ATOM      7  C   UNL     1       0.974   9.246  22.252  0.00  0.00    +0.000 C 
ATOM      8  O   UNL     1       0.500   8.411  21.196  0.00  0.00    +0.000 OA
ENDBRANCH   1   8
BRANCH   4   9
ATOM      9  C   UNL     1       4.064   7.102  16.932  0.00  0.00    +0.000 C 
BRANCH   9  10
ATOM     10  N   UNL     1       4.957   5.949  17.205  0.00  0.00    +0.000 NA
ATOM     11  C   UNL     1       4.571   4.799  16.371  0.00  0.00    +0.000 C 
ATOM     12  C   UNL     1       5.598   3.665  16.350  0.00  0.00    +0.000 C 
ATOM     13  C   UNL     1       6.992   4.167  15.977  0.00  0.00    +0.000 C 
ATOM     14  C   UNL     1       7.381   5.276  16.952  0.00  0.00    +0.000 C 
ATOM     15  C   UNL     1       6.345   6.398  17.002  0.00  0.00    +0.000 C 
BRANCH  13  16
ATOM     16  C   UNL     1       7.078   4.609  14.518  0.00  0.00    +0.000 C 
ATOM     17  N   UNL     1       6.405   3.818  13.633  0.00  0.00    +0.000 N 
ATOM     18  O   UNL     1       7.706   5.581  14.117  0.00  0.00    +0.000 OA
ATOM     19  H   UNL     1       6.079   2.893  13.877  0.00  0.00    +0.000 HD
ATOM     20  H   UNL     1       6.513   4.041  12.651  0.00  0.00    +0.000 HD
ENDBRANCH  13  16
ENDBRANCH   9  10
ENDBRANCH   4   9
BRANCH   6  21
ATOM     21  O   UNL     1       1.791   5.782  21.003  0.00  0.00    +0.000 OA
BRANCH  21  22
ATOM     22  C   UNL     1       1.056   4.672  20.491  0.00  0.00    +0.000 C 
BRANCH  22  23
ATOM     23  C   UNL     1       1.875   3.661  19.700  0.00  0.00    +0.000 A 
ATOM     24  C   UNL     1       1.539   3.170  18.427  0.00  0.00    +0.000 A 
ATOM     25  C   UNL     1       2.334   2.194  17.815  0.00  0.00    +0.000 A 
ATOM     26  C   UNL     1       3.469   1.703  18.457  0.00  0.00    +0.000 A 
ATOM     27  C   UNL     1       3.823   2.185  19.714  0.00  0.00    +0.000 A 
ATOM     28  C   UNL     1       3.029   3.154  20.327  0.00  0.00    +0.000 A 
ENDBRANCH  22  23
ENDBRANCH  21  22
ENDBRANCH   6  21
TORSDOF 7
ENDMDL
MODEL 2
REMARK VINA RESULT:      -7.6      0.747      1.204
REMARK  Name = 
REMARK  8 active torsions:
REMARK  status: ('A' for Active; 'I' for Inactive)
REMARK    1  A    between atoms: C_1  and  O_2
REMARK    2  A    between atoms: O_2  and  C_3
REMARK    3  A    between atoms: C_6  and  C_7
REMARK    4  A    between atoms: C_7  and  N_8
REMARK    5  A    between atoms: C_11  and  C_12
REMARK    6  A    between atoms: C_18  and  O_19
REMARK    7  A    between atoms: O_19  and  C_20
REMARK    8  A    between atoms: C_20  and  C_21
REMARK                            x       y       z     vdW  Elec       q    Type
REMARK                         _______ _______ _______ _____ _____    ______ ____
ROOT
ATOM      1  C   UNL     1       1.509   7.986  20.287  0.00  0.00    +0.000 A 
ATOM      2  C   UNL     1       1.690   8.885  19.227  0.00  0.00    +0.000 A 
ATOM      3  C   UNL     1       2.495   8.569  18.134  0.00  0.00    +0.000 A 
ATOM      4  C   UNL     1       3.135   7.333  18.063  0.00  0.00    +0.000 A 
ATOM      5  C   UNL     1       2.921   6.404  19.092  0.00  0.00    +0.000 A 
ATOM      6  C   UNL     1       2.085   6.699  20.182  0.00  0.00    +0.000 A 
ENDROOT
BRANCH   1   8
ATOM      7  C   UNL     1      -0.482   8.978  21.227  0.00  0.00    +0.000 C 
ATOM      8  O   UNL     1       0.760   8.291  21.391  0.00  0.00    +0.000 OA
ENDBRANCH   1   8
BRANCH   4   9
ATOM      9  C   UNL     1       3.973   6.982  16.857  0.00  0.00    +0.000 C 
BRANCH   9  10
ATOM     10  N   UNL     1       4.944   5.884  17.082  0.00  0.00    +0.000 NA
ATOM     11  C   UNL     1       4.547   4.691  16.318  0.00  0.00    +0.000 C 
ATOM     12  C   UNL     1       5.625   3.608  16.239  0.00  0.00    +0.000 C 
ATOM     13  C   UNL     1       6.954   4.164  15.731  0.00  0.00    +0.000 C 
ATOM     14  C   UNL     1       7.369   5.322  16.636  0.00  0.00    +0.000 C 
ATOM     15  C   UNL     1       6.285   6.393  16.746  0.00  0.00    +0.000 C 
BRANCH  13  16
ATOM     16  C   UNL     1       6.891   4.562  14.258  0.00  0.00    +0.000 C 
ATOM     17  N   UNL     1       7.791   5.513  13.876  0.00  0.00    +0.000 N 
ATOM     18  O   UNL     1       6.099   4.105  13.442  0.00  0.00    +0.000 OA
ATOM     19  H   UNL     1       8.292   6.080  14.546  0.00  0.00    +0.000 HD
ATOM     20  H   UNL     1       7.717   5.854  12.926  0.00  0.00    +0.000 HD
ENDBRANCH  13  16
ENDBRANCH   9  10
ENDBRANCH   4   9
BRANCH   6  21
ATOM     21  O   UNL     1       1.936   5.626  21.039  0.00  0.00    +0.000 OA
BRANCH  21  22
ATOM     22  C   UNL     1       1.204   4.519  20.516  0.00  0.00    +0.000 C 
BRANCH  22  23
ATOM     23  C   UNL     1       2.046   3.452  19.830  0.00  0.00    +0.000 A 
ATOM     24  C   UNL     1       3.236   2.910  20.344  0.00  0.00    +0.000 A 
ATOM     25  C   UNL     1       3.966   1.976  19.599  0.00  0.00    +0.000 A 
ATOM     26  C   UNL     1       3.519   1.569  18.343  0.00  0.00    +0.000 A 
ATOM     27  C   UNL     1       2.337   2.088  17.822  0.00  0.00    +0.000 A 
ATOM     28  C   UNL     1       1.612   3.023  18.561  0.00  0.00    +0.000 A 
ENDBRANCH  22  23
ENDBRANCH  21  22
ENDBRANCH   6  21
TORSDOF 7
ENDMDL
MODEL 3
REMARK VINA RESULT:      -7.4      3.215      7.587
REMARK  Name = 
REMARK  8 active torsions:
REMARK  status: ('A' for Active; 'I' for Inactive)
REMARK    1  A    between atoms: C_1  and  O_2
REMARK    2  A    between atoms: O_2  and  C_3
REMARK    3  A    between atoms: C_6  and  C_7
REMARK    4  A    between atoms: C_7  and  N_8
REMARK    5  A    between atoms: C_11  and  C_12
REMARK    6  A    between atoms: C_18  and  O_19
REMARK    7  A    between atoms: O_19  and  C_20
REMARK    8  A    between atoms: C_20  and  C_21
REMARK                            x       y       z     vdW  Elec       q    Type
REMARK                         _______ _______ _______ _____ _____    ______ ____
ROOT
ATOM      1  C   UNL     1       6.520   5.603  15.840  0.00  0.00    +0.000 A 
ATOM      2  C   UNL     1       5.307   4.898  15.840  0.00  0.00    +0.000 A 
ATOM      3  C   UNL     1       4.330   5.133  16.806  0.00  0.00    +0.000 A 
ATOM      4  C   UNL     1       4.532   6.092  17.796  0.00  0.00    +0.000 A 
ATOM      5  C   UNL     1       5.719   6.840  17.776  0.00  0.00    +0.000 A 
ATOM      6  C   UNL     1       6.696   6.636  16.788  0.00  0.00    +0.000 A 
ENDROOT
BRANCH   1   8
ATOM      7  C   UNL     1       7.196   4.677  13.714  0.00  0.00    +0.000 C 
ATOM      8  O   UNL     1       7.512   5.358  14.929  0.00  0.00    +0.000 OA
ENDBRANCH   1   8
BRANCH   4   9
ATOM      9  C   UNL     1       3.452   6.369  18.814  0.00  0.00    +0.000 C 
BRANCH   9  10
ATOM     10  N   UNL     1       3.254   5.286  19.809  0.00  0.00    +0.000 NA
ATOM     11  C   UNL     1       1.818   5.072  20.048  0.00  0.00    +0.000 C 
ATOM     12  C   UNL     1       1.493   3.792  20.821  0.00  0.00    +0.000 C 
ATOM     13  C   UNL     1       2.129   2.562  20.176  0.00  0.00    +0.000 C 
ATOM     14  C   UNL     1       3.634   2.799  20.065  0.00  0.00    +0.000 C 
ATOM     15  C   UNL     1       3.966   4.093  19.322  0.00  0.00    +0.000 C 
BRANCH  13  16
ATOM     16  C   UNL     1       1.488   2.213  18.835  0.00  0.00    +0.000 C 
ATOM     17  N   UNL     1       2.347   1.735  17.889  0.00  0.00    +0.000 N 
ATOM     18  O   UNL     1       0.299   2.349  18.570  0.00  0.00    +0.000 OA
ATOM     19  H   UNL     1       3.350   1.827  17.977  0.00  0.00    +0.000 HD
ATOM     20  H   UNL     1       1.963   1.574  16.966  0.00  0.00    +0.000 HD
ENDBRANCH  13  16
ENDBRANCH   9  10
ENDBRANCH   4   9
BRANCH   6  21
ATOM     21  O   UNL     1       7.746   7.528  16.892  0.00  0.00    +0.000 OA
BRANCH  21  22
ATOM     22  C   UNL     1       8.069   7.945  18.217  0.00  0.00    +0.000 C 
BRANCH  22  23
ATOM     23  C   UNL     1       8.480   9.405  18.355  0.00  0.00    +0.000 A 
ATOM     24  C   UNL     1       8.081  10.439  17.491  0.00  0.00    +0.000 A 
ATOM     25  C   UNL     1       8.569  11.738  17.674  0.00  0.00    +0.000 A 
ATOM     26  C   UNL     1       9.450  12.022  18.717  0.00  0.00    +0.000 A 
ATOM     27  C   UNL     1       9.848  11.012  19.587  0.00  0.00    +0.000 A 
ATOM     28  C   UNL     1       9.367   9.715  19.402  0.00  0.00    +0.000 A 
ENDBRANCH  22  23
ENDBRANCH  21  22
ENDBRANCH   6  21
TORSDOF 7
ENDMDL
MODEL 4
REMARK VINA RESULT:      -7.4      2.903      7.017
REMARK  Name = 
REMARK  8 active torsions:
REMARK  status: ('A' for Active; 'I' for Inactive)
REMARK    1  A    between atoms: C_1  and  O_2
REMARK    2  A    between atoms: O_2  and  C_3
REMARK    3  A    between atoms: C_6  and  C_7
REMARK    4  A    between atoms: C_7  and  N_8
REMARK    5  A    between atoms: C_11  and  C_12
REMARK    6  A    between atoms: C_18  and  O_19
REMARK    7  A    between atoms: O_19  and  C_20
REMARK    8  A    between atoms: C_20  and  C_21
REMARK                            x       y       z     vdW  Elec       q    Type
REMARK                         _______ _______ _______ _____ _____    ______ ____
ROOT
ATOM      1  C   UNL     1       6.426   6.303  16.940  0.00  0.00    +0.000 A 
ATOM      2  C   UNL     1       6.167   5.807  18.226  0.00  0.00    +0.000 A 
ATOM      3  C   UNL     1       5.446   4.630  18.420  0.00  0.00    +0.000 A 
ATOM      4  C   UNL     1       4.972   3.905  17.328  0.00  0.00    +0.000 A 
ATOM      5  C   UNL     1       5.269   4.363  16.036  0.00  0.00    +0.000 A 
ATOM      6  C   UNL     1       6.024   5.529  15.828  0.00  0.00    +0.000 A 
ENDROOT
BRANCH   1   8
ATOM      7  C   UNL     1       7.951   7.994  17.746  0.00  0.00    +0.000 C 
ATOM      8  O   UNL     1       7.094   7.479  16.727  0.00  0.00    +0.000 OA
ENDBRANCH   1   8
BRANCH   4   9
ATOM      9  C   UNL     1       4.227   2.610  17.545  0.00  0.00    +0.000 C 
BRANCH   9  10
ATOM     10  N   UNL     1       2.799   2.777  17.913  0.00  0.00    +0.000 NA
ATOM     11  C   UNL     1       2.466   1.915  19.058  0.00  0.00    +0.000 C 
ATOM     12  C   UNL     1       1.115   2.225  19.706  0.00  0.00    +0.000 C 
ATOM     13  C   UNL     1       0.988   3.701  20.079  0.00  0.00    +0.000 C 
ATOM     14  C   UNL     1       1.229   4.538  18.824  0.00  0.00    +0.000 C 
ATOM     15  C   UNL     1       2.562   4.211  18.153  0.00  0.00    +0.000 C 
BRANCH  13  16
ATOM     16  C   UNL     1       1.912   4.090  21.231  0.00  0.00    +0.000 C 
ATOM     17  N   UNL     1       2.407   5.359  21.173  0.00  0.00    +0.000 N 
ATOM     18  O   UNL     1       2.231   3.349  22.153  0.00  0.00    +0.000 OA
ATOM     19  H   UNL     1       2.366   5.915  20.330  0.00  0.00    +0.000 HD
ATOM     20  H   UNL     1       3.086   5.616  21.880  0.00  0.00    +0.000 HD
ENDBRANCH  13  16
ENDBRANCH   9  10
ENDBRANCH   4   9
BRANCH   6  21
ATOM     21  O   UNL     1       6.280   5.762  14.491  0.00  0.00    +0.000 OA
BRANCH  21  22
ATOM     22  C   UNL     1       7.109   4.796  13.847  0.00  0.00    +0.000 C 
BRANCH  22  23
ATOM     23  C   UNL     1       6.401   3.904  12.836  0.00  0.00    +0.000 A 
ATOM     24  C   UNL     1       5.018   3.913  12.584  0.00  0.00    +0.000 A 
ATOM     25  C   UNL     1       4.462   3.005  11.674  0.00  0.00    +0.000 A 
ATOM     26  C   UNL     1       5.272   2.088  11.006  0.00  0.00    +0.000 A 
ATOM     27  C   UNL     1       6.644   2.072  11.237  0.00  0.00    +0.000 A 
ATOM     28  C   UNL     1       7.199   2.973  12.147  0.00  0.00    +0.000 A 
ENDBRANCH  22  23
ENDBRANCH  21  22
ENDBRANCH   6  21
TORSDOF 7
ENDMDL
MODEL 5
REMARK VINA RESULT:      -7.2      1.855      5.056
REMARK  Name = 
REMARK  8 active torsions:
REMARK  status: ('A' for Active; 'I' for Inactive)
REMARK    1  A    between atoms: C_1  and  O_2
REMARK    2  A    between atoms: O_2  and  C_3
REMARK    3  A    between atoms: C_6  and  C_7
REMARK    4  A    between atoms: C_7  and  N_8
REMARK    5  A    between atoms: C_11  and  C_12
REMARK    6  A    between atoms: C_18  and  O_19
REMARK    7  A    between atoms: O_19  and  C_20
REMARK    8  A    between atoms: C_20  and  C_21
REMARK                            x       y       z     vdW  Elec       q    Type
REMARK                         _______ _______ _______ _____ _____    ______ ____
ROOT
ATOM      1  C   UNL     1       2.325   2.960  19.519  0.00  0.00    +0.000 A 
ATOM      2  C   UNL     1       3.172   2.067  18.847  0.00  0.00    +0.000 A 
ATOM      3  C   UNL     1       3.782   2.411  17.642  0.00  0.00    +0.000 A 
ATOM      4  C   UNL     1       3.572   3.669  17.079  0.00  0.00    +0.000 A 
ATOM      5  C   UNL     1       2.769   4.589  17.767  0.00  0.00    +0.000 A 
ATOM      6  C   UNL     1       2.176   4.266  18.999  0.00  0.00    +0.000 A 
ENDROOT
BRANCH   1   8
ATOM      7  C   UNL     1       2.240   3.029  21.932  0.00  0.00    +0.000 C 
ATOM      8  O   UNL     1       1.680   2.629  20.681  0.00  0.00    +0.000 OA
ENDBRANCH   1   8
BRANCH   4   9
ATOM      9  C   UNL     1       4.269   4.048  15.794  0.00  0.00    +0.000 C 
BRANCH   9  10
ATOM     10  N   UNL     1       5.382   5.015  15.962  0.00  0.00    +0.000 NA
ATOM     11  C   UNL     1       4.968   6.116  16.846  0.00  0.00    +0.000 C 
ATOM     12  C   UNL     1       6.119   7.004  17.325  0.00  0.00    +0.000 C 
ATOM     13  C   UNL     1       7.241   6.186  17.961  0.00  0.00    +0.000 C 
ATOM     14  C   UNL     1       7.706   5.139  16.951  0.00  0.00    +0.000 C 
ATOM     15  C   UNL     1       6.557   4.269  16.444  0.00  0.00    +0.000 C 
BRANCH  13  16
ATOM     16  C   UNL     1       6.827   5.572  19.296  0.00  0.00    +0.000 C 
ATOM     17  N   UNL     1       7.851   5.322  20.161  0.00  0.00    +0.000 N 
ATOM     18  O   UNL     1       5.676   5.290  19.610  0.00  0.00    +0.000 OA
ATOM     19  H   UNL     1       8.817   5.315  19.864  0.00  0.00    +0.000 HD
ATOM     20  H   UNL     1       7.614   4.841  21.020  0.00  0.00    +0.000 HD
ENDBRANCH  13  16
ENDBRANCH   9  10
ENDBRANCH   4   9
BRANCH   6  21
ATOM     21  O   UNL     1       1.497   5.333  19.556  0.00  0.00    +0.000 OA
BRANCH  21  22
ATOM     22  C   UNL     1       2.317   6.380  20.070  0.00  0.00    +0.000 C 
BRANCH  22  23
ATOM     23  C   UNL     1       1.908   7.787  19.655  0.00  0.00    +0.000 A 
ATOM     24  C   UNL     1       1.193   8.689  20.461  0.00  0.00    +0.000 A 
ATOM     25  C   UNL     1       0.814   9.938  19.956  0.00  0.00    +0.000 A 
ATOM     26  C   UNL     1       1.144  10.303  18.651  0.00  0.00    +0.000 A 
ATOM     27  C   UNL     1       1.859   9.426  17.842  0.00  0.00    +0.000 A 
ATOM     28  C   UNL     1       2.234   8.179  18.343  0.00  0.00    +0.000 A 
ENDBRANCH  22  23
ENDBRANCH  21  22
ENDBRANCH   6  21
TORSDOF 7
ENDMDL
MODEL 6
REMARK VINA RESULT:      -7.2      1.892      5.254
REMARK  Name = 
REMARK  8 active torsions:
REMARK  status: ('A' for Active; 'I' for Inactive)
REMARK    1  A    between atoms: C_1  and  O_2
REMARK    2  A    between atoms: O_2  and  C_3
REMARK    3  A    between atoms: C_6  and  C_7
REMARK    4  A    between atoms: C_7  and  N_8
REMARK    5  A    between atoms: C_11  and  C_12
REMARK    6  A    between atoms: C_18  and  O_19
REMARK    7  A    between atoms: O_19  and  C_20
REMARK    8  A    between atoms: C_20  and  C_21
REMARK                            x       y       z     vdW  Elec       q    Type
REMARK                         _______ _______ _______ _____ _____    ______ ____
ROOT
ATOM      1  C   UNL     1       2.724   3.555  20.652  0.00  0.00    +0.000 A 
ATOM      2  C   UNL     1       3.465   2.620  19.916  0.00  0.00    +0.000 A 
ATOM      3  C   UNL     1       3.808   2.849  18.585  0.00  0.00    +0.000 A 
ATOM      4  C   UNL     1       3.429   4.032  17.952  0.00  0.00    +0.000 A 
ATOM      5  C   UNL     1       2.733   4.998  18.693  0.00  0.00    +0.000 A 
ATOM      6  C   UNL     1       2.412   4.793  20.045  0.00  0.00    +0.000 A 
ENDROOT
BRANCH   1   8
ATOM      7  C   UNL     1       1.294   2.396  22.216  0.00  0.00    +0.000 C 
ATOM      8  O   UNL     1       2.338   3.333  21.947  0.00  0.00    +0.000 OA
ENDBRANCH   1   8
BRANCH   4   9
ATOM      9  C   UNL     1       3.840   4.291  16.522  0.00  0.00    +0.000 C 
BRANCH   9  10
ATOM     10  N   UNL     1       5.125   5.017  16.375  0.00  0.00    +0.000 NA
ATOM     11  C   UNL     1       5.112   6.242  17.189  0.00  0.00    +0.000 C 
ATOM     12  C   UNL     1       6.481   6.907  17.347  0.00  0.00    +0.000 C 
ATOM     13  C   UNL     1       7.534   5.924  17.856  0.00  0.00    +0.000 C 
ATOM     14  C   UNL     1       7.581   4.732  16.903  0.00  0.00    +0.000 C 
ATOM     15  C   UNL     1       6.211   4.082  16.715  0.00  0.00    +0.000 C 
BRANCH  13  16
ATOM     16  C   UNL     1       7.289   5.510  19.305  0.00  0.00    +0.000 C 
ATOM     17  N   UNL     1       8.393   5.525  20.107  0.00  0.00    +0.000 N 
ATOM     18  O   UNL     1       6.206   5.163  19.761  0.00  0.00    +0.000 OA
ATOM     19  H   UNL     1       9.330   5.572  19.731  0.00  0.00    +0.000 HD
ATOM     20  H   UNL     1       8.275   5.177  21.050  0.00  0.00    +0.000 HD
ENDBRANCH  13  16
ENDBRANCH   9  10
ENDBRANCH   4   9
BRANCH   6  21
ATOM     21  O   UNL     1       1.805   5.894  20.617  0.00  0.00    +0.000 OA
BRANCH  21  22
ATOM     22  C   UNL     1       2.216   7.159  20.102  0.00  0.00    +0.000 C 
BRANCH  22  23
ATOM     23  C   UNL     1       1.394   8.350  20.575  0.00  0.00    +0.000 A 
ATOM     24  C   UNL     1       0.944   8.546  21.892  0.00  0.00    +0.000 A 
ATOM     25  C   UNL     1       0.140   9.648  22.206  0.00  0.00    +0.000 A 
ATOM     26  C   UNL     1      -0.218  10.566  21.219  0.00  0.00    +0.000 A 
ATOM     27  C   UNL     1       0.227  10.392  19.912  0.00  0.00    +0.000 A 
ATOM     28  C   UNL     1       1.024   9.291  19.597  0.00  0.00    +0.000 A 
ENDBRANCH  22  23
ENDBRANCH  21  22
ENDBRANCH   6  21
TORSDOF 7
ENDMDL
MODEL 7
REMARK VINA RESULT:      -7.1      2.749      7.346
REMARK  Name = 
REMARK  8 active torsions:
REMARK  status: ('A' for Active; 'I' for Inactive)
REMARK    1  A    between atoms: C_1  and  O_2
REMARK    2  A    between atoms: O_2  and  C_3
REMARK    3  A    between atoms: C_6  and  C_7
REMARK    4  A    between atoms: C_7  and  N_8
REMARK    5  A    between atoms: C_11  and  C_12
REMARK    6  A    between atoms: C_18  and  O_19
REMARK    7  A    between atoms: O_19  and  C_20
REMARK    8  A    between atoms: C_20  and  C_21
REMARK                            x       y       z     vdW  Elec       q    Type
REMARK                         _______ _______ _______ _____ _____    ______ ____
ROOT
ATOM      1  C   UNL     1       3.366   3.744  17.518  0.00  0.00    +0.000 A 
ATOM      2  C   UNL     1       2.115   4.281  17.856  0.00  0.00    +0.000 A 
ATOM      3  C   UNL     1       1.952   5.642  18.109  0.00  0.00    +0.000 A 
ATOM      4  C   UNL     1       3.038   6.511  18.019  0.00  0.00    +0.000 A 
ATOM      5  C   UNL     1       4.283   5.995  17.631  0.00  0.00    +0.000 A 
ATOM      6  C   UNL     1       4.451   4.631  17.341  0.00  0.00    +0.000 A 
ENDROOT
BRANCH   1   8
ATOM      7  C   UNL     1       3.597   1.518  18.428  0.00  0.00    +0.000 C 
ATOM      8  O   UNL     1       3.559   2.405  17.309  0.00  0.00    +0.000 OA
ENDBRANCH   1   8
BRANCH   4   9
ATOM      9  C   UNL     1       2.844   7.990  18.255  0.00  0.00    +0.000 C 
BRANCH   9  10
ATOM     10  N   UNL     1       1.487   8.365  18.721  0.00  0.00    +0.000 NA
ATOM     11  C   UNL     1       1.495   8.596  20.174  0.00  0.00    +0.000 C 
ATOM     12  C   UNL     1       0.231   9.272  20.709  0.00  0.00    +0.000 C 
ATOM     13  C   UNL     1      -0.089  10.560  19.953  0.00  0.00    +0.000 C 
ATOM     14  C   UNL     1      -0.201  10.230  18.466  0.00  0.00    +0.000 C 
ATOM     15  C   UNL     1       1.045   9.526  17.931  0.00  0.00    +0.000 C 
BRANCH  13  16
ATOM     16  C   UNL     1       0.924  11.667  20.236  0.00  0.00    +0.000 C 
ATOM     17  N   UNL     1       1.162  12.514  19.194  0.00  0.00    +0.000 N 
ATOM     18  O   UNL     1       1.521  11.816  21.295  0.00  0.00    +0.000 OA
ATOM     19  H   UNL     1       0.882  12.296  18.248  0.00  0.00    +0.000 HD
ATOM     20  H   UNL     1       1.889  13.207  19.327  0.00  0.00    +0.000 HD
ENDBRANCH  13  16
ENDBRANCH   9  10
ENDBRANCH   4   9
BRANCH   6  21
ATOM     21  O   UNL     1       5.727   4.339  16.896  0.00  0.00    +0.000 OA
BRANCH  21  22
ATOM     22  C   UNL     1       6.319   5.319  16.044  0.00  0.00    +0.000 C 
BRANCH  22  23
ATOM     23  C   UNL     1       6.591   4.858  14.619  0.00  0.00    +0.000 A 
ATOM     24  C   UNL     1       7.596   5.375  13.783  0.00  0.00    +0.000 A 
ATOM     25  C   UNL     1       7.719   4.920  12.465  0.00  0.00    +0.000 A 
ATOM     26  C   UNL     1       6.853   3.948  11.968  0.00  0.00    +0.000 A 
ATOM     27  C   UNL     1       5.858   3.418  12.785  0.00  0.00    +0.000 A 
ATOM     28  C   UNL     1       5.731   3.874  14.098  0.00  0.00    +0.000 A 
ENDBRANCH  22  23
ENDBRANCH  21  22
ENDBRANCH   6  21
TORSDOF 7
ENDMDL
MODEL 8
REMARK VINA RESULT:      -7.1      2.878      5.990
REMARK  Name = 
REMARK  8 active torsions:
REMARK  status: ('A' for Active; 'I' for Inactive)
REMARK    1  A    between atoms: C_1  and  O_2
REMARK    2  A    between atoms: O_2  and  C_3
REMARK    3  A    between atoms: C_6  and  C_7
REMARK    4  A    between atoms: C_7  and  N_8
REMARK    5  A    between atoms: C_11  and  C_12
REMARK    6  A    between atoms: C_18  and  O_19
REMARK    7  A    between atoms: O_19  and  C_20
REMARK    8  A    between atoms: C_20  and  C_21
REMARK                            x       y       z     vdW  Elec       q    Type
REMARK                         _______ _______ _______ _____ _____    ______ ____
ROOT
ATOM      1  C   UNL     1       5.531   6.806  17.235  0.00  0.00    +0.000 A 
ATOM      2  C   UNL     1       4.522   7.674  17.675  0.00  0.00    +0.000 A 
ATOM      3  C   UNL     1       3.217   7.229  17.879  0.00  0.00    +0.000 A 
ATOM      4  C   UNL     1       2.885   5.892  17.660  0.00  0.00    +0.000 A 
ATOM      5  C   UNL     1       3.897   5.003  17.271  0.00  0.00    +0.000 A 
ATOM      6  C   UNL     1       5.223   5.434  17.095  0.00  0.00    +0.000 A 
ENDROOT
BRANCH   1   8
ATOM      7  C   UNL     1       7.767   7.229  18.044  0.00  0.00    +0.000 C 
ATOM      8  O   UNL     1       6.808   7.230  16.986  0.00  0.00    +0.000 OA
ENDBRANCH   1   8
BRANCH   4   9
ATOM      9  C   UNL     1       1.479   5.409  17.923  0.00  0.00    +0.000 C 
BRANCH   9  10
ATOM     10  N   UNL     1       1.371   4.389  18.995  0.00  0.00    +0.000 NA
ATOM     11  C   UNL     1       1.499   3.038  18.425  0.00  0.00    +0.000 C 
ATOM     12  C   UNL     1       1.701   1.934  19.465  0.00  0.00    +0.000 C 
ATOM     13  C   UNL     1       2.866   2.243  20.403  0.00  0.00    +0.000 C 
ATOM     14  C   UNL     1       2.615   3.603  21.052  0.00  0.00    +0.000 C 
ATOM     15  C   UNL     1       2.380   4.705  20.020  0.00  0.00    +0.000 C 
BRANCH  13  16
ATOM     16  C   UNL     1       4.217   2.170  19.695  0.00  0.00    +0.000 C 
ATOM     17  N   UNL     1       4.279   1.289  18.656  0.00  0.00    +0.000 N 
ATOM     18  O   UNL     1       5.208   2.818  20.009  0.00  0.00    +0.000 OA
ATOM     19  H   UNL     1       3.578   0.575  18.513  0.00  0.00    +0.000 HD
ATOM     20  H   UNL     1       5.185   1.161  18.221  0.00  0.00    +0.000 HD
ENDBRANCH  13  16
ENDBRANCH   9  10
ENDBRANCH   4   9
BRANCH   6  21
ATOM     21  O   UNL     1       6.081   4.394  16.795  0.00  0.00    +0.000 OA
BRANCH  21  22
ATOM     22  C   UNL     1       5.663   3.539  15.733  0.00  0.00    +0.000 C 
BRANCH  22  23
ATOM     23  C   UNL     1       6.200   3.906  14.356  0.00  0.00    +0.000 A 
ATOM     24  C   UNL     1       5.796   3.312  13.149  0.00  0.00    +0.000 A 
ATOM     25  C   UNL     1       6.402   3.684  11.943  0.00  0.00    +0.000 A 
ATOM     26  C   UNL     1       7.408   4.649  11.925  0.00  0.00    +0.000 A 
ATOM     27  C   UNL     1       7.814   5.254  13.111  0.00  0.00    +0.000 A 
ATOM     28  C   UNL     1       7.214   4.881  14.314  0.00  0.00    +0.000 A 
ENDBRANCH  22  23
ENDBRANCH  21  22
ENDBRANCH   6  21
TORSDOF 7
ENDMDL
MODEL 9
REMARK VINA RESULT:      -7.1      3.296      7.317
REMARK  Name = 
REMARK  8 active torsions:
REMARK  status: ('A' for Active; 'I' for Inactive)
REMARK    1  A    between atoms: C_1  and  O_2
REMARK    2  A    between atoms: O_2  and  C_3
REMARK    3  A    between atoms: C_6  and  C_7
REMARK    4  A    between atoms: C_7  and  N_8
REMARK    5  A    between atoms: C_11  and  C_12
REMARK    6  A    between atoms: C_18  and  O_19
REMARK    7  A    between atoms: O_19  and  C_20
REMARK    8  A    between atoms: C_20  and  C_21
REMARK                            x       y       z     vdW  Elec       q    Type
REMARK                         _______ _______ _______ _____ _____    ______ ____
ROOT
ATOM      1  C   UNL     1       3.023   5.117  19.581  0.00  0.00    +0.000 A 
ATOM      2  C   UNL     1       2.315   5.942  20.466  0.00  0.00    +0.000 A 
ATOM      3  C   UNL     1       1.935   7.235  20.109  0.00  0.00    +0.000 A 
ATOM      4  C   UNL     1       2.243   7.737  18.846  0.00  0.00    +0.000 A 
ATOM      5  C   UNL     1       2.904   6.903  17.933  0.00  0.00    +0.000 A 
ATOM      6  C   UNL     1       3.262   5.587  18.270  0.00  0.00    +0.000 A 
ENDROOT
BRANCH   1   8
ATOM      7  C   UNL     1       2.571   3.005  20.663  0.00  0.00    +0.000 C 
ATOM      8  O   UNL     1       3.445   3.861  19.925  0.00  0.00    +0.000 OA
ENDBRANCH   1   8
BRANCH   4   9
ATOM      9  C   UNL     1       1.792   9.123  18.452  0.00  0.00    +0.000 C 
BRANCH   9  10
ATOM     10  N   UNL     1       0.592   9.608  19.178  0.00  0.00    +0.000 NA
ATOM     11  C   UNL     1       0.938  10.770  20.011  0.00  0.00    +0.000 C 
ATOM     12  C   UNL     1      -0.271  11.528  20.565  0.00  0.00    +0.000 C 
ATOM     13  C   UNL     1      -1.251  11.919  19.460  0.00  0.00    +0.000 C 
ATOM     14  C   UNL     1      -1.662  10.655  18.710  0.00  0.00    +0.000 C 
ATOM     15  C   UNL     1      -0.459   9.875  18.181  0.00  0.00    +0.000 C 
BRANCH  13  16
ATOM     16  C   UNL     1      -0.685  12.994  18.536  0.00  0.00    +0.000 C 
ATOM     17  N   UNL     1      -1.061  12.891  17.229  0.00  0.00    +0.000 N 
ATOM     18  O   UNL     1       0.069  13.894  18.887  0.00  0.00    +0.000 OA
ATOM     19  H   UNL     1      -1.478  12.050  16.854  0.00  0.00    +0.000 HD
ATOM     20  H   UNL     1      -0.635  13.542  16.580  0.00  0.00    +0.000 HD
ENDBRANCH  13  16
ENDBRANCH   9  10
ENDBRANCH   4   9
BRANCH   6  21
ATOM     21  O   UNL     1       3.825   4.904  17.209  0.00  0.00    +0.000 OA
BRANCH  21  22
ATOM     22  C   UNL     1       4.845   5.606  16.499  0.00  0.00    +0.000 C 
BRANCH  22  23
ATOM     23  C   UNL     1       6.072   5.972  17.322  0.00  0.00    +0.000 A 
ATOM     24  C   UNL     1       6.645   5.164  18.319  0.00  0.00    +0.000 A 
ATOM     25  C   UNL     1       7.739   5.627  19.059  0.00  0.00    +0.000 A 
ATOM     26  C   UNL     1       8.276   6.889  18.813  0.00  0.00    +0.000 A 
ATOM     27  C   UNL     1       7.728   7.699  17.823  0.00  0.00    +0.000 A 
ATOM     28  C   UNL     1       6.634   7.242  17.088  0.00  0.00    +0.000 A 
ENDBRANCH  22  23
ENDBRANCH  21  22
ENDBRANCH   6  21
TORSDOF 7
ENDMDL
