MODEL 1
REMARK VINA RESULT:      -8.2      0.000      0.000
REMARK  Name = 
REMARK  10 active torsions:
REMARK  status: ('A' for Active; 'I' for Inactive)
REMARK    1  A    between atoms: C_1  and  N_2
REMARK    2  A    between atoms: N_2  and  C_3
REMARK    3  A    between atoms: C_3  and  C_4
REMARK    4  A    between atoms: C_3  and  C_5
REMARK    5  A    between atoms: N_7  and  C_8
REMARK    6  A    between atoms: C_8  and  C_9
REMARK    7  A    between atoms: C_8  and  C_30
REMARK    8  A    between atoms: C_15  and  C_16
REMARK    9  A    between atoms: N_18  and  C_19
REMARK   10  A    between atoms: C_23  and  C_24
REMARK                            x       y       z     vdW  Elec       q    Type
REMARK                         _______ _______ _______ _____ _____    ______ ____
ROOT
ATOM      1  C   UNL     1       1.757   7.725  20.235  0.00  0.00    +0.000 C 
ATOM      2  O   UNL     1       1.713   7.988  21.444  0.00  0.00    +0.000 OA
ATOM      3  N   UNL     1       1.570   8.737  19.300  0.00  0.00    +0.000 N 
ATOM      4  C   UNL     1       1.789   8.720  17.866  0.00  0.00    +0.000 C 
ATOM      5  C   UNL     1       2.425  10.061  17.577  0.00  0.00    +0.000 C 
ATOM      6  C   UNL     1       1.733  10.996  18.556  0.00  0.00    +0.000 C 
ATOM      7  C   UNL     1       1.335  10.113  19.753  0.00  0.00    +0.000 C 
ENDROOT
BRANCH   7   8
ATOM      8  C   UNL     1      -0.149  10.381  20.085  0.00  0.00    +0.000 C 
ATOM      9  O   UNL     1      -0.768   9.641  20.851  0.00  0.00    +0.000 OA
ATOM     10  N   UNL     1      -0.579  11.649  19.714  0.00  0.00    +0.000 N 
ATOM     11  H   UNL     1      -0.197  11.970  18.824  0.00  0.00    +0.000 HD
BRANCH  10  12
ATOM     12  C   UNL     1      -1.905  11.980  19.923  0.00  0.00    +0.000 A 
ATOM     13  S   UNL     1      -2.372  12.604  21.445  0.00  0.00    +0.000 S 
ATOM     14  N   UNL     1      -3.992  12.652  21.027  0.00  0.00    +0.000 NA
ATOM     15  N   UNL     1      -4.224  12.180  19.811  0.00  0.00    +0.000 NA
ATOM     16  C   UNL     1      -3.050  11.774  19.169  0.00  0.00    +0.000 A 
BRANCH  16  17
ATOM     17  C   UNL     1      -3.110  11.147  17.848  0.00  0.00    +0.000 A 
ATOM     18  C   UNL     1      -3.995  11.579  16.852  0.00  0.00    +0.000 A 
ATOM     19  C   UNL     1      -3.970  11.012  15.574  0.00  0.00    +0.000 A 
ATOM     20  C   UNL     1      -3.077   9.984  15.284  0.00  0.00    +0.000 A 
ATOM     21  C   UNL     1      -2.221   9.511  16.278  0.00  0.00    +0.000 A 
ATOM     22  C   UNL     1      -2.238  10.087  17.547  0.00  0.00    +0.000 A 
ENDBRANCH  16  17
ENDBRANCH  10  12
ENDBRANCH   7   8
BRANCH   1  23
ATOM     23  C   UNL     1       2.125   6.278  19.793  0.00  0.00    +0.000 C 
BRANCH  23  24
ATOM     24  C   UNL     1       1.537   5.078  20.631  0.00  0.00    +0.000 C 
ATOM     25  C   UNL     1       0.550   4.159  19.904  0.00  0.00    +0.000 C 
ATOM     26  C   UNL     1       1.258   3.145  19.018  0.00  0.00    +0.000 C 
ATOM     27  C   UNL     1       2.025   2.170  19.888  0.00  0.00    +0.000 C 
ATOM     28  C   UNL     1       3.028   2.899  20.778  0.00  0.00    +0.000 C 
ATOM     29  C   UNL     1       2.502   4.181  21.447  0.00  0.00    +0.000 C 
ENDBRANCH  23  24
BRANCH  23  32
ATOM     30  C   UNL     1       4.242   5.577  18.574  0.00  0.00    +0.000 C 
ATOM     31  O   UNL     1       3.670   5.365  17.491  0.00  0.00    +0.000 OA
ATOM     32  N   UNL     1       3.591   6.114  19.675  0.00  0.00    +0.000 N 
ATOM     33  H   UNL     1       4.178   6.316  20.477  0.00  0.00    +0.000 HD
BRANCH  30  34
ATOM     34  C   UNL     1       5.757   5.369  18.758  0.00  0.00    +0.000 C 
ATOM     35  C   UNL     1       6.510   6.575  18.200  0.00  0.00    +0.000 C 
BRANCH  34  37
ATOM     36  C   UNL     1       7.015   4.310  16.953  0.00  0.00    +0.000 C 
ATOM     37  N   UNL     1       6.150   4.093  18.111  0.00  0.00    +0.000 NA
ATOM     38  H   UNL     1       6.694   3.562  18.793  0.00  0.00    +0.000 HD
ENDBRANCH  34  37
ENDBRANCH  30  34
ENDBRANCH  23  32
ENDBRANCH   1  23
TORSDOF 8
ENDMDL
MODEL 2
REMARK VINA RESULT:      -8.0      0.548      1.116
REMARK  Name = 
REMARK  10 active torsions:
REMARK  status: ('A' for Active; 'I' for Inactive)
REMARK    1  A    between atoms: C_1  and  N_2
REMARK    2  A    between atoms: N_2  and  C_3
REMARK    3  A    between atoms: C_3  and  C_4
REMARK    4  A    between atoms: C_3  and  C_5
REMARK    5  A    between atoms: N_7  and  C_8
REMARK    6  A    between atoms: C_8  and  C_9
REMARK    7  A    between atoms: C_8  and  C_30
REMARK    8  A    between atoms: C_15  and  C_16
REMARK    9  A    between atoms: N_18  and  C_19
REMARK   10  A    between atoms: C_23  and  C_24
REMARK                            x       y       z     vdW  Elec       q    Type
REMARK                         _______ _______ _______ _____ _____    ______ ____
ROOT
ATOM      1  C   UNL     1       1.749   7.742  20.214  0.00  0.00    +0.000 C 
ATOM      2  O   UNL     1       1.688   7.962  21.430  0.00  0.00    +0.000 OA
ATOM      3  N   UNL     1       1.577   8.786  19.312  0.00  0.00    +0.000 N 
ATOM      4  C   UNL     1       1.816   8.819  17.882  0.00  0.00    +0.000 C 
ATOM      5  C   UNL     1       2.457  10.168  17.648  0.00  0.00    +0.000 C 
ATOM      6  C   UNL     1       1.752  11.069  18.649  0.00  0.00    +0.000 C 
ATOM      7  C   UNL     1       1.336  10.145  19.809  0.00  0.00    +0.000 C 
ENDROOT
BRANCH   7   8
ATOM      8  C   UNL     1      -0.151  10.405  20.130  0.00  0.00    +0.000 C 
ATOM      9  O   UNL     1      -0.790   9.623  20.836  0.00  0.00    +0.000 OA
ATOM     10  N   UNL     1      -0.565  11.697  19.830  0.00  0.00    +0.000 N 
ATOM     11  H   UNL     1      -0.164  12.070  18.970  0.00  0.00    +0.000 HD
BRANCH  10  12
ATOM     12  C   UNL     1      -1.894  12.024  20.035  0.00  0.00    +0.000 A 
ATOM     13  S   UNL     1      -2.376  12.601  21.570  0.00  0.00    +0.000 S 
ATOM     14  N   UNL     1      -3.991  12.667  21.136  0.00  0.00    +0.000 NA
ATOM     15  N   UNL     1      -4.210  12.234  19.903  0.00  0.00    +0.000 NA
ATOM     16  C   UNL     1      -3.030  11.845  19.262  0.00  0.00    +0.000 A 
BRANCH  16  17
ATOM     17  C   UNL     1      -3.077  11.261  17.922  0.00  0.00    +0.000 A 
ATOM     18  C   UNL     1      -2.125  10.335  17.474  0.00  0.00    +0.000 A 
ATOM     19  C   UNL     1      -2.244   9.734  16.217  0.00  0.00    +0.000 A 
ATOM     20  C   UNL     1      -3.303  10.072  15.378  0.00  0.00    +0.000 A 
ATOM     21  C   UNL     1      -4.234  11.026  15.791  0.00  0.00    +0.000 A 
ATOM     22  C   UNL     1      -4.121  11.614  17.050  0.00  0.00    +0.000 A 
ENDBRANCH  16  17
ENDBRANCH  10  12
ENDBRANCH   7   8
BRANCH   1  23
ATOM     23  C   UNL     1       2.122   6.310  19.726  0.00  0.00    +0.000 C 
BRANCH  23  24
ATOM     24  C   UNL     1       1.730   5.092  20.648  0.00  0.00    +0.000 C 
ATOM     25  C   UNL     1       0.592   4.197  20.147  0.00  0.00    +0.000 C 
ATOM     26  C   UNL     1       1.065   3.204  19.096  0.00  0.00    +0.000 C 
ATOM     27  C   UNL     1       2.002   2.201  19.741  0.00  0.00    +0.000 C 
ATOM     28  C   UNL     1       3.191   2.902  20.392  0.00  0.00    +0.000 C 
ATOM     29  C   UNL     1       2.848   4.169  21.197  0.00  0.00    +0.000 C 
ENDBRANCH  23  24
BRANCH  23  32
ATOM     30  C   UNL     1       4.071   5.595  18.261  0.00  0.00    +0.000 C 
ATOM     31  O   UNL     1       3.356   5.221  17.316  0.00  0.00    +0.000 OA
ATOM     32  N   UNL     1       3.560   6.221  19.389  0.00  0.00    +0.000 N 
ATOM     33  H   UNL     1       4.246   6.551  20.057  0.00  0.00    +0.000 HD
BRANCH  30  34
ATOM     34  C   UNL     1       5.608   5.500  18.216  0.00  0.00    +0.000 C 
ATOM     35  C   UNL     1       6.024   4.412  17.229  0.00  0.00    +0.000 C 
BRANCH  34  37
ATOM     36  C   UNL     1       7.533   5.595  19.715  0.00  0.00    +0.000 C 
ATOM     37  N   UNL     1       6.115   5.260  19.590  0.00  0.00    +0.000 NA
ATOM     38  H   UNL     1       5.605   5.886  20.215  0.00  0.00    +0.000 HD
ENDBRANCH  34  37
ENDBRANCH  30  34
ENDBRANCH  23  32
ENDBRANCH   1  23
TORSDOF 8
ENDMDL
MODEL 3
REMARK VINA RESULT:      -7.9      2.661      9.032
REMARK  Name = 
REMARK  10 active torsions:
REMARK  status: ('A' for Active; 'I' for Inactive)
REMARK    1  A    between atoms: C_1  and  N_2
REMARK    2  A    between atoms: N_2  and  C_3
REMARK    3  A    between atoms: C_3  and  C_4
REMARK    4  A    between atoms: C_3  and  C_5
REMARK    5  A    between atoms: N_7  and  C_8
REMARK    6  A    between atoms: C_8  and  C_9
REMARK    7  A    between atoms: C_8  and  C_30
REMARK    8  A    between atoms: C_15  and  C_16
REMARK    9  A    between atoms: N_18  and  C_19
REMARK   10  A    between atoms: C_23  and  C_24
REMARK                            x       y       z     vdW  Elec       q    Type
REMARK                         _______ _______ _______ _____ _____    ______ ____
ROOT
ATOM      1  C   UNL     1       0.203   9.919  18.920  0.00  0.00    +0.000 C 
ATOM      2  O   UNL     1       1.095  10.133  18.091  0.00  0.00    +0.000 OA
ATOM      3  N   UNL     1       0.485   9.182  20.065  0.00  0.00    +0.000 N 
ATOM      4  C   UNL     1      -0.315   8.990  21.260  0.00  0.00    +0.000 C 
ATOM      5  C   UNL     1       0.685   9.082  22.390  0.00  0.00    +0.000 C 
ATOM      6  C   UNL     1       1.933   8.438  21.807  0.00  0.00    +0.000 C 
ATOM      7  C   UNL     1       1.844   8.675  20.288  0.00  0.00    +0.000 C 
ENDROOT
BRANCH   7   8
ATOM      8  C   UNL     1       2.101   7.333  19.570  0.00  0.00    +0.000 C 
ATOM      9  O   UNL     1       1.989   7.241  18.346  0.00  0.00    +0.000 OA
ATOM     10  N   UNL     1       2.750   6.395  20.363  0.00  0.00    +0.000 N 
ATOM     11  H   UNL     1       2.443   6.394  21.335  0.00  0.00    +0.000 HD
BRANCH  10  12
ATOM     12  C   UNL     1       2.989   5.140  19.833  0.00  0.00    +0.000 A 
ATOM     13  S   UNL     1       1.953   3.850  20.263  0.00  0.00    +0.000 S 
ATOM     14  N   UNL     1       2.853   2.727  19.410  0.00  0.00    +0.000 NA
ATOM     15  N   UNL     1       3.930   3.252  18.845  0.00  0.00    +0.000 NA
ATOM     16  C   UNL     1       4.038   4.624  19.088  0.00  0.00    +0.000 A 
BRANCH  16  17
ATOM     17  C   UNL     1       5.206   5.368  18.616  0.00  0.00    +0.000 A 
ATOM     18  C   UNL     1       5.152   6.225  17.508  0.00  0.00    +0.000 A 
ATOM     19  C   UNL     1       6.265   6.983  17.133  0.00  0.00    +0.000 A 
ATOM     20  C   UNL     1       7.458   6.873  17.844  0.00  0.00    +0.000 A 
ATOM     21  C   UNL     1       7.541   5.991  18.921  0.00  0.00    +0.000 A 
ATOM     22  C   UNL     1       6.426   5.246  19.302  0.00  0.00    +0.000 A 
ENDBRANCH  16  17
ENDBRANCH  10  12
ENDBRANCH   7   8
BRANCH   1  23
ATOM     23  C   UNL     1      -1.195  10.572  18.708  0.00  0.00    +0.000 C 
BRANCH  23  24
ATOM     24  C   UNL     1      -2.155   9.925  17.636  0.00  0.00    +0.000 C 
ATOM     25  C   UNL     1      -3.611   9.715  18.066  0.00  0.00    +0.000 C 
ATOM     26  C   UNL     1      -4.427  10.996  17.971  0.00  0.00    +0.000 C 
ATOM     27  C   UNL     1      -4.574  11.390  16.514  0.00  0.00    +0.000 C 
ATOM     28  C   UNL     1      -3.210  11.570  15.854  0.00  0.00    +0.000 C 
ATOM     29  C   UNL     1      -2.167  10.491  16.193  0.00  0.00    +0.000 C 
ENDBRANCH  23  24
BRANCH  23  32
ATOM     30  C   UNL     1      -0.627  12.963  19.353  0.00  0.00    +0.000 C 
ATOM     31  O   UNL     1      -0.099  12.654  20.435  0.00  0.00    +0.000 OA
ATOM     32  N   UNL     1      -1.070  12.020  18.435  0.00  0.00    +0.000 N 
ATOM     33  H   UNL     1      -1.410  12.390  17.555  0.00  0.00    +0.000 HD
BRANCH  30  34
ATOM     34  C   UNL     1      -0.735  14.425  18.879  0.00  0.00    +0.000 C 
ATOM     35  C   UNL     1       0.652  15.065  18.874  0.00  0.00    +0.000 C 
BRANCH  34  37
ATOM     36  C   UNL     1      -1.145  16.392  20.265  0.00  0.00    +0.000 C 
ATOM     37  N   UNL     1      -1.700  15.142  19.748  0.00  0.00    +0.000 NA
ATOM     38  H   UNL     1      -2.503  15.391  19.168  0.00  0.00    +0.000 HD
ENDBRANCH  34  37
ENDBRANCH  30  34
ENDBRANCH  23  32
ENDBRANCH   1  23
TORSDOF 8
ENDMDL
MODEL 4
REMARK VINA RESULT:      -7.9      1.551      3.016
REMARK  Name = 
REMARK  10 active torsions:
REMARK  status: ('A' for Active; 'I' for Inactive)
REMARK    1  A    between atoms: C_1  and  N_2
REMARK    2  A    between atoms: N_2  and  C_3
REMARK    3  A    between atoms: C_3  and  C_4
REMARK    4  A    between atoms: C_3  and  C_5
REMARK    5  A    between atoms: N_7  and  C_8
REMARK    6  A    between atoms: C_8  and  C_9
REMARK    7  A    between atoms: C_8  and  C_30
REMARK    8  A    between atoms: C_15  and  C_16
REMARK    9  A    between atoms: N_18  and  C_19
REMARK   10  A    between atoms: C_23  and  C_24
REMARK                            x       y       z     vdW  Elec       q    Type
REMARK                         _______ _______ _______ _____ _____    ______ ____
ROOT
ATOM      1  C   UNL     1       1.709   7.633  20.170  0.00  0.00    +0.000 C 
ATOM      2  O   UNL     1       1.524   7.887  21.367  0.00  0.00    +0.000 OA
ATOM      3  N   UNL     1       1.594   8.644  19.223  0.00  0.00    +0.000 N 
ATOM      4  C   UNL     1       1.969   8.642  17.822  0.00  0.00    +0.000 C 
ATOM      5  C   UNL     1       2.591  10.004  17.607  0.00  0.00    +0.000 C 
ATOM      6  C   UNL     1       1.767  10.911  18.506  0.00  0.00    +0.000 C 
ATOM      7  C   UNL     1       1.268  10.009  19.650  0.00  0.00    +0.000 C 
ENDROOT
BRANCH   7   8
ATOM      8  C   UNL     1      -0.250  10.231  19.819  0.00  0.00    +0.000 C 
ATOM      9  O   UNL     1      -0.855   9.752  20.780  0.00  0.00    +0.000 OA
ATOM     10  N   UNL     1      -0.757  11.236  19.004  0.00  0.00    +0.000 N 
ATOM     11  H   UNL     1      -0.346  11.257  18.071  0.00  0.00    +0.000 HD
BRANCH  10  12
ATOM     12  C   UNL     1      -2.117  11.487  19.041  0.00  0.00    +0.000 A 
ATOM     13  S   UNL     1      -3.092  10.951  17.744  0.00  0.00    +0.000 S 
ATOM     14  N   UNL     1      -4.473  11.655  18.375  0.00  0.00    +0.000 NA
ATOM     15  N   UNL     1      -4.244  12.321  19.497  0.00  0.00    +0.000 NA
ATOM     16  C   UNL     1      -2.903  12.254  19.887  0.00  0.00    +0.000 A 
BRANCH  16  17
ATOM     17  C   UNL     1      -2.437  12.996  21.058  0.00  0.00    +0.000 A 
ATOM     18  C   UNL     1      -1.689  14.176  20.950  0.00  0.00    +0.000 A 
ATOM     19  C   UNL     1      -1.329  14.904  22.088  0.00  0.00    +0.000 A 
ATOM     20  C   UNL     1      -1.689  14.447  23.353  0.00  0.00    +0.000 A 
ATOM     21  C   UNL     1      -2.394  13.250  23.481  0.00  0.00    +0.000 A 
ATOM     22  C   UNL     1      -2.764  12.532  22.344  0.00  0.00    +0.000 A 
ENDBRANCH  16  17
ENDBRANCH  10  12
ENDBRANCH   7   8
BRANCH   1  23
ATOM     23  C   UNL     1       2.168   6.200  19.768  0.00  0.00    +0.000 C 
BRANCH  23  24
ATOM     24  C   UNL     1       1.661   4.990  20.643  0.00  0.00    +0.000 C 
ATOM     25  C   UNL     1       0.571   4.110  20.023  0.00  0.00    +0.000 C 
ATOM     26  C   UNL     1       1.140   3.107  19.031  0.00  0.00    +0.000 C 
ATOM     27  C   UNL     1       1.988   2.093  19.774  0.00  0.00    +0.000 C 
ATOM     28  C   UNL     1       3.110   2.779  20.549  0.00  0.00    +0.000 C 
ATOM     29  C   UNL     1       2.700   4.053  21.310  0.00  0.00    +0.000 C 
ENDBRANCH  23  24
BRANCH  23  32
ATOM     30  C   UNL     1       4.321   5.637  18.540  0.00  0.00    +0.000 C 
ATOM     31  O   UNL     1       3.760   5.395  17.458  0.00  0.00    +0.000 OA
ATOM     32  N   UNL     1       3.640   6.128  19.646  0.00  0.00    +0.000 N 
ATOM     33  H   UNL     1       4.215   6.362  20.447  0.00  0.00    +0.000 HD
BRANCH  30  34
ATOM     34  C   UNL     1       5.846   5.522  18.720  0.00  0.00    +0.000 C 
ATOM     35  C   UNL     1       6.531   6.710  18.047  0.00  0.00    +0.000 C 
BRANCH  34  37
ATOM     36  C   UNL     1       7.326   4.370  17.156  0.00  0.00    +0.000 C 
ATOM     37  N   UNL     1       6.297   4.214  18.183  0.00  0.00    +0.000 NA
ATOM     38  H   UNL     1       6.723   3.700  18.955  0.00  0.00    +0.000 HD
ENDBRANCH  34  37
ENDBRANCH  30  34
ENDBRANCH  23  32
ENDBRANCH   1  23
TORSDOF 8
ENDMDL
MODEL 5
REMARK VINA RESULT:      -7.8      2.876      9.065
REMARK  Name = 
REMARK  10 active torsions:
REMARK  status: ('A' for Active; 'I' for Inactive)
REMARK    1  A    between atoms: C_1  and  N_2
REMARK    2  A    between atoms: N_2  and  C_3
REMARK    3  A    between atoms: C_3  and  C_4
REMARK    4  A    between atoms: C_3  and  C_5
REMARK    5  A    between atoms: N_7  and  C_8
REMARK    6  A    between atoms: C_8  and  C_9
REMARK    7  A    between atoms: C_8  and  C_30
REMARK    8  A    between atoms: C_15  and  C_16
REMARK    9  A    between atoms: N_18  and  C_19
REMARK   10  A    between atoms: C_23  and  C_24
REMARK                            x       y       z     vdW  Elec       q    Type
REMARK                         _______ _______ _______ _____ _____    ______ ____
ROOT
ATOM      1  C   UNL     1       1.287  11.086  18.825  0.00  0.00    +0.000 C 
ATOM      2  O   UNL     1       2.482  11.166  18.515  0.00  0.00    +0.000 OA
ATOM      3  N   UNL     1       0.832   9.989  19.549  0.00  0.00    +0.000 N 
ATOM      4  C   UNL     1      -0.446   9.781  20.203  0.00  0.00    +0.000 C 
ATOM      5  C   UNL     1      -0.084   9.120  21.514  0.00  0.00    +0.000 C 
ATOM      6  C   UNL     1       1.100   8.241  21.147  0.00  0.00    +0.000 C 
ATOM      7  C   UNL     1       1.775   8.941  19.953  0.00  0.00    +0.000 C 
ENDROOT
BRANCH   7   8
ATOM      8  C   UNL     1       2.008   7.893  18.842  0.00  0.00    +0.000 C 
ATOM      9  O   UNL     1       1.924   8.205  17.653  0.00  0.00    +0.000 OA
ATOM     10  N   UNL     1       2.608   6.726  19.299  0.00  0.00    +0.000 N 
ATOM     11  H   UNL     1       2.276   6.423  20.214  0.00  0.00    +0.000 HD
BRANCH  10  12
ATOM     12  C   UNL     1       2.821   5.701  18.395  0.00  0.00    +0.000 A 
ATOM     13  S   UNL     1       1.530   4.643  18.025  0.00  0.00    +0.000 S 
ATOM     14  N   UNL     1       2.484   3.681  17.043  0.00  0.00    +0.000 NA
ATOM     15  N   UNL     1       3.747   4.077  17.005  0.00  0.00    +0.000 NA
ATOM     16  C   UNL     1       3.967   5.217  17.783  0.00  0.00    +0.000 A 
BRANCH  16  17
ATOM     17  C   UNL     1       5.317   5.759  17.934  0.00  0.00    +0.000 A 
ATOM     18  C   UNL     1       5.799   6.806  17.137  0.00  0.00    +0.000 A 
ATOM     19  C   UNL     1       7.066   7.355  17.361  0.00  0.00    +0.000 A 
ATOM     20  C   UNL     1       7.879   6.845  18.370  0.00  0.00    +0.000 A 
ATOM     21  C   UNL     1       7.432   5.773  19.143  0.00  0.00    +0.000 A 
ATOM     22  C   UNL     1       6.164   5.236  18.926  0.00  0.00    +0.000 A 
ENDBRANCH  16  17
ENDBRANCH  10  12
ENDBRANCH   7   8
BRANCH   1  23
ATOM     23  C   UNL     1       0.339  12.273  18.481  0.00  0.00    +0.000 C 
BRANCH  23  24
ATOM     24  C   UNL     1      -0.177  13.173  19.669  0.00  0.00    +0.000 C 
ATOM     25  C   UNL     1       0.582  13.050  20.995  0.00  0.00    +0.000 C 
ATOM     26  C   UNL     1       1.873  13.855  20.992  0.00  0.00    +0.000 C 
ATOM     27  C   UNL     1       1.541  15.334  20.946  0.00  0.00    +0.000 C 
ATOM     28  C   UNL     1       0.696  15.669  19.721  0.00  0.00    +0.000 C 
ATOM     29  C   UNL     1      -0.442  14.679  19.416  0.00  0.00    +0.000 C 
ENDBRANCH  23  24
BRANCH  23  32
ATOM     30  C   UNL     1      -2.121  11.726  18.153  0.00  0.00    +0.000 C 
ATOM     31  O   UNL     1      -2.479  12.216  19.238  0.00  0.00    +0.000 OA
ATOM     32  N   UNL     1      -0.819  11.815  17.682  0.00  0.00    +0.000 N 
ATOM     33  H   UNL     1      -0.663  11.447  16.750  0.00  0.00    +0.000 HD
BRANCH  30  34
ATOM     34  C   UNL     1      -3.118  11.072  17.178  0.00  0.00    +0.000 C 
ATOM     35  C   UNL     1      -3.248   9.585  17.501  0.00  0.00    +0.000 C 
BRANCH  34  37
ATOM     36  C   UNL     1      -2.997  10.215  14.895  0.00  0.00    +0.000 C 
ATOM     37  N   UNL     1      -2.666  11.324  15.787  0.00  0.00    +0.000 NA
ATOM     38  H   UNL     1      -3.175  12.141  15.446  0.00  0.00    +0.000 HD
ENDBRANCH  34  37
ENDBRANCH  30  34
ENDBRANCH  23  32
ENDBRANCH   1  23
TORSDOF 8
ENDMDL
MODEL 6
REMARK VINA RESULT:      -7.6      1.648      3.184
REMARK  Name = 
REMARK  10 active torsions:
REMARK  status: ('A' for Active; 'I' for Inactive)
REMARK    1  A    between atoms: C_1  and  N_2
REMARK    2  A    between atoms: N_2  and  C_3
REMARK    3  A    between atoms: C_3  and  C_4
REMARK    4  A    between atoms: C_3  and  C_5
REMARK    5  A    between atoms: N_7  and  C_8
REMARK    6  A    between atoms: C_8  and  C_9
REMARK    7  A    between atoms: C_8  and  C_30
REMARK    8  A    between atoms: C_15  and  C_16
REMARK    9  A    between atoms: N_18  and  C_19
REMARK   10  A    between atoms: C_23  and  C_24
REMARK                            x       y       z     vdW  Elec       q    Type
REMARK                         _______ _______ _______ _____ _____    ______ ____
ROOT
ATOM      1  C   UNL     1       1.716   7.628  20.120  0.00  0.00    +0.000 C 
ATOM      2  O   UNL     1       1.571   7.852  21.328  0.00  0.00    +0.000 OA
ATOM      3  N   UNL     1       1.589   8.666  19.204  0.00  0.00    +0.000 N 
ATOM      4  C   UNL     1       1.922   8.697  17.793  0.00  0.00    +0.000 C 
ATOM      5  C   UNL     1       2.560  10.054  17.596  0.00  0.00    +0.000 C 
ATOM      6  C   UNL     1       1.778  10.949  18.544  0.00  0.00    +0.000 C 
ATOM      7  C   UNL     1       1.299  10.024  19.678  0.00  0.00    +0.000 C 
ENDROOT
BRANCH   7   8
ATOM      8  C   UNL     1      -0.210  10.265  19.898  0.00  0.00    +0.000 C 
ATOM      9  O   UNL     1      -0.789   9.787  20.876  0.00  0.00    +0.000 OA
ATOM     10  N   UNL     1      -0.730  11.282  19.107  0.00  0.00    +0.000 N 
ATOM     11  H   UNL     1      -0.350  11.304  18.161  0.00  0.00    +0.000 HD
BRANCH  10  12
ATOM     12  C   UNL     1      -2.085  11.551  19.190  0.00  0.00    +0.000 A 
ATOM     13  S   UNL     1      -3.124  10.949  17.974  0.00  0.00    +0.000 S 
ATOM     14  N   UNL     1      -4.467  11.706  18.624  0.00  0.00    +0.000 NA
ATOM     15  N   UNL     1      -4.181  12.435  19.692  0.00  0.00    +0.000 NA
ATOM     16  C   UNL     1      -2.824  12.376  20.024  0.00  0.00    +0.000 A 
BRANCH  16  17
ATOM     17  C   UNL     1      -2.298  13.182  21.125  0.00  0.00    +0.000 A 
ATOM     18  C   UNL     1      -2.132  12.668  22.418  0.00  0.00    +0.000 A 
ATOM     19  C   UNL     1      -1.551  13.439  23.429  0.00  0.00    +0.000 A 
ATOM     20  C   UNL     1      -1.152  14.748  23.167  0.00  0.00    +0.000 A 
ATOM     21  C   UNL     1      -1.352  15.290  21.897  0.00  0.00    +0.000 A 
ATOM     22  C   UNL     1      -1.920  14.514  20.888  0.00  0.00    +0.000 A 
ENDBRANCH  16  17
ENDBRANCH  10  12
ENDBRANCH   7   8
BRANCH   1  23
ATOM     23  C   UNL     1       2.139   6.199  19.665  0.00  0.00    +0.000 C 
BRANCH  23  24
ATOM     24  C   UNL     1       1.810   4.992  20.625  0.00  0.00    +0.000 C 
ATOM     25  C   UNL     1       0.646   4.088  20.207  0.00  0.00    +0.000 C 
ATOM     26  C   UNL     1       1.057   3.082  19.142  0.00  0.00    +0.000 C 
ATOM     27  C   UNL     1       2.036   2.091  19.739  0.00  0.00    +0.000 C 
ATOM     28  C   UNL     1       3.261   2.804  20.307  0.00  0.00    +0.000 C 
ATOM     29  C   UNL     1       2.964   4.080  21.115  0.00  0.00    +0.000 C 
ENDBRANCH  23  24
BRANCH  23  32
ATOM     30  C   UNL     1       4.096   5.511  18.197  0.00  0.00    +0.000 C 
ATOM     31  O   UNL     1       3.383   5.069  17.280  0.00  0.00    +0.000 OA
ATOM     32  N   UNL     1       3.574   6.159  19.308  0.00  0.00    +0.000 N 
ATOM     33  H   UNL     1       4.255   6.545  19.951  0.00  0.00    +0.000 HD
BRANCH  30  34
ATOM     34  C   UNL     1       5.634   5.480  18.132  0.00  0.00    +0.000 C 
ATOM     35  C   UNL     1       6.080   4.496  17.052  0.00  0.00    +0.000 C 
BRANCH  34  37
ATOM     36  C   UNL     1       7.530   5.639  19.661  0.00  0.00    +0.000 C 
ATOM     37  N   UNL     1       6.167   5.145  19.475  0.00  0.00    +0.000 NA
ATOM     38  H   UNL     1       5.582   5.624  20.161  0.00  0.00    +0.000 HD
ENDBRANCH  34  37
ENDBRANCH  30  34
ENDBRANCH  23  32
ENDBRANCH   1  23
TORSDOF 8
ENDMDL
MODEL 7
REMARK VINA RESULT:      -7.6      2.753      9.169
REMARK  Name = 
REMARK  10 active torsions:
REMARK  status: ('A' for Active; 'I' for Inactive)
REMARK    1  A    between atoms: C_1  and  N_2
REMARK    2  A    between atoms: N_2  and  C_3
REMARK    3  A    between atoms: C_3  and  C_4
REMARK    4  A    between atoms: C_3  and  C_5
REMARK    5  A    between atoms: N_7  and  C_8
REMARK    6  A    between atoms: C_8  and  C_9
REMARK    7  A    between atoms: C_8  and  C_30
REMARK    8  A    between atoms: C_15  and  C_16
REMARK    9  A    between atoms: N_18  and  C_19
REMARK   10  A    between atoms: C_23  and  C_24
REMARK                            x       y       z     vdW  Elec       q    Type
REMARK                         _______ _______ _______ _____ _____    ______ ____
ROOT
ATOM      1  C   UNL     1       0.529  10.584  19.287  0.00  0.00    +0.000 C 
ATOM      2  O   UNL     1       1.565  11.004  18.758  0.00  0.00    +0.000 OA
ATOM      3  N   UNL     1       0.564   9.419  20.045  0.00  0.00    +0.000 N 
ATOM      4  C   UNL     1      -0.446   8.860  20.924  0.00  0.00    +0.000 C 
ATOM      5  C   UNL     1       0.339   8.365  22.117  0.00  0.00    +0.000 C 
ATOM      6  C   UNL     1       1.635   7.864  21.501  0.00  0.00    +0.000 C 
ATOM      7  C   UNL     1       1.832   8.704  20.225  0.00  0.00    +0.000 C 
ENDROOT
BRANCH   7   8
ATOM      8  C   UNL     1       2.143   7.746  19.054  0.00  0.00    +0.000 C 
ATOM      9  O   UNL     1       2.318   8.179  17.914  0.00  0.00    +0.000 OA
ATOM     10  N   UNL     1       2.508   6.470  19.465  0.00  0.00    +0.000 N 
ATOM     11  H   UNL     1       1.979   6.128  20.267  0.00  0.00    +0.000 HD
BRANCH  10  12
ATOM     12  C   UNL     1       2.763   5.516  18.495  0.00  0.00    +0.000 A 
ATOM     13  S   UNL     1       1.512   4.447  18.037  0.00  0.00    +0.000 S 
ATOM     14  N   UNL     1       2.506   3.585  17.004  0.00  0.00    +0.000 NA
ATOM     15  N   UNL     1       3.757   4.022  17.010  0.00  0.00    +0.000 NA
ATOM     16  C   UNL     1       3.931   5.113  17.866  0.00  0.00    +0.000 A 
BRANCH  16  17
ATOM     17  C   UNL     1       5.261   5.685  18.072  0.00  0.00    +0.000 A 
ATOM     18  C   UNL     1       6.121   5.242  19.086  0.00  0.00    +0.000 A 
ATOM     19  C   UNL     1       7.416   5.754  19.204  0.00  0.00    +0.000 A 
ATOM     20  C   UNL     1       7.861   6.738  18.325  0.00  0.00    +0.000 A 
ATOM     21  C   UNL     1       7.002   7.223  17.338  0.00  0.00    +0.000 A 
ATOM     22  C   UNL     1       5.716   6.702  17.214  0.00  0.00    +0.000 A 
ENDBRANCH  16  17
ENDBRANCH  10  12
ENDBRANCH   7   8
BRANCH   1  23
ATOM     23  C   UNL     1      -0.773  11.432  19.172  0.00  0.00    +0.000 C 
BRANCH  23  24
ATOM     24  C   UNL     1      -1.419  11.974  20.504  0.00  0.00    +0.000 C 
ATOM     25  C   UNL     1      -0.447  12.351  21.628  0.00  0.00    +0.000 C 
ATOM     26  C   UNL     1       0.172  13.724  21.412  0.00  0.00    +0.000 C 
ATOM     27  C   UNL     1      -0.902  14.785  21.545  0.00  0.00    +0.000 C 
ATOM     28  C   UNL     1      -2.036  14.545  20.553  0.00  0.00    +0.000 C 
ATOM     29  C   UNL     1      -2.499  13.083  20.423  0.00  0.00    +0.000 C 
ENDBRANCH  23  24
BRANCH  23  32
ATOM     30  C   UNL     1      -2.339  11.168  17.188  0.00  0.00    +0.000 C 
ATOM     31  O   UNL     1      -1.856  12.119  16.551  0.00  0.00    +0.000 OA
ATOM     32  N   UNL     1      -1.804  10.718  18.388  0.00  0.00    +0.000 N 
ATOM     33  H   UNL     1      -2.234   9.886  18.775  0.00  0.00    +0.000 HD
BRANCH  30  34
ATOM     34  C   UNL     1      -3.509  10.325  16.648  0.00  0.00    +0.000 C 
ATOM     35  C   UNL     1      -3.109   9.687  15.319  0.00  0.00    +0.000 C 
BRANCH  34  37
ATOM     36  C   UNL     1      -5.303  11.473  17.842  0.00  0.00    +0.000 C 
ATOM     37  N   UNL     1      -4.712  11.187  16.536  0.00  0.00    +0.000 NA
ATOM     38  H   UNL     1      -4.409  12.081  16.145  0.00  0.00    +0.000 HD
ENDBRANCH  34  37
ENDBRANCH  30  34
ENDBRANCH  23  32
ENDBRANCH   1  23
TORSDOF 8
ENDMDL
MODEL 8
REMARK VINA RESULT:      -7.6      2.823      9.044
REMARK  Name = 
REMARK  10 active torsions:
REMARK  status: ('A' for Active; 'I' for Inactive)
REMARK    1  A    between atoms: C_1  and  N_2
REMARK    2  A    between atoms: N_2  and  C_3
REMARK    3  A    between atoms: C_3  and  C_4
REMARK    4  A    between atoms: C_3  and  C_5
REMARK    5  A    between atoms: N_7  and  C_8
REMARK    6  A    between atoms: C_8  and  C_9
REMARK    7  A    between atoms: C_8  and  C_30
REMARK    8  A    between atoms: C_15  and  C_16
REMARK    9  A    between atoms: N_18  and  C_19
REMARK   10  A    between atoms: C_23  and  C_24
REMARK                            x       y       z     vdW  Elec       q    Type
REMARK                         _______ _______ _______ _____ _____    ______ ____
ROOT
ATOM      1  C   UNL     1       0.615  10.451  18.799  0.00  0.00    +0.000 C 
ATOM      2  O   UNL     1       1.683  10.653  18.207  0.00  0.00    +0.000 OA
ATOM      3  N   UNL     1       0.565   9.530  19.840  0.00  0.00    +0.000 N 
ATOM      4  C   UNL     1      -0.488   9.287  20.806  0.00  0.00    +0.000 C 
ATOM      5  C   UNL     1       0.250   9.081  22.110  0.00  0.00    +0.000 C 
ATOM      6  C   UNL     1       1.518   8.357  21.684  0.00  0.00    +0.000 C 
ATOM      7  C   UNL     1       1.783   8.814  20.237  0.00  0.00    +0.000 C 
ENDROOT
BRANCH   7   8
ATOM      8  C   UNL     1       2.043   7.562  19.371  0.00  0.00    +0.000 C 
ATOM      9  O   UNL     1       2.014   7.629  18.141  0.00  0.00    +0.000 OA
ATOM     10  N   UNL     1       2.602   6.506  20.079  0.00  0.00    +0.000 N 
ATOM     11  H   UNL     1       2.228   6.396  21.021  0.00  0.00    +0.000 HD
BRANCH  10  12
ATOM     12  C   UNL     1       2.834   5.317  19.409  0.00  0.00    +0.000 A 
ATOM     13  S   UNL     1       1.675   4.066  19.519  0.00  0.00    +0.000 S 
ATOM     14  N   UNL     1       2.612   3.000  18.633  0.00  0.00    +0.000 NA
ATOM     15  N   UNL     1       3.785   3.510  18.288  0.00  0.00    +0.000 NA
ATOM     16  C   UNL     1       3.941   4.825  18.735  0.00  0.00    +0.000 A 
BRANCH  16  17
ATOM     17  C   UNL     1       5.204   5.532  18.522  0.00  0.00    +0.000 A 
ATOM     18  C   UNL     1       6.346   5.278  19.294  0.00  0.00    +0.000 A 
ATOM     19  C   UNL     1       7.559   5.912  19.012  0.00  0.00    +0.000 A 
ATOM     20  C   UNL     1       7.641   6.832  17.970  0.00  0.00    +0.000 A 
ATOM     21  C   UNL     1       6.502   7.131  17.221  0.00  0.00    +0.000 A 
ATOM     22  C   UNL     1       5.297   6.488  17.496  0.00  0.00    +0.000 A 
ENDBRANCH  16  17
ENDBRANCH  10  12
ENDBRANCH   7   8
BRANCH   1  23
ATOM     23  C   UNL     1      -0.627  11.315  18.428  0.00  0.00    +0.000 C 
BRANCH  23  24
ATOM     24  C   UNL     1      -1.505  10.854  17.203  0.00  0.00    +0.000 C 
ATOM     25  C   UNL     1      -2.118   9.452  17.293  0.00  0.00    +0.000 C 
ATOM     26  C   UNL     1      -3.372   9.430  18.155  0.00  0.00    +0.000 C 
ATOM     27  C   UNL     1      -4.468  10.217  17.464  0.00  0.00    +0.000 C 
ATOM     28  C   UNL     1      -4.027  11.652  17.193  0.00  0.00    +0.000 C 
ATOM     29  C   UNL     1      -2.595  11.809  16.651  0.00  0.00    +0.000 C 
ENDBRANCH  23  24
BRANCH  23  32
ATOM     30  C   UNL     1      -0.290  13.695  19.251  0.00  0.00    +0.000 C 
ATOM     31  O   UNL     1      -0.449  13.411  20.451  0.00  0.00    +0.000 OA
ATOM     32  N   UNL     1      -0.253  12.735  18.250  0.00  0.00    +0.000 N 
ATOM     33  H   UNL     1      -0.038  13.078  17.321  0.00  0.00    +0.000 HD
BRANCH  30  34
ATOM     34  C   UNL     1      -0.004  15.133  18.777  0.00  0.00    +0.000 C 
ATOM     35  C   UNL     1       1.505  15.370  18.745  0.00  0.00    +0.000 C 
BRANCH  34  37
ATOM     36  C   UNL     1      -1.277  17.211  18.920  0.00  0.00    +0.000 C 
ATOM     37  N   UNL     1      -0.719  16.083  19.664  0.00  0.00    +0.000 NA
ATOM     38  H   UNL     1      -1.507  15.580  20.075  0.00  0.00    +0.000 HD
ENDBRANCH  34  37
ENDBRANCH  30  34
ENDBRANCH  23  32
ENDBRANCH   1  23
TORSDOF 8
ENDMDL
MODEL 9
REMARK VINA RESULT:      -7.5      2.701      9.121
REMARK  Name = 
REMARK  10 active torsions:
REMARK  status: ('A' for Active; 'I' for Inactive)
REMARK    1  A    between atoms: C_1  and  N_2
REMARK    2  A    between atoms: N_2  and  C_3
REMARK    3  A    between atoms: C_3  and  C_4
REMARK    4  A    between atoms: C_3  and  C_5
REMARK    5  A    between atoms: N_7  and  C_8
REMARK    6  A    between atoms: C_8  and  C_9
REMARK    7  A    between atoms: C_8  and  C_30
REMARK    8  A    between atoms: C_15  and  C_16
REMARK    9  A    between atoms: N_18  and  C_19
REMARK   10  A    between atoms: C_23  and  C_24
REMARK                            x       y       z     vdW  Elec       q    Type
REMARK                         _______ _______ _______ _____ _____    ______ ____
ROOT
ATOM      1  C   UNL     1       1.080  10.837  18.729  0.00  0.00    +0.000 C 
ATOM      2  O   UNL     1       2.239  10.861  18.297  0.00  0.00    +0.000 OA
ATOM      3  N   UNL     1       0.733   9.935  19.728  0.00  0.00    +0.000 N 
ATOM      4  C   UNL     1      -0.473   9.867  20.532  0.00  0.00    +0.000 C 
ATOM      5  C   UNL     1       0.029   9.539  21.920  0.00  0.00    +0.000 C 
ATOM      6  C   UNL     1       1.209   8.617  21.657  0.00  0.00    +0.000 C 
ATOM      7  C   UNL     1       1.748   9.026  20.274  0.00  0.00    +0.000 C 
ENDROOT
BRANCH   7   8
ATOM      8  C   UNL     1       1.920   7.751  19.421  0.00  0.00    +0.000 C 
ATOM      9  O   UNL     1       1.821   7.794  18.193  0.00  0.00    +0.000 OA
ATOM     10  N   UNL     1       2.490   6.692  20.117  0.00  0.00    +0.000 N 
ATOM     11  H   UNL     1       2.169   6.612  21.082  0.00  0.00    +0.000 HD
BRANCH  10  12
ATOM     12  C   UNL     1       2.648   5.484  19.461  0.00  0.00    +0.000 A 
ATOM     13  S   UNL     1       1.434   4.291  19.620  0.00  0.00    +0.000 S 
ATOM     14  N   UNL     1       2.296   3.169  18.727  0.00  0.00    +0.000 NA
ATOM     15  N   UNL     1       3.482   3.618  18.344  0.00  0.00    +0.000 NA
ATOM     16  C   UNL     1       3.712   4.931  18.766  0.00  0.00    +0.000 A 
BRANCH  16  17
ATOM     17  C   UNL     1       5.001   5.573  18.510  0.00  0.00    +0.000 A 
ATOM     18  C   UNL     1       6.148   5.281  19.260  0.00  0.00    +0.000 A 
ATOM     19  C   UNL     1       7.382   5.853  18.937  0.00  0.00    +0.000 A 
ATOM     20  C   UNL     1       7.481   6.748  17.875  0.00  0.00    +0.000 A 
ATOM     21  C   UNL     1       6.340   7.084  17.146  0.00  0.00    +0.000 A 
ATOM     22  C   UNL     1       5.113   6.503  17.462  0.00  0.00    +0.000 A 
ENDBRANCH  16  17
ENDBRANCH  10  12
ENDBRANCH   7   8
BRANCH   1  23
ATOM     23  C   UNL     1       0.061  11.895  18.210  0.00  0.00    +0.000 C 
BRANCH  23  24
ATOM     24  C   UNL     1       0.275  13.397  18.640  0.00  0.00    +0.000 C 
ATOM     25  C   UNL     1      -0.389  13.830  19.952  0.00  0.00    +0.000 C 
ATOM     26  C   UNL     1       0.417  13.404  21.170  0.00  0.00    +0.000 C 
ATOM     27  C   UNL     1       1.723  14.174  21.200  0.00  0.00    +0.000 C 
ATOM     28  C   UNL     1       2.523  13.949  19.920  0.00  0.00    +0.000 C 
ATOM     29  C   UNL     1       1.705  13.994  18.616  0.00  0.00    +0.000 C 
ENDBRANCH  23  24
BRANCH  23  32
ATOM     30  C   UNL     1      -2.343  11.361  17.585  0.00  0.00    +0.000 C 
ATOM     31  O   UNL     1      -2.135  11.373  16.360  0.00  0.00    +0.000 OA
ATOM     32  N   UNL     1      -1.327  11.493  18.522  0.00  0.00    +0.000 N 
ATOM     33  H   UNL     1      -1.607  11.389  19.490  0.00  0.00    +0.000 HD
BRANCH  30  34
ATOM     34  C   UNL     1      -3.737  11.085  18.179  0.00  0.00    +0.000 C 
ATOM     35  C   UNL     1      -4.798  11.255  17.094  0.00  0.00    +0.000 C 
BRANCH  34  37
ATOM     36  C   UNL     1      -5.352  12.377  19.477  0.00  0.00    +0.000 C 
ATOM     37  N   UNL     1      -3.951  11.981  19.342  0.00  0.00    +0.000 NA
ATOM     38  H   UNL     1      -3.710  11.451  20.181  0.00  0.00    +0.000 HD
ENDBRANCH  34  37
ENDBRANCH  30  34
ENDBRANCH  23  32
ENDBRANCH   1  23
TORSDOF 8
ENDMDL
