MODEL 1
REMARK VINA RESULT:      -8.0      0.000      0.000
REMARK  Name = 
REMARK  8 active torsions:
REMARK  status: ('A' for Active; 'I' for Inactive)
REMARK    1  A    between atoms: C_1  and  O_2
REMARK    2  A    between atoms: O_2  and  C_3
REMARK    3  A    between atoms: C_6  and  C_7
REMARK    4  A    between atoms: C_7  and  O_8
REMARK    5  A    between atoms: O_8  and  C_9
REMARK    6  A    between atoms: C_12  and  N_13
REMARK    7  A    between atoms: C_15  and  C_16
REMARK    8  A    between atoms: C_25  and  C_26
REMARK                            x       y       z     vdW  Elec       q    Type
REMARK                         _______ _______ _______ _____ _____    ______ ____
ROOT
ATOM      1  C   UNL     1       2.589   5.109  19.210  0.00  0.00    +0.000 A 
ATOM      2  C   UNL     1       2.675   6.362  18.588  0.00  0.00    +0.000 A 
ATOM      3  C   UNL     1       2.137   7.506  19.186  0.00  0.00    +0.000 A 
ATOM      4  C   UNL     1       1.528   7.404  20.437  0.00  0.00    +0.000 A 
ATOM      5  C   UNL     1       1.457   6.166  21.077  0.00  0.00    +0.000 A 
ATOM      6  C   UNL     1       1.990   5.017  20.473  0.00  0.00    +0.000 A 
ENDROOT
BRANCH   4   7
ATOM      7  N   UNL     1       1.008   8.544  21.096  0.00  0.00    +0.000 N 
ATOM      8  C   UNL     1      -0.050   9.332  20.724  0.00  0.00    +0.000 A 
ATOM      9  C   UNL     1      -0.070  10.337  21.660  0.00  0.00    +0.000 A 
ATOM     10  N   UNL     1       0.917  10.127  22.578  0.00  0.00    +0.000 NA
ATOM     11  N   UNL     1       1.559   9.020  22.237  0.00  0.00    +0.000 NA
BRANCH   9  12
ATOM     12  C   UNL     1      -1.011  11.429  21.712  0.00  0.00    +0.000 A 
ATOM     13  C   UNL     1      -1.324  12.116  20.539  0.00  0.00    +0.000 A 
ATOM     14  C   UNL     1      -2.216  13.170  20.618  0.00  0.00    +0.000 A 
ATOM     15  N   UNL     1      -2.804  13.569  21.767  0.00  0.00    +0.000 NA
ATOM     16  C   UNL     1      -2.492  12.883  22.884  0.00  0.00    +0.000 A 
ATOM     17  C   UNL     1      -1.611  11.818  22.912  0.00  0.00    +0.000 A 
ENDBRANCH   9  12
ENDBRANCH   4   7
BRANCH   6  18
ATOM     18  C   UNL     1       1.903   3.813  21.234  0.00  0.00    +0.000 C 
ATOM     19  N   UNL     1       1.808   2.827  21.842  0.00  0.00    +0.000 NA
ENDBRANCH   6  18
BRANCH   1  20
ATOM     20  O   UNL     1       3.173   4.104  18.483  0.00  0.00    +0.000 OA
BRANCH  20  21
ATOM     21  C   UNL     1       4.540   3.790  18.764  0.00  0.00    +0.000 C 
BRANCH  21  25
ATOM     22  C   UNL     1       7.012   5.171  15.508  0.00  0.00    +0.000 A 
ATOM     23  C   UNL     1       6.035   4.198  15.289  0.00  0.00    +0.000 A 
ATOM     24  C   UNL     1       5.224   3.762  16.337  0.00  0.00    +0.000 A 
ATOM     25  C   UNL     1       5.401   4.275  17.627  0.00  0.00    +0.000 A 
ATOM     26  C   UNL     1       6.378   5.254  17.843  0.00  0.00    +0.000 A 
ATOM     27  C   UNL     1       7.182   5.697  16.789  0.00  0.00    +0.000 A 
BRANCH  22  29
ATOM     28  C   UNL     1       7.399   4.855  13.204  0.00  0.00    +0.000 C 
ATOM     29  O   UNL     1       7.764   5.507  14.416  0.00  0.00    +0.000 OA
ENDBRANCH  22  29
ENDBRANCH  21  25
ENDBRANCH  20  21
ENDBRANCH   1  20
TORSDOF 7
ENDMDL
MODEL 2
REMARK VINA RESULT:      -8.0      1.354      1.924
REMARK  Name = 
REMARK  8 active torsions:
REMARK  status: ('A' for Active; 'I' for Inactive)
REMARK    1  A    between atoms: C_1  and  O_2
REMARK    2  A    between atoms: O_2  and  C_3
REMARK    3  A    between atoms: C_6  and  C_7
REMARK    4  A    between atoms: C_7  and  O_8
REMARK    5  A    between atoms: O_8  and  C_9
REMARK    6  A    between atoms: C_12  and  N_13
REMARK    7  A    between atoms: C_15  and  C_16
REMARK    8  A    between atoms: C_25  and  C_26
REMARK                            x       y       z     vdW  Elec       q    Type
REMARK                         _______ _______ _______ _____ _____    ______ ____
ROOT
ATOM      1  C   UNL     1       2.433   4.769  19.026  0.00  0.00    +0.000 A 
ATOM      2  C   UNL     1       2.469   5.929  18.239  0.00  0.00    +0.000 A 
ATOM      3  C   UNL     1       2.093   7.171  18.762  0.00  0.00    +0.000 A 
ATOM      4  C   UNL     1       1.703   7.263  20.098  0.00  0.00    +0.000 A 
ATOM      5  C   UNL     1       1.684   6.119  20.897  0.00  0.00    +0.000 A 
ATOM      6  C   UNL     1       2.054   4.872  20.370  0.00  0.00    +0.000 A 
ENDROOT
BRANCH   4   7
ATOM      7  N   UNL     1       1.355   8.506  20.678  0.00  0.00    +0.000 N 
ATOM      8  C   UNL     1       0.883   9.632  20.055  0.00  0.00    +0.000 A 
ATOM      9  C   UNL     1       0.793  10.564  21.060  0.00  0.00    +0.000 A 
ATOM     10  N   UNL     1       1.159   9.995  22.245  0.00  0.00    +0.000 NA
ATOM     11  N   UNL     1       1.483   8.734  22.006  0.00  0.00    +0.000 NA
BRANCH   9  12
ATOM     12  C   UNL     1       0.337  11.925  20.918  0.00  0.00    +0.000 A 
ATOM     13  C   UNL     1       0.967  12.763  19.997  0.00  0.00    +0.000 A 
ATOM     14  C   UNL     1       0.522  14.067  19.891  0.00  0.00    +0.000 A 
ATOM     15  N   UNL     1      -0.491  14.576  20.626  0.00  0.00    +0.000 NA
ATOM     16  C   UNL     1      -1.089  13.743  21.501  0.00  0.00    +0.000 A 
ATOM     17  C   UNL     1      -0.718  12.424  21.684  0.00  0.00    +0.000 A 
ENDBRANCH   9  12
ENDBRANCH   4   7
BRANCH   6  18
ATOM     18  C   UNL     1       2.042   3.778  21.287  0.00  0.00    +0.000 C 
ATOM     19  N   UNL     1       2.025   2.904  22.053  0.00  0.00    +0.000 NA
ENDBRANCH   6  18
BRANCH   1  20
ATOM     20  O   UNL     1       2.838   3.647  18.351  0.00  0.00    +0.000 OA
BRANCH  20  21
ATOM     21  C   UNL     1       4.171   3.182  18.577  0.00  0.00    +0.000 C 
BRANCH  21  25
ATOM     22  C   UNL     1       6.951   6.128  17.091  0.00  0.00    +0.000 A 
ATOM     23  C   UNL     1       6.822   5.910  18.463  0.00  0.00    +0.000 A 
ATOM     24  C   UNL     1       5.936   4.947  18.945  0.00  0.00    +0.000 A 
ATOM     25  C   UNL     1       5.145   4.208  18.058  0.00  0.00    +0.000 A 
ATOM     26  C   UNL     1       5.280   4.427  16.682  0.00  0.00    +0.000 A 
ATOM     27  C   UNL     1       6.177   5.384  16.201  0.00  0.00    +0.000 A 
BRANCH  22  29
ATOM     28  C   UNL     1       7.870   8.240  17.599  0.00  0.00    +0.000 C 
ATOM     29  O   UNL     1       7.832   7.112  16.732  0.00  0.00    +0.000 OA
ENDBRANCH  22  29
ENDBRANCH  21  25
ENDBRANCH  20  21
ENDBRANCH   1  20
TORSDOF 7
ENDMDL
MODEL 3
REMARK VINA RESULT:      -8.0      1.056      1.506
REMARK  Name = 
REMARK  8 active torsions:
REMARK  status: ('A' for Active; 'I' for Inactive)
REMARK    1  A    between atoms: C_1  and  O_2
REMARK    2  A    between atoms: O_2  and  C_3
REMARK    3  A    between atoms: C_6  and  C_7
REMARK    4  A    between atoms: C_7  and  O_8
REMARK    5  A    between atoms: O_8  and  C_9
REMARK    6  A    between atoms: C_12  and  N_13
REMARK    7  A    between atoms: C_15  and  C_16
REMARK    8  A    between atoms: C_25  and  C_26
REMARK                            x       y       z     vdW  Elec       q    Type
REMARK                         _______ _______ _______ _____ _____    ______ ____
ROOT
ATOM      1  C   UNL     1       2.704   4.942  19.055  0.00  0.00    +0.000 A 
ATOM      2  C   UNL     1       2.787   6.104  18.275  0.00  0.00    +0.000 A 
ATOM      3  C   UNL     1       2.323   7.333  18.756  0.00  0.00    +0.000 A 
ATOM      4  C   UNL     1       1.794   7.410  20.045  0.00  0.00    +0.000 A 
ATOM      5  C   UNL     1       1.726   6.264  20.838  0.00  0.00    +0.000 A 
ATOM      6  C   UNL     1       2.184   5.030  20.353  0.00  0.00    +0.000 A 
ENDROOT
BRANCH   4   7
ATOM      7  N   UNL     1       1.352   8.641  20.585  0.00  0.00    +0.000 N 
ATOM      8  C   UNL     1       0.861   9.734  19.919  0.00  0.00    +0.000 A 
ATOM      9  C   UNL     1       0.667  10.672  20.903  0.00  0.00    +0.000 A 
ATOM     10  N   UNL     1       0.994  10.138  22.116  0.00  0.00    +0.000 NA
ATOM     11  N   UNL     1       1.393   8.891  21.914  0.00  0.00    +0.000 NA
BRANCH   9  12
ATOM     12  C   UNL     1       0.152  12.007  20.715  0.00  0.00    +0.000 A 
ATOM     13  C   UNL     1      -1.157  12.176  20.263  0.00  0.00    +0.000 A 
ATOM     14  C   UNL     1      -1.621  13.464  20.075  0.00  0.00    +0.000 A 
ATOM     15  N   UNL     1      -0.881  14.569  20.308  0.00  0.00    +0.000 NA
ATOM     16  C   UNL     1       0.378  14.379  20.752  0.00  0.00    +0.000 A 
ATOM     17  C   UNL     1       0.937  13.134  20.970  0.00  0.00    +0.000 A 
ENDBRANCH   9  12
ENDBRANCH   4   7
BRANCH   6  18
ATOM     18  C   UNL     1       2.110   3.933  21.264  0.00  0.00    +0.000 C 
ATOM     19  N   UNL     1       2.023   3.046  22.009  0.00  0.00    +0.000 NA
ENDBRANCH   6  18
BRANCH   1  20
ATOM     20  O   UNL     1       3.208   3.833  18.426  0.00  0.00    +0.000 OA
BRANCH  20  21
ATOM     21  C   UNL     1       4.582   3.508  18.656  0.00  0.00    +0.000 C 
BRANCH  21  25
ATOM     22  C   UNL     1       6.943   4.974  15.356  0.00  0.00    +0.000 A 
ATOM     23  C   UNL     1       7.294   5.291  16.669  0.00  0.00    +0.000 A 
ATOM     24  C   UNL     1       6.541   4.805  17.738  0.00  0.00    +0.000 A 
ATOM     25  C   UNL     1       5.408   4.016  17.504  0.00  0.00    +0.000 A 
ATOM     26  C   UNL     1       5.062   3.697  16.186  0.00  0.00    +0.000 A 
ATOM     27  C   UNL     1       5.824   4.176  15.117  0.00  0.00    +0.000 A 
BRANCH  22  29
ATOM     28  C   UNL     1       7.546   5.001  13.076  0.00  0.00    +0.000 C 
ATOM     29  O   UNL     1       7.737   5.523  14.386  0.00  0.00    +0.000 OA
ENDBRANCH  22  29
ENDBRANCH  21  25
ENDBRANCH  20  21
ENDBRANCH   1  20
TORSDOF 7
ENDMDL
MODEL 4
REMARK VINA RESULT:      -7.9      4.185     10.502
REMARK  Name = 
REMARK  8 active torsions:
REMARK  status: ('A' for Active; 'I' for Inactive)
REMARK    1  A    between atoms: C_1  and  O_2
REMARK    2  A    between atoms: O_2  and  C_3
REMARK    3  A    between atoms: C_6  and  C_7
REMARK    4  A    between atoms: C_7  and  O_8
REMARK    5  A    between atoms: O_8  and  C_9
REMARK    6  A    between atoms: C_12  and  N_13
REMARK    7  A    between atoms: C_15  and  C_16
REMARK    8  A    between atoms: C_25  and  C_26
REMARK                            x       y       z     vdW  Elec       q    Type
REMARK                         _______ _______ _______ _____ _____    ______ ____
ROOT
ATOM      1  C   UNL     1      -0.290  10.552  19.532  0.00  0.00    +0.000 A 
ATOM      2  C   UNL     1       0.031  10.181  18.219  0.00  0.00    +0.000 A 
ATOM      3  C   UNL     1       0.993   9.199  17.958  0.00  0.00    +0.000 A 
ATOM      4  C   UNL     1       1.625   8.559  19.024  0.00  0.00    +0.000 A 
ATOM      5  C   UNL     1       1.298   8.905  20.336  0.00  0.00    +0.000 A 
ATOM      6  C   UNL     1       0.338   9.894  20.597  0.00  0.00    +0.000 A 
ENDROOT
BRANCH   4   7
ATOM      7  N   UNL     1       2.574   7.532  18.805  0.00  0.00    +0.000 N 
ATOM      8  C   UNL     1       3.553   7.469  17.848  0.00  0.00    +0.000 A 
ATOM      9  C   UNL     1       4.126   6.234  18.029  0.00  0.00    +0.000 A 
ATOM     10  N   UNL     1       3.533   5.605  19.085  0.00  0.00    +0.000 NA
ATOM     11  N   UNL     1       2.600   6.412  19.565  0.00  0.00    +0.000 NA
BRANCH   9  12
ATOM     12  C   UNL     1       5.219   5.685  17.264  0.00  0.00    +0.000 A 
ATOM     13  C   UNL     1       6.283   5.078  17.934  0.00  0.00    +0.000 A 
ATOM     14  C   UNL     1       7.326   4.574  17.180  0.00  0.00    +0.000 A 
ATOM     15  N   UNL     1       7.372   4.632  15.831  0.00  0.00    +0.000 NA
ATOM     16  C   UNL     1       6.328   5.214  15.208  0.00  0.00    +0.000 A 
ATOM     17  C   UNL     1       5.240   5.751  15.870  0.00  0.00    +0.000 A 
ENDBRANCH   9  12
ENDBRANCH   4   7
BRANCH   6  18
ATOM     18  C   UNL     1       0.048  10.136  21.974  0.00  0.00    +0.000 C 
ATOM     19  N   UNL     1      -0.197  10.358  23.087  0.00  0.00    +0.000 NA
ENDBRANCH   6  18
BRANCH   1  20
ATOM     20  O   UNL     1      -1.255  11.523  19.598  0.00  0.00    +0.000 OA
BRANCH  20  21
ATOM     21  C   UNL     1      -1.985  11.815  18.402  0.00  0.00    +0.000 C 
BRANCH  21  25
ATOM     22  C   UNL     1      -6.209  11.683  19.271  0.00  0.00    +0.000 A 
ATOM     23  C   UNL     1      -5.333  12.343  20.134  0.00  0.00    +0.000 A 
ATOM     24  C   UNL     1      -3.969  12.401  19.846  0.00  0.00    +0.000 A 
ATOM     25  C   UNL     1      -3.460  11.772  18.703  0.00  0.00    +0.000 A 
ATOM     26  C   UNL     1      -4.344  11.115  17.839  0.00  0.00    +0.000 A 
ATOM     27  C   UNL     1      -5.711  11.068  18.123  0.00  0.00    +0.000 A 
BRANCH  22  29
ATOM     28  C   UNL     1      -7.734  11.672  21.070  0.00  0.00    +0.000 C 
ATOM     29  O   UNL     1      -7.520  11.669  19.663  0.00  0.00    +0.000 OA
ENDBRANCH  22  29
ENDBRANCH  21  25
ENDBRANCH  20  21
ENDBRANCH   1  20
TORSDOF 7
ENDMDL
MODEL 5
REMARK VINA RESULT:      -7.8      4.118     10.371
REMARK  Name = 
REMARK  8 active torsions:
REMARK  status: ('A' for Active; 'I' for Inactive)
REMARK    1  A    between atoms: C_1  and  O_2
REMARK    2  A    between atoms: O_2  and  C_3
REMARK    3  A    between atoms: C_6  and  C_7
REMARK    4  A    between atoms: C_7  and  O_8
REMARK    5  A    between atoms: O_8  and  C_9
REMARK    6  A    between atoms: C_12  and  N_13
REMARK    7  A    between atoms: C_15  and  C_16
REMARK    8  A    between atoms: C_25  and  C_26
REMARK                            x       y       z     vdW  Elec       q    Type
REMARK                         _______ _______ _______ _____ _____    ______ ____
ROOT
ATOM      1  C   UNL     1      -0.107  10.533  19.805  0.00  0.00    +0.000 A 
ATOM      2  C   UNL     1       0.203  10.269  18.463  0.00  0.00    +0.000 A 
ATOM      3  C   UNL     1       1.113   9.265  18.114  0.00  0.00    +0.000 A 
ATOM      4  C   UNL     1       1.702   8.494  19.117  0.00  0.00    +0.000 A 
ATOM      5  C   UNL     1       1.384   8.734  20.455  0.00  0.00    +0.000 A 
ATOM      6  C   UNL     1       0.477   9.745  20.805  0.00  0.00    +0.000 A 
ENDROOT
BRANCH   4   7
ATOM      7  N   UNL     1       2.596   7.442  18.806  0.00  0.00    +0.000 N 
ATOM      8  C   UNL     1       3.632   7.445  17.909  0.00  0.00    +0.000 A 
ATOM      9  C   UNL     1       4.110   6.158  17.939  0.00  0.00    +0.000 A 
ATOM     10  N   UNL     1       3.406   5.429  18.853  0.00  0.00    +0.000 NA
ATOM     11  N   UNL     1       2.495   6.226  19.391  0.00  0.00    +0.000 NA
BRANCH   9  12
ATOM     12  C   UNL     1       5.216   5.645  17.168  0.00  0.00    +0.000 A 
ATOM     13  C   UNL     1       5.192   5.762  15.778  0.00  0.00    +0.000 A 
ATOM     14  C   UNL     1       6.256   5.249  15.061  0.00  0.00    +0.000 A 
ATOM     15  N   UNL     1       7.320   4.642  15.629  0.00  0.00    +0.000 NA
ATOM     16  C   UNL     1       7.324   4.550  16.974  0.00  0.00    +0.000 A 
ATOM     17  C   UNL     1       6.309   5.028  17.781  0.00  0.00    +0.000 A 
ENDBRANCH   9  12
ENDBRANCH   4   7
BRANCH   6  18
ATOM     18  C   UNL     1       0.190   9.873  22.197  0.00  0.00    +0.000 C 
ATOM     19  N   UNL     1      -0.032  10.002  23.331  0.00  0.00    +0.000 NA
ENDBRANCH   6  18
BRANCH   1  20
ATOM     20  O   UNL     1      -1.019  11.545  19.959  0.00  0.00    +0.000 OA
BRANCH  20  21
ATOM     21  C   UNL     1      -1.695  12.012  18.788  0.00  0.00    +0.000 C 
BRANCH  21  25
ATOM     22  C   UNL     1      -5.957  11.790  19.427  0.00  0.00    +0.000 A 
ATOM     23  C   UNL     1      -5.369  11.123  18.351  0.00  0.00    +0.000 A 
ATOM     24  C   UNL     1      -3.990  11.180  18.152  0.00  0.00    +0.000 A 
ATOM     25  C   UNL     1      -3.182  11.932  19.014  0.00  0.00    +0.000 A 
ATOM     26  C   UNL     1      -3.774  12.596  20.095  0.00  0.00    +0.000 A 
ATOM     27  C   UNL     1      -5.155  12.527  20.299  0.00  0.00    +0.000 A 
BRANCH  22  29
ATOM     28  C   UNL     1      -7.801  10.932  20.621  0.00  0.00    +0.000 C 
ATOM     29  O   UNL     1      -7.318  11.683  19.513  0.00  0.00    +0.000 OA
ENDBRANCH  22  29
ENDBRANCH  21  25
ENDBRANCH  20  21
ENDBRANCH   1  20
TORSDOF 7
ENDMDL
MODEL 6
REMARK VINA RESULT:      -7.7      0.595      1.352
REMARK  Name = 
REMARK  8 active torsions:
REMARK  status: ('A' for Active; 'I' for Inactive)
REMARK    1  A    between atoms: C_1  and  O_2
REMARK    2  A    between atoms: O_2  and  C_3
REMARK    3  A    between atoms: C_6  and  C_7
REMARK    4  A    between atoms: C_7  and  O_8
REMARK    5  A    between atoms: O_8  and  C_9
REMARK    6  A    between atoms: C_12  and  N_13
REMARK    7  A    between atoms: C_15  and  C_16
REMARK    8  A    between atoms: C_25  and  C_26
REMARK                            x       y       z     vdW  Elec       q    Type
REMARK                         _______ _______ _______ _____ _____    ______ ____
ROOT
ATOM      1  C   UNL     1       2.496   5.771  19.134  0.00  0.00    +0.000 A 
ATOM      2  C   UNL     1       2.488   7.074  18.617  0.00  0.00    +0.000 A 
ATOM      3  C   UNL     1       1.892   8.128  19.318  0.00  0.00    +0.000 A 
ATOM      4  C   UNL     1       1.319   7.884  20.566  0.00  0.00    +0.000 A 
ATOM      5  C   UNL     1       1.341   6.595  21.101  0.00  0.00    +0.000 A 
ATOM      6  C   UNL     1       1.932   5.537  20.395  0.00  0.00    +0.000 A 
ENDROOT
BRANCH   4   7
ATOM      7  N   UNL     1       0.743   8.929  21.327  0.00  0.00    +0.000 N 
ATOM      8  C   UNL     1      -0.241   9.808  20.955  0.00  0.00    +0.000 A 
ATOM      9  C   UNL     1      -0.361  10.657  22.028  0.00  0.00    +0.000 A 
ATOM     10  N   UNL     1       0.494  10.268  23.017  0.00  0.00    +0.000 NA
ATOM     11  N   UNL     1       1.151   9.201  22.588  0.00  0.00    +0.000 NA
BRANCH   9  12
ATOM     12  C   UNL     1      -1.277  11.767  22.134  0.00  0.00    +0.000 A 
ATOM     13  C   UNL     1      -2.214  11.781  23.168  0.00  0.00    +0.000 A 
ATOM     14  C   UNL     1      -3.091  12.847  23.239  0.00  0.00    +0.000 A 
ATOM     15  N   UNL     1      -3.090  13.878  22.366  0.00  0.00    +0.000 NA
ATOM     16  C   UNL     1      -2.169  13.845  21.383  0.00  0.00    +0.000 A 
ATOM     17  C   UNL     1      -1.250  12.825  21.223  0.00  0.00    +0.000 A 
ENDBRANCH   9  12
ENDBRANCH   4   7
BRANCH   6  18
ATOM     18  C   UNL     1       1.939   4.271  21.054  0.00  0.00    +0.000 C 
ATOM     19  N   UNL     1       1.917   3.243  21.596  0.00  0.00    +0.000 NA
ENDBRANCH   6  18
BRANCH   1  20
ATOM     20  O   UNL     1       3.126   4.869  18.316  0.00  0.00    +0.000 OA
BRANCH  20  21
ATOM     21  C   UNL     1       4.457   4.477  18.661  0.00  0.00    +0.000 C 
BRANCH  21  25
ATOM     22  C   UNL     1       7.020   5.052  15.238  0.00  0.00    +0.000 A 
ATOM     23  C   UNL     1       7.159   5.861  16.367  0.00  0.00    +0.000 A 
ATOM     24  C   UNL     1       6.342   5.667  17.481  0.00  0.00    +0.000 A 
ATOM     25  C   UNL     1       5.354   4.675  17.468  0.00  0.00    +0.000 A 
ATOM     26  C   UNL     1       5.221   3.863  16.335  0.00  0.00    +0.000 A 
ATOM     27  C   UNL     1       6.048   4.052  15.225  0.00  0.00    +0.000 A 
BRANCH  22  29
ATOM     28  C   UNL     1       7.409   4.919  12.916  0.00  0.00    +0.000 C 
ATOM     29  O   UNL     1       7.857   5.347  14.197  0.00  0.00    +0.000 OA
ENDBRANCH  22  29
ENDBRANCH  21  25
ENDBRANCH  20  21
ENDBRANCH   1  20
TORSDOF 7
ENDMDL
MODEL 7
REMARK VINA RESULT:      -7.7      1.208      1.596
REMARK  Name = 
REMARK  8 active torsions:
REMARK  status: ('A' for Active; 'I' for Inactive)
REMARK    1  A    between atoms: C_1  and  O_2
REMARK    2  A    between atoms: O_2  and  C_3
REMARK    3  A    between atoms: C_6  and  C_7
REMARK    4  A    between atoms: C_7  and  O_8
REMARK    5  A    between atoms: O_8  and  C_9
REMARK    6  A    between atoms: C_12  and  N_13
REMARK    7  A    between atoms: C_15  and  C_16
REMARK    8  A    between atoms: C_25  and  C_26
REMARK                            x       y       z     vdW  Elec       q    Type
REMARK                         _______ _______ _______ _____ _____    ______ ____
ROOT
ATOM      1  C   UNL     1       2.779   4.901  18.826  0.00  0.00    +0.000 A 
ATOM      2  C   UNL     1       2.858   5.919  17.866  0.00  0.00    +0.000 A 
ATOM      3  C   UNL     1       2.405   7.213  18.144  0.00  0.00    +0.000 A 
ATOM      4  C   UNL     1       1.890   7.503  19.408  0.00  0.00    +0.000 A 
ATOM      5  C   UNL     1       1.827   6.502  20.379  0.00  0.00    +0.000 A 
ATOM      6  C   UNL     1       2.275   5.203  20.098  0.00  0.00    +0.000 A 
ENDROOT
BRANCH   4   7
ATOM      7  N   UNL     1       1.459   8.808  19.744  0.00  0.00    +0.000 N 
ATOM      8  C   UNL     1       0.796   9.221  20.870  0.00  0.00    +0.000 A 
ATOM      9  C   UNL     1       0.548  10.554  20.649  0.00  0.00    +0.000 A 
ATOM     10  N   UNL     1       1.084  10.926  19.451  0.00  0.00    +0.000 NA
ATOM     11  N   UNL     1       1.654   9.859  18.913  0.00  0.00    +0.000 NA
BRANCH   9  12
ATOM     12  C   UNL     1      -0.129  11.453  21.552  0.00  0.00    +0.000 A 
ATOM     13  C   UNL     1       0.123  12.823  21.466  0.00  0.00    +0.000 A 
ATOM     14  C   UNL     1      -0.526  13.662  22.353  0.00  0.00    +0.000 A 
ATOM     15  N   UNL     1      -1.392  13.231  23.295  0.00  0.00    +0.000 NA
ATOM     16  C   UNL     1      -1.625  11.905  23.350  0.00  0.00    +0.000 A 
ATOM     17  C   UNL     1      -1.026  10.983  22.513  0.00  0.00    +0.000 A 
ENDBRANCH   9  12
ENDBRANCH   4   7
BRANCH   6  18
ATOM     18  C   UNL     1       2.206   4.270  21.176  0.00  0.00    +0.000 C 
ATOM     19  N   UNL     1       2.174   3.520  22.063  0.00  0.00    +0.000 NA
ENDBRANCH   6  18
BRANCH   1  20
ATOM     20  O   UNL     1       3.273   3.701  18.382  0.00  0.00    +0.000 OA
BRANCH  20  21
ATOM     21  C   UNL     1       4.648   3.411  18.647  0.00  0.00    +0.000 C 
BRANCH  21  25
ATOM     22  C   UNL     1       7.048   4.896  15.382  0.00  0.00    +0.000 A 
ATOM     23  C   UNL     1       7.411   5.163  16.702  0.00  0.00    +0.000 A 
ATOM     24  C   UNL     1       6.646   4.671  17.760  0.00  0.00    +0.000 A 
ATOM     25  C   UNL     1       5.488   3.926  17.507  0.00  0.00    +0.000 A 
ATOM     26  C   UNL     1       5.129   3.656  16.181  0.00  0.00    +0.000 A 
ATOM     27  C   UNL     1       5.903   4.141  15.124  0.00  0.00    +0.000 A 
BRANCH  22  29
ATOM     28  C   UNL     1       7.573   5.052  13.088  0.00  0.00    +0.000 C 
ATOM     29  O   UNL     1       7.857   5.447  14.426  0.00  0.00    +0.000 OA
ENDBRANCH  22  29
ENDBRANCH  21  25
ENDBRANCH  20  21
ENDBRANCH   1  20
TORSDOF 7
ENDMDL
MODEL 8
REMARK VINA RESULT:      -7.7      1.132      1.510
REMARK  Name = 
REMARK  8 active torsions:
REMARK  status: ('A' for Active; 'I' for Inactive)
REMARK    1  A    between atoms: C_1  and  O_2
REMARK    2  A    between atoms: O_2  and  C_3
REMARK    3  A    between atoms: C_6  and  C_7
REMARK    4  A    between atoms: C_7  and  O_8
REMARK    5  A    between atoms: O_8  and  C_9
REMARK    6  A    between atoms: C_12  and  N_13
REMARK    7  A    between atoms: C_15  and  C_16
REMARK    8  A    between atoms: C_25  and  C_26
REMARK                            x       y       z     vdW  Elec       q    Type
REMARK                         _______ _______ _______ _____ _____    ______ ____
ROOT
ATOM      1  C   UNL     1       2.491   4.962  19.056  0.00  0.00    +0.000 A 
ATOM      2  C   UNL     1       2.484   6.197  18.393  0.00  0.00    +0.000 A 
ATOM      3  C   UNL     1       2.014   7.354  19.023  0.00  0.00    +0.000 A 
ATOM      4  C   UNL     1       1.570   7.285  20.344  0.00  0.00    +0.000 A 
ATOM      5  C   UNL     1       1.593   6.064  21.021  0.00  0.00    +0.000 A 
ATOM      6  C   UNL     1       2.058   4.902  20.387  0.00  0.00    +0.000 A 
ENDROOT
BRANCH   4   7
ATOM      7  N   UNL     1       1.126   8.439  21.032  0.00  0.00    +0.000 N 
ATOM      8  C   UNL     1       0.144   9.321  20.665  0.00  0.00    +0.000 A 
ATOM      9  C   UNL     1       0.179  10.292  21.635  0.00  0.00    +0.000 A 
ATOM     10  N   UNL     1       1.123   9.973  22.567  0.00  0.00    +0.000 NA
ATOM     11  N   UNL     1       1.684   8.830  22.201  0.00  0.00    +0.000 NA
BRANCH   9  12
ATOM     12  C   UNL     1      -0.673  11.454  21.706  0.00  0.00    +0.000 A 
ATOM     13  C   UNL     1      -0.777  12.292  20.595  0.00  0.00    +0.000 A 
ATOM     14  C   UNL     1      -1.587  13.408  20.693  0.00  0.00    +0.000 A 
ATOM     15  N   UNL     1      -2.287  13.731  21.802  0.00  0.00    +0.000 NA
ATOM     16  C   UNL     1      -2.176  12.900  22.858  0.00  0.00    +0.000 A 
ATOM     17  C   UNL     1      -1.392  11.762  22.863  0.00  0.00    +0.000 A 
ENDBRANCH   9  12
ENDBRANCH   4   7
BRANCH   6  18
ATOM     18  C   UNL     1       2.080   3.720  21.186  0.00  0.00    +0.000 C 
ATOM     19  N   UNL     1       2.071   2.760  21.841  0.00  0.00    +0.000 NA
ENDBRANCH   6  18
BRANCH   1  20
ATOM     20  O   UNL     1       2.989   3.941  18.289  0.00  0.00    +0.000 OA
BRANCH  20  21
ATOM     21  C   UNL     1       4.319   3.493  18.563  0.00  0.00    +0.000 C 
BRANCH  21  25
ATOM     22  C   UNL     1       7.117   6.569  17.408  0.00  0.00    +0.000 A 
ATOM     23  C   UNL     1       6.227   6.037  16.473  0.00  0.00    +0.000 A 
ATOM     24  C   UNL     1       5.311   5.054  16.848  0.00  0.00    +0.000 A 
ATOM     25  C   UNL     1       5.293   4.569  18.161  0.00  0.00    +0.000 A 
ATOM     26  C   UNL     1       6.184   5.108  19.097  0.00  0.00    +0.000 A 
ATOM     27  C   UNL     1       7.093   6.101  18.722  0.00  0.00    +0.000 A 
BRANCH  22  29
ATOM     28  C   UNL     1       8.027   8.730  17.656  0.00  0.00    +0.000 C 
ATOM     29  O   UNL     1       7.984   7.509  16.925  0.00  0.00    +0.000 OA
ENDBRANCH  22  29
ENDBRANCH  21  25
ENDBRANCH  20  21
ENDBRANCH   1  20
TORSDOF 7
ENDMDL
MODEL 9
REMARK VINA RESULT:      -7.7      1.322      1.476
REMARK  Name = 
REMARK  8 active torsions:
REMARK  status: ('A' for Active; 'I' for Inactive)
REMARK    1  A    between atoms: C_1  and  O_2
REMARK    2  A    between atoms: O_2  and  C_3
REMARK    3  A    between atoms: C_6  and  C_7
REMARK    4  A    between atoms: C_7  and  O_8
REMARK    5  A    between atoms: O_8  and  C_9
REMARK    6  A    between atoms: C_12  and  N_13
REMARK    7  A    between atoms: C_15  and  C_16
REMARK    8  A    between atoms: C_25  and  C_26
REMARK                            x       y       z     vdW  Elec       q    Type
REMARK                         _______ _______ _______ _____ _____    ______ ____
ROOT
ATOM      1  C   UNL     1       3.432   5.087  19.159  0.00  0.00    +0.000 A 
ATOM      2  C   UNL     1       3.657   6.171  18.300  0.00  0.00    +0.000 A 
ATOM      3  C   UNL     1       2.971   7.380  18.464  0.00  0.00    +0.000 A 
ATOM      4  C   UNL     1       2.067   7.518  19.518  0.00  0.00    +0.000 A 
ATOM      5  C   UNL     1       1.852   6.452  20.393  0.00  0.00    +0.000 A 
ATOM      6  C   UNL     1       2.534   5.238  20.224  0.00  0.00    +0.000 A 
ENDROOT
BRANCH   4   7
ATOM      7  N   UNL     1       1.383   8.736  19.744  0.00  0.00    +0.000 N 
ATOM      8  C   UNL     1       1.061   9.321  20.941  0.00  0.00    +0.000 A 
ATOM      9  C   UNL     1       0.335  10.433  20.591  0.00  0.00    +0.000 A 
ATOM     10  N   UNL     1       0.265  10.524  19.231  0.00  0.00    +0.000 NA
ATOM     11  N   UNL     1       0.923   9.495  18.721  0.00  0.00    +0.000 NA
BRANCH   9  12
ATOM     12  C   UNL     1      -0.235  11.396  21.501  0.00  0.00    +0.000 A 
ATOM     13  C   UNL     1       0.169  12.730  21.424  0.00  0.00    +0.000 A 
ATOM     14  C   UNL     1      -0.379  13.630  22.318  0.00  0.00    +0.000 A 
ATOM     15  N   UNL     1      -1.287  13.293  23.260  0.00  0.00    +0.000 NA
ATOM     16  C   UNL     1      -1.667  12.001  23.307  0.00  0.00    +0.000 A 
ATOM     17  C   UNL     1      -1.178  11.023  22.462  0.00  0.00    +0.000 A 
ENDBRANCH   9  12
ENDBRANCH   4   7
BRANCH   6  18
ATOM     18  C   UNL     1       2.272   4.232  21.202  0.00  0.00    +0.000 C 
ATOM     19  N   UNL     1       2.065   3.394  21.980  0.00  0.00    +0.000 NA
ENDBRANCH   6  18
BRANCH   1  20
ATOM     20  O   UNL     1       4.193   3.989  18.853  0.00  0.00    +0.000 OA
BRANCH  20  21
ATOM     21  C   UNL     1       4.058   3.434  17.541  0.00  0.00    +0.000 C 
BRANCH  21  25
ATOM     22  C   UNL     1       7.163   5.027  15.003  0.00  0.00    +0.000 A 
ATOM     23  C   UNL     1       5.898   4.751  14.482  0.00  0.00    +0.000 A 
ATOM     24  C   UNL     1       4.888   4.251  15.304  0.00  0.00    +0.000 A 
ATOM     25  C   UNL     1       5.141   3.994  16.657  0.00  0.00    +0.000 A 
ATOM     26  C   UNL     1       6.410   4.276  17.177  0.00  0.00    +0.000 A 
ATOM     27  C   UNL     1       7.416   4.787  16.354  0.00  0.00    +0.000 A 
BRANCH  22  29
ATOM     28  C   UNL     1       7.804   5.189  12.740  0.00  0.00    +0.000 C 
ATOM     29  O   UNL     1       8.081   5.492  14.103  0.00  0.00    +0.000 OA
ENDBRANCH  22  29
ENDBRANCH  21  25
ENDBRANCH  20  21
ENDBRANCH   1  20
TORSDOF 7
ENDMDL
