MODEL 1
REMARK VINA RESULT:      -6.6      0.000      0.000
REMARK  Name = 
REMARK  6 active torsions:
REMARK  status: ('A' for Active; 'I' for Inactive)
REMARK    1  A    between atoms: C_1  and  C_2
REMARK    2  A    between atoms: C_2  and  O_3
REMARK    3  A    between atoms: O_3  and  C_4
REMARK    4  A    between atoms: C_7  and  N_8
REMARK    5  A    between atoms: N_8  and  C_9
REMARK    6  A    between atoms: C_9  and  N_11
REMARK                            x       y       z     vdW  Elec       q    Type
REMARK                         _______ _______ _______ _____ _____    ______ ____
ROOT
ATOM      1  C   UNL     1       1.870   3.164  18.649  0.00  0.00    +0.000 A 
ATOM      2  C   UNL     1       2.619   2.008  18.452  0.00  0.00    +0.000 A 
ATOM      3  C   UNL     1       3.841   2.058  17.779  0.00  0.00    +0.000 A 
ATOM      4  C   UNL     1       4.302   3.266  17.249  0.00  0.00    +0.000 A 
ATOM      5  C   UNL     1       3.546   4.422  17.431  0.00  0.00    +0.000 A 
ATOM      6  C   UNL     1       2.326   4.373  18.117  0.00  0.00    +0.000 A 
ENDROOT
BRANCH   4   7
ATOM      7  N   UNL     1       5.569   3.296  16.635  0.00  0.00    +0.000 N 
ATOM      8  H   UNL     1       5.984   2.400  16.420  0.00  0.00    +0.000 HD
BRANCH   7   9
ATOM      9  C   UNL     1       6.181   4.358  15.979  0.00  0.00    +0.000 C 
ATOM     10  S   UNL     1       6.263   4.519  14.307  0.00  0.00    +0.000 S 
BRANCH   9  11
ATOM     11  N   UNL     1       6.798   5.242  16.864  0.00  0.00    +0.000 N 
ATOM     12  C   UNL     1       6.460   6.656  16.992  0.00  0.00    +0.000 C 
ATOM     13  C   UNL     1       7.560   7.212  17.877  0.00  0.00    +0.000 C 
ATOM     14  C   UNL     1       7.850   6.069  18.839  0.00  0.00    +0.000 C 
ATOM     15  C   UNL     1       7.559   4.805  18.031  0.00  0.00    +0.000 C 
ENDBRANCH   9  11
ENDBRANCH   7   9
ENDBRANCH   4   7
BRANCH   1  16
ATOM     16  O   UNL     1       0.722   3.006  19.375  0.00  0.00    +0.000 OA
BRANCH  16  18
ATOM     17  C   UNL     1       1.691   2.841  21.548  0.00  0.00    +0.000 C 
ATOM     18  C   UNL     1       0.718   3.609  20.672  0.00  0.00    +0.000 C 
ENDBRANCH  16  18
ENDBRANCH   1  16
TORSDOF 5
ENDMDL
MODEL 2
REMARK VINA RESULT:      -6.5      1.125      1.933
REMARK  Name = 
REMARK  6 active torsions:
REMARK  status: ('A' for Active; 'I' for Inactive)
REMARK    1  A    between atoms: C_1  and  C_2
REMARK    2  A    between atoms: C_2  and  O_3
REMARK    3  A    between atoms: O_3  and  C_4
REMARK    4  A    between atoms: C_7  and  N_8
REMARK    5  A    between atoms: N_8  and  C_9
REMARK    6  A    between atoms: C_9  and  N_11
REMARK                            x       y       z     vdW  Elec       q    Type
REMARK                         _______ _______ _______ _____ _____    ______ ____
ROOT
ATOM      1  C   UNL     1       1.826   4.297  19.139  0.00  0.00    +0.000 A 
ATOM      2  C   UNL     1       2.366   5.578  19.189  0.00  0.00    +0.000 A 
ATOM      3  C   UNL     1       3.302   5.993  18.241  0.00  0.00    +0.000 A 
ATOM      4  C   UNL     1       3.746   5.106  17.257  0.00  0.00    +0.000 A 
ATOM      5  C   UNL     1       3.219   3.817  17.214  0.00  0.00    +0.000 A 
ATOM      6  C   UNL     1       2.271   3.406  18.159  0.00  0.00    +0.000 A 
ENDROOT
BRANCH   4   7
ATOM      7  N   UNL     1       4.640   5.576  16.275  0.00  0.00    +0.000 N 
ATOM      8  H   UNL     1       4.352   6.402  15.767  0.00  0.00    +0.000 HD
BRANCH   7   9
ATOM      9  C   UNL     1       5.991   5.283  16.131  0.00  0.00    +0.000 C 
ATOM     10  S   UNL     1       6.637   4.391  14.860  0.00  0.00    +0.000 S 
BRANCH   9  11
ATOM     11  N   UNL     1       6.749   5.741  17.208  0.00  0.00    +0.000 N 
ATOM     12  C   UNL     1       7.595   4.897  18.044  0.00  0.00    +0.000 C 
ATOM     13  C   UNL     1       7.987   5.804  19.196  0.00  0.00    +0.000 C 
ATOM     14  C   UNL     1       8.121   7.170  18.538  0.00  0.00    +0.000 C 
ATOM     15  C   UNL     1       7.110   7.145  17.394  0.00  0.00    +0.000 C 
ENDBRANCH   9  11
ENDBRANCH   7   9
ENDBRANCH   4   7
BRANCH   1  16
ATOM     16  O   UNL     1       0.873   4.021  20.080  0.00  0.00    +0.000 OA
BRANCH  16  18
ATOM     17  C   UNL     1       2.235   3.082  21.798  0.00  0.00    +0.000 C 
ATOM     18  C   UNL     1       1.081   2.830  20.845  0.00  0.00    +0.000 C 
ENDBRANCH  16  18
ENDBRANCH   1  16
TORSDOF 5
ENDMDL
MODEL 3
REMARK VINA RESULT:      -6.4      3.446      6.539
REMARK  Name = 
REMARK  6 active torsions:
REMARK  status: ('A' for Active; 'I' for Inactive)
REMARK    1  A    between atoms: C_1  and  C_2
REMARK    2  A    between atoms: C_2  and  O_3
REMARK    3  A    between atoms: O_3  and  C_4
REMARK    4  A    between atoms: C_7  and  N_8
REMARK    5  A    between atoms: N_8  and  C_9
REMARK    6  A    between atoms: C_9  and  N_11
REMARK                            x       y       z     vdW  Elec       q    Type
REMARK                         _______ _______ _______ _____ _____    ______ ____
ROOT
ATOM      1  C   UNL     1       6.755   5.338  16.089  0.00  0.00    +0.000 A 
ATOM      2  C   UNL     1       7.289   5.588  17.350  0.00  0.00    +0.000 A 
ATOM      3  C   UNL     1       6.462   5.654  18.472  0.00  0.00    +0.000 A 
ATOM      4  C   UNL     1       5.079   5.518  18.335  0.00  0.00    +0.000 A 
ATOM      5  C   UNL     1       4.540   5.283  17.072  0.00  0.00    +0.000 A 
ATOM      6  C   UNL     1       5.371   5.207  15.948  0.00  0.00    +0.000 A 
ENDROOT
BRANCH   4   7
ATOM      7  N   UNL     1       4.280   5.521  19.494  0.00  0.00    +0.000 N 
ATOM      8  H   UNL     1       4.772   5.560  20.377  0.00  0.00    +0.000 HD
BRANCH   7   9
ATOM      9  C   UNL     1       2.926   5.818  19.605  0.00  0.00    +0.000 C 
ATOM     10  S   UNL     1       2.280   7.364  19.471  0.00  0.00    +0.000 S 
BRANCH   9  11
ATOM     11  N   UNL     1       2.163   4.695  19.923  0.00  0.00    +0.000 N 
ATOM     12  C   UNL     1       1.671   3.725  18.951  0.00  0.00    +0.000 C 
ATOM     13  C   UNL     1       0.709   2.866  19.751  0.00  0.00    +0.000 C 
ATOM     14  C   UNL     1       1.358   2.798  21.127  0.00  0.00    +0.000 C 
ATOM     15  C   UNL     1       2.094   4.129  21.268  0.00  0.00    +0.000 C 
ENDBRANCH   9  11
ENDBRANCH   7   9
ENDBRANCH   4   7
BRANCH   1  16
ATOM     16  O   UNL     1       7.664   5.234  15.073  0.00  0.00    +0.000 OA
BRANCH  16  18
ATOM     17  C   UNL     1       8.008   5.467  12.725  0.00  0.00    +0.000 C 
ATOM     18  C   UNL     1       7.134   4.850  13.801  0.00  0.00    +0.000 C 
ENDBRANCH  16  18
ENDBRANCH   1  16
TORSDOF 5
ENDMDL
MODEL 4
REMARK VINA RESULT:      -6.3      1.416      1.763
REMARK  Name = 
REMARK  6 active torsions:
REMARK  status: ('A' for Active; 'I' for Inactive)
REMARK    1  A    between atoms: C_1  and  C_2
REMARK    2  A    between atoms: C_2  and  O_3
REMARK    3  A    between atoms: O_3  and  C_4
REMARK    4  A    between atoms: C_7  and  N_8
REMARK    5  A    between atoms: N_8  and  C_9
REMARK    6  A    between atoms: C_9  and  N_11
REMARK                            x       y       z     vdW  Elec       q    Type
REMARK                         _______ _______ _______ _____ _____    ______ ____
ROOT
ATOM      1  C   UNL     1       2.429   5.203  19.512  0.00  0.00    +0.000 A 
ATOM      2  C   UNL     1       2.959   4.166  18.751  0.00  0.00    +0.000 A 
ATOM      3  C   UNL     1       3.749   4.438  17.633  0.00  0.00    +0.000 A 
ATOM      4  C   UNL     1       3.975   5.757  17.235  0.00  0.00    +0.000 A 
ATOM      5  C   UNL     1       3.432   6.797  17.987  0.00  0.00    +0.000 A 
ATOM      6  C   UNL     1       2.649   6.525  19.115  0.00  0.00    +0.000 A 
ENDROOT
BRANCH   4   7
ATOM      7  N   UNL     1       4.832   5.999  16.144  0.00  0.00    +0.000 N 
ATOM      8  H   UNL     1       4.558   6.743  15.517  0.00  0.00    +0.000 HD
BRANCH   7   9
ATOM      9  C   UNL     1       6.155   5.602  15.984  0.00  0.00    +0.000 C 
ATOM     10  S   UNL     1       6.715   4.665  14.706  0.00  0.00    +0.000 S 
BRANCH   9  11
ATOM     11  N   UNL     1       6.958   5.999  17.053  0.00  0.00    +0.000 N 
ATOM     12  C   UNL     1       7.117   7.378  17.501  0.00  0.00    +0.000 C 
ATOM     13  C   UNL     1       8.261   7.306  18.497  0.00  0.00    +0.000 C 
ATOM     14  C   UNL     1       8.054   5.957  19.171  0.00  0.00    +0.000 C 
ATOM     15  C   UNL     1       7.419   5.082  18.093  0.00  0.00    +0.000 C 
ENDBRANCH   9  11
ENDBRANCH   7   9
ENDBRANCH   4   7
BRANCH   1  16
ATOM     16  O   UNL     1       1.723   4.821  20.620  0.00  0.00    +0.000 OA
BRANCH  16  18
ATOM     17  C   UNL     1       1.424   2.714  21.696  0.00  0.00    +0.000 C 
ATOM     18  C   UNL     1       1.024   3.577  20.513  0.00  0.00    +0.000 C 
ENDBRANCH  16  18
ENDBRANCH   1  16
TORSDOF 5
ENDMDL
MODEL 5
REMARK VINA RESULT:      -6.3      3.415      6.261
REMARK  Name = 
REMARK  6 active torsions:
REMARK  status: ('A' for Active; 'I' for Inactive)
REMARK    1  A    between atoms: C_1  and  C_2
REMARK    2  A    between atoms: C_2  and  O_3
REMARK    3  A    between atoms: O_3  and  C_4
REMARK    4  A    between atoms: C_7  and  N_8
REMARK    5  A    between atoms: N_8  and  C_9
REMARK    6  A    between atoms: C_9  and  N_11
REMARK                            x       y       z     vdW  Elec       q    Type
REMARK                         _______ _______ _______ _____ _____    ______ ____
ROOT
ATOM      1  C   UNL     1       5.944   5.121  15.514  0.00  0.00    +0.000 A 
ATOM      2  C   UNL     1       6.171   4.210  16.541  0.00  0.00    +0.000 A 
ATOM      3  C   UNL     1       5.588   4.394  17.797  0.00  0.00    +0.000 A 
ATOM      4  C   UNL     1       4.809   5.525  18.050  0.00  0.00    +0.000 A 
ATOM      5  C   UNL     1       4.593   6.447  17.028  0.00  0.00    +0.000 A 
ATOM      6  C   UNL     1       5.169   6.256  15.766  0.00  0.00    +0.000 A 
ENDROOT
BRANCH   4   7
ATOM      7  N   UNL     1       4.181   5.647  19.305  0.00  0.00    +0.000 N 
ATOM      8  H   UNL     1       4.789   5.811  20.096  0.00  0.00    +0.000 HD
BRANCH   7   9
ATOM      9  C   UNL     1       2.842   5.911  19.574  0.00  0.00    +0.000 C 
ATOM     10  S   UNL     1       2.175   7.453  19.638  0.00  0.00    +0.000 S 
BRANCH   9  11
ATOM     11  N   UNL     1       2.124   4.753  19.871  0.00  0.00    +0.000 N 
ATOM     12  C   UNL     1       1.703   3.764  18.884  0.00  0.00    +0.000 C 
ATOM     13  C   UNL     1       0.760   2.860  19.657  0.00  0.00    +0.000 C 
ATOM     14  C   UNL     1       1.375   2.818  21.048  0.00  0.00    +0.000 C 
ATOM     15  C   UNL     1       2.045   4.181  21.212  0.00  0.00    +0.000 C 
ENDBRANCH   9  11
ENDBRANCH   7   9
ENDBRANCH   4   7
BRANCH   1  16
ATOM     16  O   UNL     1       6.514   4.808  14.311  0.00  0.00    +0.000 OA
BRANCH  16  18
ATOM     17  C   UNL     1       6.588   3.636  12.236  0.00  0.00    +0.000 C 
ATOM     18  C   UNL     1       5.836   3.809  13.543  0.00  0.00    +0.000 C 
ENDBRANCH  16  18
ENDBRANCH   1  16
TORSDOF 5
ENDMDL
MODEL 6
REMARK VINA RESULT:      -6.2      3.429      6.175
REMARK  Name = 
REMARK  6 active torsions:
REMARK  status: ('A' for Active; 'I' for Inactive)
REMARK    1  A    between atoms: C_1  and  C_2
REMARK    2  A    between atoms: C_2  and  O_3
REMARK    3  A    between atoms: O_3  and  C_4
REMARK    4  A    between atoms: C_7  and  N_8
REMARK    5  A    between atoms: N_8  and  C_9
REMARK    6  A    between atoms: C_9  and  N_11
REMARK                            x       y       z     vdW  Elec       q    Type
REMARK                         _______ _______ _______ _____ _____    ______ ____
ROOT
ATOM      1  C   UNL     1       6.721   5.192  16.172  0.00  0.00    +0.000 A 
ATOM      2  C   UNL     1       7.076   4.621  17.390  0.00  0.00    +0.000 A 
ATOM      3  C   UNL     1       6.273   4.798  18.519  0.00  0.00    +0.000 A 
ATOM      4  C   UNL     1       5.128   5.594  18.449  0.00  0.00    +0.000 A 
ATOM      5  C   UNL     1       4.779   6.181  17.234  0.00  0.00    +0.000 A 
ATOM      6  C   UNL     1       5.579   5.994  16.099  0.00  0.00    +0.000 A 
ENDROOT
BRANCH   4   7
ATOM      7  N   UNL     1       4.305   5.698  19.586  0.00  0.00    +0.000 N 
ATOM      8  H   UNL     1       4.747   6.036  20.430  0.00  0.00    +0.000 HD
BRANCH   7   9
ATOM      9  C   UNL     1       2.916   5.728  19.643  0.00  0.00    +0.000 C 
ATOM     10  S   UNL     1       2.013   7.093  20.028  0.00  0.00    +0.000 S 
BRANCH   9  11
ATOM     11  N   UNL     1       2.350   4.472  19.424  0.00  0.00    +0.000 N 
ATOM     12  C   UNL     1       1.507   4.131  18.284  0.00  0.00    +0.000 C 
ATOM     13  C   UNL     1       0.954   2.763  18.639  0.00  0.00    +0.000 C 
ATOM     14  C   UNL     1       2.106   2.100  19.380  0.00  0.00    +0.000 C 
ATOM     15  C   UNL     1       2.834   3.253  20.067  0.00  0.00    +0.000 C 
ENDBRANCH   9  11
ENDBRANCH   7   9
ENDBRANCH   4   7
BRANCH   1  16
ATOM     16  O   UNL     1       7.547   4.902  15.121  0.00  0.00    +0.000 OA
BRANCH  16  18
ATOM     17  C   UNL     1       6.238   3.721  13.515  0.00  0.00    +0.000 C 
ATOM     18  C   UNL     1       6.963   5.019  13.820  0.00  0.00    +0.000 C 
ENDBRANCH  16  18
ENDBRANCH   1  16
TORSDOF 5
ENDMDL
MODEL 7
REMARK VINA RESULT:      -6.2      3.100      6.351
REMARK  Name = 
REMARK  6 active torsions:
REMARK  status: ('A' for Active; 'I' for Inactive)
REMARK    1  A    between atoms: C_1  and  C_2
REMARK    2  A    between atoms: C_2  and  O_3
REMARK    3  A    between atoms: O_3  and  C_4
REMARK    4  A    between atoms: C_7  and  N_8
REMARK    5  A    between atoms: N_8  and  C_9
REMARK    6  A    between atoms: C_9  and  N_11
REMARK                            x       y       z     vdW  Elec       q    Type
REMARK                         _______ _______ _______ _____ _____    ______ ____
ROOT
ATOM      1  C   UNL     1       7.355   7.427  17.708  0.00  0.00    +0.000 A 
ATOM      2  C   UNL     1       7.943   6.612  18.671  0.00  0.00    +0.000 A 
ATOM      3  C   UNL     1       7.345   5.407  19.044  0.00  0.00    +0.000 A 
ATOM      4  C   UNL     1       6.121   5.029  18.489  0.00  0.00    +0.000 A 
ATOM      5  C   UNL     1       5.522   5.850  17.536  0.00  0.00    +0.000 A 
ATOM      6  C   UNL     1       6.128   7.054  17.154  0.00  0.00    +0.000 A 
ENDROOT
BRANCH   4   7
ATOM      7  N   UNL     1       5.579   3.776  18.835  0.00  0.00    +0.000 N 
ATOM      8  H   UNL     1       6.101   3.233  19.510  0.00  0.00    +0.000 HD
BRANCH   7   9
ATOM      9  C   UNL     1       4.278   3.321  18.650  0.00  0.00    +0.000 C 
ATOM     10  S   UNL     1       3.739   2.527  17.270  0.00  0.00    +0.000 S 
BRANCH   9  11
ATOM     11  N   UNL     1       3.440   3.672  19.708  0.00  0.00    +0.000 N 
ATOM     12  C   UNL     1       2.452   4.745  19.662  0.00  0.00    +0.000 C 
ATOM     13  C   UNL     1       2.000   4.885  21.104  0.00  0.00    +0.000 C 
ATOM     14  C   UNL     1       2.032   3.453  21.622  0.00  0.00    +0.000 C 
ATOM     15  C   UNL     1       3.157   2.786  20.835  0.00  0.00    +0.000 C 
ENDBRANCH   9  11
ENDBRANCH   7   9
ENDBRANCH   4   7
BRANCH   1  16
ATOM     16  O   UNL     1       8.059   8.552  17.378  0.00  0.00    +0.000 OA
BRANCH  16  18
ATOM     17  C   UNL     1       8.893  10.698  17.998  0.00  0.00    +0.000 C 
ATOM     18  C   UNL     1       8.611   9.285  18.475  0.00  0.00    +0.000 C 
ENDBRANCH  16  18
ENDBRANCH   1  16
TORSDOF 5
ENDMDL
MODEL 8
REMARK VINA RESULT:      -6.2      3.404      6.339
REMARK  Name = 
REMARK  6 active torsions:
REMARK  status: ('A' for Active; 'I' for Inactive)
REMARK    1  A    between atoms: C_1  and  C_2
REMARK    2  A    between atoms: C_2  and  O_3
REMARK    3  A    between atoms: O_3  and  C_4
REMARK    4  A    between atoms: C_7  and  N_8
REMARK    5  A    between atoms: N_8  and  C_9
REMARK    6  A    between atoms: C_9  and  N_11
REMARK                            x       y       z     vdW  Elec       q    Type
REMARK                         _______ _______ _______ _____ _____    ______ ____
ROOT
ATOM      1  C   UNL     1       5.918   4.662  15.161  0.00  0.00    +0.000 A 
ATOM      2  C   UNL     1       5.462   5.962  15.360  0.00  0.00    +0.000 A 
ATOM      3  C   UNL     1       4.875   6.332  16.571  0.00  0.00    +0.000 A 
ATOM      4  C   UNL     1       4.694   5.385  17.582  0.00  0.00    +0.000 A 
ATOM      5  C   UNL     1       5.136   4.079  17.379  0.00  0.00    +0.000 A 
ATOM      6  C   UNL     1       5.734   3.712  16.168  0.00  0.00    +0.000 A 
ENDROOT
BRANCH   4   7
ATOM      7  N   UNL     1       4.161   5.806  18.816  0.00  0.00    +0.000 N 
ATOM      8  H   UNL     1       4.823   6.170  19.488  0.00  0.00    +0.000 HD
BRANCH   7   9
ATOM      9  C   UNL     1       2.840   6.109  19.123  0.00  0.00    +0.000 C 
ATOM     10  S   UNL     1       2.161   7.640  18.980  0.00  0.00    +0.000 S 
BRANCH   9  11
ATOM     11  N   UNL     1       2.154   5.013  19.647  0.00  0.00    +0.000 N 
ATOM     12  C   UNL     1       1.609   3.919  18.850  0.00  0.00    +0.000 C 
ATOM     13  C   UNL     1       0.760   3.139  19.837  0.00  0.00    +0.000 C 
ATOM     14  C   UNL     1       1.539   3.257  21.140  0.00  0.00    +0.000 C 
ATOM     15  C   UNL     1       2.234   4.614  21.050  0.00  0.00    +0.000 C 
ENDBRANCH   9  11
ENDBRANCH   7   9
ENDBRANCH   4   7
BRANCH   1  16
ATOM     16  O   UNL     1       6.531   4.429  13.960  0.00  0.00    +0.000 OA
BRANCH  16  18
ATOM     17  C   UNL     1       6.713   3.306  11.865  0.00  0.00    +0.000 C 
ATOM     18  C   UNL     1       5.800   3.619  13.036  0.00  0.00    +0.000 C 
ENDBRANCH  16  18
ENDBRANCH   1  16
TORSDOF 5
ENDMDL
MODEL 9
REMARK VINA RESULT:      -6.1      1.259      1.661
REMARK  Name = 
REMARK  6 active torsions:
REMARK  status: ('A' for Active; 'I' for Inactive)
REMARK    1  A    between atoms: C_1  and  C_2
REMARK    2  A    between atoms: C_2  and  O_3
REMARK    3  A    between atoms: O_3  and  C_4
REMARK    4  A    between atoms: C_7  and  N_8
REMARK    5  A    between atoms: N_8  and  C_9
REMARK    6  A    between atoms: C_9  and  N_11
REMARK                            x       y       z     vdW  Elec       q    Type
REMARK                         _______ _______ _______ _____ _____    ______ ____
ROOT
ATOM      1  C   UNL     1       2.903   4.616  19.782  0.00  0.00    +0.000 A 
ATOM      2  C   UNL     1       3.583   3.453  19.432  0.00  0.00    +0.000 A 
ATOM      3  C   UNL     1       4.233   3.355  18.200  0.00  0.00    +0.000 A 
ATOM      4  C   UNL     1       4.166   4.406  17.284  0.00  0.00    +0.000 A 
ATOM      5  C   UNL     1       3.472   5.565  17.626  0.00  0.00    +0.000 A 
ATOM      6  C   UNL     1       2.829   5.668  18.866  0.00  0.00    +0.000 A 
ENDROOT
BRANCH   4   7
ATOM      7  N   UNL     1       4.889   4.302  16.080  0.00  0.00    +0.000 N 
ATOM      8  H   UNL     1       4.359   4.036  15.261  0.00  0.00    +0.000 HD
BRANCH   7   9
ATOM      9  C   UNL     1       6.139   4.833  15.779  0.00  0.00    +0.000 C 
ATOM     10  S   UNL     1       6.879   4.717  14.273  0.00  0.00    +0.000 S 
BRANCH   9  11
ATOM     11  N   UNL     1       6.753   5.404  16.892  0.00  0.00    +0.000 N 
ATOM     12  C   UNL     1       7.630   4.688  17.813  0.00  0.00    +0.000 C 
ATOM     13  C   UNL     1       7.822   5.661  18.961  0.00  0.00    +0.000 C 
ATOM     14  C   UNL     1       7.839   7.019  18.273  0.00  0.00    +0.000 C 
ATOM     15  C   UNL     1       6.927   6.845  17.060  0.00  0.00    +0.000 C 
ENDBRANCH   9  11
ENDBRANCH   7   9
ENDBRANCH   4   7
BRANCH   1  16
ATOM     16  O   UNL     1       2.356   4.624  21.036  0.00  0.00    +0.000 OA
BRANCH  16  18
ATOM     17  C   UNL     1       1.094   2.666  21.550  0.00  0.00    +0.000 C 
ATOM     18  C   UNL     1       2.416   3.385  21.749  0.00  0.00    +0.000 C 
ENDBRANCH  16  18
ENDBRANCH   1  16
TORSDOF 5
ENDMDL
