MODEL 1
REMARK VINA RESULT:      -6.1      0.000      0.000
REMARK  Name = 
REMARK  11 active torsions:
REMARK  status: ('A' for Active; 'I' for Inactive)
REMARK    1  A    between atoms: C_1  and  O_2
REMARK    2  A    between atoms: O_2  and  C_3
REMARK    3  A    between atoms: C_5  and  O_6
REMARK    4  A    between atoms: O_6  and  C_7
REMARK    5  A    between atoms: C_16  and  S_17
REMARK    6  A    between atoms: S_17  and  C_20
REMARK    7  A    between atoms: C_20  and  C_21
REMARK    8  A    between atoms: C_21  and  N_22
REMARK    9  A    between atoms: N_22  and  C_23
REMARK   10  A    between atoms: N_22  and  C_24
REMARK   11  A    between atoms: C_29  and  C_30
REMARK                            x       y       z     vdW  Elec       q    Type
REMARK                         _______ _______ _______ _____ _____    ______ ____
ROOT
ATOM      1  C   UNL     1      -2.190  10.308  17.845  0.00  0.00    +0.000 A 
ATOM      2  C   UNL     1      -0.902   9.856  18.189  0.00  0.00    +0.000 A 
ATOM      3  C   UNL     1      -0.071  10.562  19.083  0.00  0.00    +0.000 A 
ATOM      4  C   UNL     1      -0.579  11.733  19.620  0.00  0.00    +0.000 A 
ATOM      5  C   UNL     1      -1.847  12.194  19.283  0.00  0.00    +0.000 A 
ATOM      6  C   UNL     1      -2.664  11.502  18.400  0.00  0.00    +0.000 A 
ATOM      7 CL   UNL     1      -4.242  12.102  18.033  0.00  0.00    +0.000 Cl
ATOM      8  O   UNL     1      -2.245  13.355  19.913  0.00  0.00    +0.000 OA
ATOM      9  C   UNL     1      -1.198  13.716  20.821  0.00  0.00    +0.000 C 
ATOM     10  C   UNL     1      -0.110  12.684  20.608  0.00  0.00    +0.000 C 
ATOM     11  O   UNL     1       0.934  12.663  21.238  0.00  0.00    +0.000 OA
ATOM     12  C   UNL     1      -1.606  13.627  22.275  0.00  0.00    +0.000 C 
ATOM     13  C   UNL     1      -1.133  14.463  23.217  0.00  0.00    +0.000 C 
ATOM     14  C   UNL     1      -0.142  15.512  22.890  0.00  0.00    +0.000 C 
ATOM     15  O   UNL     1       0.346  16.167  23.807  0.00  0.00    +0.000 OA
ATOM     16  C   UNL     1       0.296  15.699  21.455  0.00  0.00    +0.000 C 
ATOM     17  C   UNL     1      -0.718  15.143  20.450  0.00  0.00    +0.000 C 
ATOM     18  C   UNL     1      -0.150  15.239  19.026  0.00  0.00    +0.000 C 
ENDROOT
BRANCH  12  19
ATOM     19  S   UNL     1      -2.670  12.356  22.832  0.00  0.00    +0.000 S 
ATOM     20  O   UNL     1      -3.710  12.136  21.840  0.00  0.00    +0.000 OA
ATOM     21  O   UNL     1      -1.890  11.221  23.283  0.00  0.00    +0.000 OA
BRANCH  19  22
ATOM     22  C   UNL     1      -3.464  13.006  24.283  0.00  0.00    +0.000 C 
BRANCH  22  23
ATOM     23  C   UNL     1      -4.907  12.547  24.432  0.00  0.00    +0.000 C 
BRANCH  23  24
ATOM     24  N   UNL     1      -5.858  13.344  23.626  0.00  0.00    +0.000 NA
ATOM     25  C   UNL     1      -7.230  13.054  24.062  0.00  0.00    +0.000 C 
ATOM     26  C   UNL     1      -5.611  14.784  23.743  0.00  0.00    +0.000 C 
ENDBRANCH  23  24
ENDBRANCH  22  23
ENDBRANCH  19  22
ENDBRANCH  12  19
BRANCH   1  28
ATOM     27  C   UNL     1      -2.824   9.987  15.568  0.00  0.00    +0.000 C 
ATOM     28  O   UNL     1      -3.005   9.674  16.943  0.00  0.00    +0.000 OA
ENDBRANCH   1  28
BRANCH   3  29
ATOM     29  O   UNL     1       1.125   9.936  19.274  0.00  0.00    +0.000 OA
ATOM     30  C   UNL     1       1.809   9.379  18.165  0.00  0.00    +0.000 C 
ENDBRANCH   3  29
TORSDOF 6
ENDMDL
MODEL 2
REMARK VINA RESULT:      -5.9      2.762      6.414
REMARK  Name = 
REMARK  11 active torsions:
REMARK  status: ('A' for Active; 'I' for Inactive)
REMARK    1  A    between atoms: C_1  and  O_2
REMARK    2  A    between atoms: O_2  and  C_3
REMARK    3  A    between atoms: C_5  and  O_6
REMARK    4  A    between atoms: O_6  and  C_7
REMARK    5  A    between atoms: C_16  and  S_17
REMARK    6  A    between atoms: S_17  and  C_20
REMARK    7  A    between atoms: C_20  and  C_21
REMARK    8  A    between atoms: C_21  and  N_22
REMARK    9  A    between atoms: N_22  and  C_23
REMARK   10  A    between atoms: N_22  and  C_24
REMARK   11  A    between atoms: C_29  and  C_30
REMARK                            x       y       z     vdW  Elec       q    Type
REMARK                         _______ _______ _______ _____ _____    ______ ____
ROOT
ATOM      1  C   UNL     1      -2.514  14.617  22.870  0.00  0.00    +0.000 A 
ATOM      2  C   UNL     1      -1.199  15.117  22.847  0.00  0.00    +0.000 A 
ATOM      3  C   UNL     1      -0.099  14.324  22.463  0.00  0.00    +0.000 A 
ATOM      4  C   UNL     1      -0.366  13.014  22.100  0.00  0.00    +0.000 A 
ATOM      5  C   UNL     1      -1.660  12.505  22.125  0.00  0.00    +0.000 A 
ATOM      6  C   UNL     1      -2.743  13.284  22.507  0.00  0.00    +0.000 A 
ATOM      7 CL   UNL     1      -4.336  12.614  22.496  0.00  0.00    +0.000 Cl
ATOM      8  O   UNL     1      -1.793  11.197  21.709  0.00  0.00    +0.000 OA
ATOM      9  C   UNL     1      -0.495  10.758  21.294  0.00  0.00    +0.000 C 
ATOM     10  C   UNL     1       0.431  11.923  21.576  0.00  0.00    +0.000 C 
ATOM     11  O   UNL     1       1.624  11.915  21.321  0.00  0.00    +0.000 OA
ATOM     12  C   UNL     1      -0.401  10.475  19.811  0.00  0.00    +0.000 C 
ATOM     13  C   UNL     1       0.381   9.506  19.302  0.00  0.00    +0.000 C 
ATOM     14  C   UNL     1       1.239   8.670  20.172  0.00  0.00    +0.000 C 
ATOM     15  O   UNL     1       2.022   7.884  19.646  0.00  0.00    +0.000 OA
ATOM     16  C   UNL     1       1.183   8.857  21.671  0.00  0.00    +0.000 C 
ATOM     17  C   UNL     1      -0.123   9.510  22.137  0.00  0.00    +0.000 C 
ATOM     18  C   UNL     1      -0.055   9.797  23.644  0.00  0.00    +0.000 C 
ENDROOT
BRANCH  12  19
ATOM     19  S   UNL     1      -1.257  11.466  18.652  0.00  0.00    +0.000 S 
ATOM     20  O   UNL     1      -2.626  11.652  19.104  0.00  0.00    +0.000 OA
ATOM     21  O   UNL     1      -0.469  12.638  18.326  0.00  0.00    +0.000 OA
BRANCH  19  22
ATOM     22  C   UNL     1      -1.328  10.499  17.163  0.00  0.00    +0.000 C 
BRANCH  22  23
ATOM     23  C   UNL     1      -2.737  10.046  16.810  0.00  0.00    +0.000 C 
BRANCH  23  24
ATOM     24  N   UNL     1      -3.415  10.949  15.854  0.00  0.00    +0.000 NA
ATOM     25  C   UNL     1      -3.753  10.204  14.634  0.00  0.00    +0.000 C 
ATOM     26  C   UNL     1      -4.639  11.531  16.414  0.00  0.00    +0.000 C 
ENDBRANCH  23  24
ENDBRANCH  22  23
ENDBRANCH  19  22
ENDBRANCH  12  19
BRANCH   1  28
ATOM     27  C   UNL     1      -3.429  16.748  23.426  0.00  0.00    +0.000 C 
ATOM     28  O   UNL     1      -3.600  15.344  23.284  0.00  0.00    +0.000 OA
ENDBRANCH   1  28
BRANCH   3  29
ATOM     29  O   UNL     1       1.074  15.017  22.509  0.00  0.00    +0.000 OA
ATOM     30  C   UNL     1       1.585  15.610  21.329  0.00  0.00    +0.000 C 
ENDBRANCH   3  29
TORSDOF 6
ENDMDL
MODEL 3
REMARK VINA RESULT:      -5.9      2.043      2.850
REMARK  Name = 
REMARK  11 active torsions:
REMARK  status: ('A' for Active; 'I' for Inactive)
REMARK    1  A    between atoms: C_1  and  O_2
REMARK    2  A    between atoms: O_2  and  C_3
REMARK    3  A    between atoms: C_5  and  O_6
REMARK    4  A    between atoms: O_6  and  C_7
REMARK    5  A    between atoms: C_16  and  S_17
REMARK    6  A    between atoms: S_17  and  C_20
REMARK    7  A    between atoms: C_20  and  C_21
REMARK    8  A    between atoms: C_21  and  N_22
REMARK    9  A    between atoms: N_22  and  C_23
REMARK   10  A    between atoms: N_22  and  C_24
REMARK   11  A    between atoms: C_29  and  C_30
REMARK                            x       y       z     vdW  Elec       q    Type
REMARK                         _______ _______ _______ _____ _____    ______ ____
ROOT
ATOM      1  C   UNL     1      -0.257  10.600  19.356  0.00  0.00    +0.000 A 
ATOM      2  C   UNL     1       0.167  10.212  20.641  0.00  0.00    +0.000 A 
ATOM      3  C   UNL     1       0.030  11.053  21.764  0.00  0.00    +0.000 A 
ATOM      4  C   UNL     1      -0.548  12.294  21.554  0.00  0.00    +0.000 A 
ATOM      5  C   UNL     1      -0.965  12.693  20.288  0.00  0.00    +0.000 A 
ATOM      6  C   UNL     1      -0.828  11.867  19.180  0.00  0.00    +0.000 A 
ATOM      7 CL   UNL     1      -1.385  12.397  17.633  0.00  0.00    +0.000 Cl
ATOM      8  O   UNL     1      -1.555  13.938  20.220  0.00  0.00    +0.000 OA
ATOM      9  C   UNL     1      -1.620  14.441  21.560  0.00  0.00    +0.000 C 
ATOM     10  C   UNL     1      -0.942  13.391  22.415  0.00  0.00    +0.000 C 
ATOM     11  O   UNL     1      -0.834  13.472  23.627  0.00  0.00    +0.000 OA
ATOM     12  C   UNL     1      -3.033  14.582  22.080  0.00  0.00    +0.000 C 
ATOM     13  C   UNL     1      -3.401  15.559  22.930  0.00  0.00    +0.000 C 
ATOM     14  C   UNL     1      -2.424  16.545  23.443  0.00  0.00    +0.000 C 
ATOM     15  O   UNL     1      -2.787  17.338  24.307  0.00  0.00    +0.000 OA
ATOM     16  C   UNL     1      -0.997  16.503  22.948  0.00  0.00    +0.000 C 
ATOM     17  C   UNL     1      -0.860  15.792  21.597  0.00  0.00    +0.000 C 
ATOM     18  C   UNL     1       0.624  15.662  21.222  0.00  0.00    +0.000 C 
ENDROOT
BRANCH  12  19
ATOM     19  S   UNL     1      -4.265  13.414  21.664  0.00  0.00    +0.000 S 
ATOM     20  O   UNL     1      -4.399  13.358  20.217  0.00  0.00    +0.000 OA
ATOM     21  O   UNL     1      -4.040  12.178  22.387  0.00  0.00    +0.000 OA
BRANCH  19  22
ATOM     22  C   UNL     1      -5.784  14.080  22.302  0.00  0.00    +0.000 C 
BRANCH  22  23
ATOM     23  C   UNL     1      -6.983  13.802  21.406  0.00  0.00    +0.000 C 
BRANCH  23  24
ATOM     24  N   UNL     1      -7.816  12.677  21.882  0.00  0.00    +0.000 NA
ATOM     25  C   UNL     1      -7.511  11.476  21.094  0.00  0.00    +0.000 C 
ATOM     26  C   UNL     1      -7.597  12.387  23.303  0.00  0.00    +0.000 C 
ENDBRANCH  23  24
ENDBRANCH  22  23
ENDBRANCH  19  22
ENDBRANCH  12  19
BRANCH   1  28
ATOM     27  C   UNL     1       1.218   9.371  17.941  0.00  0.00    +0.000 C 
ATOM     28  O   UNL     1      -0.096   9.830  18.234  0.00  0.00    +0.000 OA
ENDBRANCH   1  28
BRANCH   3  29
ATOM     29  O   UNL     1       0.501  10.468  22.903  0.00  0.00    +0.000 OA
ATOM     30  C   UNL     1      -0.218   9.398  23.490  0.00  0.00    +0.000 C 
ENDBRANCH   3  29
TORSDOF 6
ENDMDL
MODEL 4
REMARK VINA RESULT:      -5.8      0.895      1.082
REMARK  Name = 
REMARK  11 active torsions:
REMARK  status: ('A' for Active; 'I' for Inactive)
REMARK    1  A    between atoms: C_1  and  O_2
REMARK    2  A    between atoms: O_2  and  C_3
REMARK    3  A    between atoms: C_5  and  O_6
REMARK    4  A    between atoms: O_6  and  C_7
REMARK    5  A    between atoms: C_16  and  S_17
REMARK    6  A    between atoms: S_17  and  C_20
REMARK    7  A    between atoms: C_20  and  C_21
REMARK    8  A    between atoms: C_21  and  N_22
REMARK    9  A    between atoms: N_22  and  C_23
REMARK   10  A    between atoms: N_22  and  C_24
REMARK   11  A    between atoms: C_29  and  C_30
REMARK                            x       y       z     vdW  Elec       q    Type
REMARK                         _______ _______ _______ _____ _____    ______ ____
ROOT
ATOM      1  C   UNL     1      -2.116  10.343  17.909  0.00  0.00    +0.000 A 
ATOM      2  C   UNL     1      -0.812   9.908  18.210  0.00  0.00    +0.000 A 
ATOM      3  C   UNL     1       0.045  10.633  19.062  0.00  0.00    +0.000 A 
ATOM      4  C   UNL     1      -0.452  11.807  19.603  0.00  0.00    +0.000 A 
ATOM      5  C   UNL     1      -1.737  12.252  19.308  0.00  0.00    +0.000 A 
ATOM      6  C   UNL     1      -2.581  11.541  18.466  0.00  0.00    +0.000 A 
ATOM      7 CL   UNL     1      -4.177  12.122  18.152  0.00  0.00    +0.000 Cl
ATOM      8  O   UNL     1      -2.121  13.418  19.938  0.00  0.00    +0.000 OA
ATOM      9  C   UNL     1      -1.044  13.800  20.800  0.00  0.00    +0.000 C 
ATOM     10  C   UNL     1       0.044  12.775  20.560  0.00  0.00    +0.000 C 
ATOM     11  O   UNL     1       1.112  12.771  21.149  0.00  0.00    +0.000 OA
ATOM     12  C   UNL     1      -1.396  13.726  22.270  0.00  0.00    +0.000 C 
ATOM     13  C   UNL     1      -0.895  14.579  23.182  0.00  0.00    +0.000 C 
ATOM     14  C   UNL     1       0.073  15.633  22.804  0.00  0.00    +0.000 C 
ATOM     15  O   UNL     1       0.590  16.304  23.693  0.00  0.00    +0.000 OA
ATOM     16  C   UNL     1       0.454  15.804  21.351  0.00  0.00    +0.000 C 
ATOM     17  C   UNL     1      -0.592  15.226  20.393  0.00  0.00    +0.000 C 
ATOM     18  C   UNL     1      -0.079  15.308  18.947  0.00  0.00    +0.000 C 
ENDROOT
BRANCH  12  19
ATOM     19  S   UNL     1      -2.425  12.454  22.884  0.00  0.00    +0.000 S 
ATOM     20  O   UNL     1      -1.793  11.168  22.636  0.00  0.00    +0.000 OA
ATOM     21  O   UNL     1      -2.849  12.769  24.234  0.00  0.00    +0.000 OA
BRANCH  19  22
ATOM     22  C   UNL     1      -3.895  12.511  21.887  0.00  0.00    +0.000 C 
BRANCH  22  23
ATOM     23  C   UNL     1      -5.063  13.197  22.581  0.00  0.00    +0.000 C 
BRANCH  23  24
ATOM     24  N   UNL     1      -6.236  12.313  22.757  0.00  0.00    +0.000 NA
ATOM     25  C   UNL     1      -6.955  12.692  23.980  0.00  0.00    +0.000 C 
ATOM     26  C   UNL     1      -7.157  12.381  21.618  0.00  0.00    +0.000 C 
ENDBRANCH  23  24
ENDBRANCH  22  23
ENDBRANCH  19  22
ENDBRANCH  12  19
BRANCH   1  28
ATOM     27  C   UNL     1      -2.801   9.950  15.658  0.00  0.00    +0.000 C 
ATOM     28  O   UNL     1      -2.959   9.691  17.047  0.00  0.00    +0.000 OA
ENDBRANCH   1  28
BRANCH   3  29
ATOM     29  O   UNL     1       1.254  10.020  19.215  0.00  0.00    +0.000 OA
ATOM     30  C   UNL     1       1.854   9.369  18.109  0.00  0.00    +0.000 C 
ENDBRANCH   3  29
TORSDOF 6
ENDMDL
MODEL 5
REMARK VINA RESULT:      -5.8      3.249      5.957
REMARK  Name = 
REMARK  11 active torsions:
REMARK  status: ('A' for Active; 'I' for Inactive)
REMARK    1  A    between atoms: C_1  and  O_2
REMARK    2  A    between atoms: O_2  and  C_3
REMARK    3  A    between atoms: C_5  and  O_6
REMARK    4  A    between atoms: O_6  and  C_7
REMARK    5  A    between atoms: C_16  and  S_17
REMARK    6  A    between atoms: S_17  and  C_20
REMARK    7  A    between atoms: C_20  and  C_21
REMARK    8  A    between atoms: C_21  and  N_22
REMARK    9  A    between atoms: N_22  and  C_23
REMARK   10  A    between atoms: N_22  and  C_24
REMARK   11  A    between atoms: C_29  and  C_30
REMARK                            x       y       z     vdW  Elec       q    Type
REMARK                         _______ _______ _______ _____ _____    ______ ____
ROOT
ATOM      1  C   UNL     1      -3.310  12.485  22.904  0.00  0.00    +0.000 A 
ATOM      2  C   UNL     1      -2.329  11.594  23.380  0.00  0.00    +0.000 A 
ATOM      3  C   UNL     1      -1.034  11.535  22.826  0.00  0.00    +0.000 A 
ATOM      4  C   UNL     1      -0.757  12.403  21.783  0.00  0.00    +0.000 A 
ATOM      5  C   UNL     1      -1.719  13.284  21.299  0.00  0.00    +0.000 A 
ATOM      6  C   UNL     1      -2.996  13.340  21.840  0.00  0.00    +0.000 A 
ATOM      7 CL   UNL     1      -4.148  14.470  21.222  0.00  0.00    +0.000 Cl
ATOM      8  O   UNL     1      -1.305  14.116  20.280  0.00  0.00    +0.000 OA
ATOM      9  C   UNL     1       0.085  13.849  20.063  0.00  0.00    +0.000 C 
ATOM     10  C   UNL     1       0.429  12.721  21.014  0.00  0.00    +0.000 C 
ATOM     11  O   UNL     1       1.547  12.246  21.123  0.00  0.00    +0.000 OA
ATOM     12  C   UNL     1       0.984  15.011  20.422  0.00  0.00    +0.000 C 
ATOM     13  C   UNL     1       2.122  15.284  19.758  0.00  0.00    +0.000 C 
ATOM     14  C   UNL     1       2.589  14.430  18.643  0.00  0.00    +0.000 C 
ATOM     15  O   UNL     1       3.692  14.653  18.152  0.00  0.00    +0.000 OA
ATOM     16  C   UNL     1       1.736  13.267  18.191  0.00  0.00    +0.000 C 
ATOM     17  C   UNL     1       0.263  13.427  18.582  0.00  0.00    +0.000 C 
ATOM     18  C   UNL     1      -0.516  12.154  18.218  0.00  0.00    +0.000 C 
ENDROOT
BRANCH  12  19
ATOM     19  S   UNL     1       0.628  16.031  21.797  0.00  0.00    +0.000 S 
ATOM     20  O   UNL     1      -0.599  16.768  21.539  0.00  0.00    +0.000 OA
ATOM     21  O   UNL     1       0.731  15.263  23.022  0.00  0.00    +0.000 OA
BRANCH  19  22
ATOM     22  C   UNL     1       1.946  17.221  21.858  0.00  0.00    +0.000 C 
BRANCH  22  23
ATOM     23  C   UNL     1       2.891  17.009  23.032  0.00  0.00    +0.000 C 
BRANCH  23  24
ATOM     24  N   UNL     1       4.096  16.227  22.676  0.00  0.00    +0.000 NA
ATOM     25  C   UNL     1       5.018  17.074  21.908  0.00  0.00    +0.000 C 
ATOM     26  C   UNL     1       4.791  15.710  23.859  0.00  0.00    +0.000 C 
ENDBRANCH  23  24
ENDBRANCH  22  23
ENDBRANCH  19  22
ENDBRANCH  12  19
BRANCH   1  28
ATOM     27  C   UNL     1      -4.774  12.343  24.782  0.00  0.00    +0.000 C 
ATOM     28  O   UNL     1      -4.593  12.536  23.385  0.00  0.00    +0.000 OA
ENDBRANCH   1  28
BRANCH   3  29
ATOM     29  O   UNL     1      -0.253  10.606  23.447  0.00  0.00    +0.000 OA
ATOM     30  C   UNL     1       0.001   9.367  22.810  0.00  0.00    +0.000 C 
ENDBRANCH   3  29
TORSDOF 6
ENDMDL
MODEL 6
REMARK VINA RESULT:      -5.8      3.144      5.469
REMARK  Name = 
REMARK  11 active torsions:
REMARK  status: ('A' for Active; 'I' for Inactive)
REMARK    1  A    between atoms: C_1  and  O_2
REMARK    2  A    between atoms: O_2  and  C_3
REMARK    3  A    between atoms: C_5  and  O_6
REMARK    4  A    between atoms: O_6  and  C_7
REMARK    5  A    between atoms: C_16  and  S_17
REMARK    6  A    between atoms: S_17  and  C_20
REMARK    7  A    between atoms: C_20  and  C_21
REMARK    8  A    between atoms: C_21  and  N_22
REMARK    9  A    between atoms: N_22  and  C_23
REMARK   10  A    between atoms: N_22  and  C_24
REMARK   11  A    between atoms: C_29  and  C_30
REMARK                            x       y       z     vdW  Elec       q    Type
REMARK                         _______ _______ _______ _____ _____    ______ ____
ROOT
ATOM      1  C   UNL     1       0.455   9.822  19.415  0.00  0.00    +0.000 A 
ATOM      2  C   UNL     1      -0.467  10.410  18.528  0.00  0.00    +0.000 A 
ATOM      3  C   UNL     1      -1.208  11.559  18.867  0.00  0.00    +0.000 A 
ATOM      4  C   UNL     1      -0.990  12.099  20.124  0.00  0.00    +0.000 A 
ATOM      5  C   UNL     1      -0.087  11.525  21.012  0.00  0.00    +0.000 A 
ATOM      6  C   UNL     1       0.641  10.390  20.681  0.00  0.00    +0.000 A 
ATOM      7 CL   UNL     1       1.770   9.728  21.809  0.00  0.00    +0.000 Cl
ATOM      8  O   UNL     1       0.060  12.179  22.218  0.00  0.00    +0.000 OA
ATOM      9  C   UNL     1      -0.759  13.352  22.158  0.00  0.00    +0.000 C 
ATOM     10  C   UNL     1      -1.460  13.282  20.817  0.00  0.00    +0.000 C 
ATOM     11  O   UNL     1      -2.227  14.139  20.410  0.00  0.00    +0.000 OA
ATOM     12  C   UNL     1       0.034  14.640  22.170  0.00  0.00    +0.000 C 
ATOM     13  C   UNL     1      -0.414  15.765  22.755  0.00  0.00    +0.000 C 
ATOM     14  C   UNL     1      -1.746  15.823  23.400  0.00  0.00    +0.000 C 
ATOM     15  O   UNL     1      -2.154  16.905  23.810  0.00  0.00    +0.000 OA
ATOM     16  C   UNL     1      -2.592  14.572  23.468  0.00  0.00    +0.000 C 
ATOM     17  C   UNL     1      -1.764  13.290  23.337  0.00  0.00    +0.000 C 
ATOM     18  C   UNL     1      -2.696  12.070  23.274  0.00  0.00    +0.000 C 
ENDROOT
BRANCH  12  19
ATOM     19  S   UNL     1       1.566  14.759  21.336  0.00  0.00    +0.000 S 
ATOM     20  O   UNL     1       2.606  14.171  22.165  0.00  0.00    +0.000 OA
ATOM     21  O   UNL     1       1.423  14.297  19.970  0.00  0.00    +0.000 OA
BRANCH  19  22
ATOM     22  C   UNL     1       1.911  16.499  21.226  0.00  0.00    +0.000 C 
BRANCH  22  23
ATOM     23  C   UNL     1       3.154  16.813  20.407  0.00  0.00    +0.000 C 
BRANCH  23  24
ATOM     24  N   UNL     1       2.851  17.486  19.125  0.00  0.00    +0.000 NA
ATOM     25  C   UNL     1       3.240  16.612  18.010  0.00  0.00    +0.000 C 
ATOM     26  C   UNL     1       1.429  17.821  18.998  0.00  0.00    +0.000 C 
ENDBRANCH  23  24
ENDBRANCH  22  23
ENDBRANCH  19  22
ENDBRANCH  12  19
BRANCH   1  28
ATOM     27  C   UNL     1       2.080   8.723  18.057  0.00  0.00    +0.000 C 
ATOM     28  O   UNL     1       1.157   8.677  19.138  0.00  0.00    +0.000 OA
ENDBRANCH   1  28
BRANCH   3  29
ATOM     29  O   UNL     1      -2.032  11.955  17.856  0.00  0.00    +0.000 OA
ATOM     30  C   UNL     1      -2.379  11.037  16.835  0.00  0.00    +0.000 C 
ENDBRANCH   3  29
TORSDOF 6
ENDMDL
MODEL 7
REMARK VINA RESULT:      -5.8      3.189      5.656
REMARK  Name = 
REMARK  11 active torsions:
REMARK  status: ('A' for Active; 'I' for Inactive)
REMARK    1  A    between atoms: C_1  and  O_2
REMARK    2  A    between atoms: O_2  and  C_3
REMARK    3  A    between atoms: C_5  and  O_6
REMARK    4  A    between atoms: O_6  and  C_7
REMARK    5  A    between atoms: C_16  and  S_17
REMARK    6  A    between atoms: S_17  and  C_20
REMARK    7  A    between atoms: C_20  and  C_21
REMARK    8  A    between atoms: C_21  and  N_22
REMARK    9  A    between atoms: N_22  and  C_23
REMARK   10  A    between atoms: N_22  and  C_24
REMARK   11  A    between atoms: C_29  and  C_30
REMARK                            x       y       z     vdW  Elec       q    Type
REMARK                         _______ _______ _______ _____ _____    ______ ____
ROOT
ATOM      1  C   UNL     1      -2.559  10.508  17.590  0.00  0.00    +0.000 A 
ATOM      2  C   UNL     1      -3.759  11.201  17.836  0.00  0.00    +0.000 A 
ATOM      3  C   UNL     1      -3.885  12.139  18.880  0.00  0.00    +0.000 A 
ATOM      4  C   UNL     1      -2.765  12.359  19.666  0.00  0.00    +0.000 A 
ATOM      5  C   UNL     1      -1.575  11.676  19.437  0.00  0.00    +0.000 A 
ATOM      6  C   UNL     1      -1.451  10.749  18.411  0.00  0.00    +0.000 A 
ATOM      7 CL   UNL     1       0.055   9.945  18.151  0.00  0.00    +0.000 Cl
ATOM      8  O   UNL     1      -0.527  12.011  20.269  0.00  0.00    +0.000 OA
ATOM      9  C   UNL     1      -0.992  13.066  21.119  0.00  0.00    +0.000 C 
ATOM     10  C   UNL     1      -2.446  13.268  20.748  0.00  0.00    +0.000 C 
ATOM     11  O   UNL     1      -3.163  14.114  21.258  0.00  0.00    +0.000 OA
ATOM     12  C   UNL     1      -0.292  14.385  20.877  0.00  0.00    +0.000 C 
ATOM     13  C   UNL     1      -0.043  15.268  21.861  0.00  0.00    +0.000 C 
ATOM     14  C   UNL     1      -0.478  15.016  23.253  0.00  0.00    +0.000 C 
ATOM     15  O   UNL     1      -0.333  15.907  24.086  0.00  0.00    +0.000 OA
ATOM     16  C   UNL     1      -1.152  13.707  23.595  0.00  0.00    +0.000 C 
ATOM     17  C   UNL     1      -0.832  12.597  22.589  0.00  0.00    +0.000 C 
ATOM     18  C   UNL     1      -1.655  11.341  22.915  0.00  0.00    +0.000 C 
ENDROOT
BRANCH  12  19
ATOM     19  S   UNL     1       0.164  14.877  19.262  0.00  0.00    +0.000 S 
ATOM     20  O   UNL     1       0.457  13.694  18.469  0.00  0.00    +0.000 OA
ATOM     21  O   UNL     1      -0.794  15.836  18.749  0.00  0.00    +0.000 OA
BRANCH  19  22
ATOM     22  C   UNL     1       1.689  15.768  19.452  0.00  0.00    +0.000 C 
BRANCH  22  23
ATOM     23  C   UNL     1       2.920  14.909  19.197  0.00  0.00    +0.000 C 
BRANCH  23  24
ATOM     24  N   UNL     1       3.519  15.134  17.864  0.00  0.00    +0.000 NA
ATOM     25  C   UNL     1       3.181  16.485  17.397  0.00  0.00    +0.000 C 
ATOM     26  C   UNL     1       4.978  14.983  17.879  0.00  0.00    +0.000 C 
ENDBRANCH  23  24
ENDBRANCH  22  23
ENDBRANCH  19  22
ENDBRANCH  12  19
BRANCH   1  28
ATOM     27  C   UNL     1      -2.894   9.873  15.315  0.00  0.00    +0.000 C 
ATOM     28  O   UNL     1      -2.415   9.554  16.615  0.00  0.00    +0.000 OA
ENDBRANCH   1  28
BRANCH   3  29
ATOM     29  O   UNL     1      -5.131  12.691  18.927  0.00  0.00    +0.000 OA
ATOM     30  C   UNL     1      -6.264  11.852  19.065  0.00  0.00    +0.000 C 
ENDBRANCH   3  29
TORSDOF 6
ENDMDL
MODEL 8
REMARK VINA RESULT:      -5.7      2.691      6.385
REMARK  Name = 
REMARK  11 active torsions:
REMARK  status: ('A' for Active; 'I' for Inactive)
REMARK    1  A    between atoms: C_1  and  O_2
REMARK    2  A    between atoms: O_2  and  C_3
REMARK    3  A    between atoms: C_5  and  O_6
REMARK    4  A    between atoms: O_6  and  C_7
REMARK    5  A    between atoms: C_16  and  S_17
REMARK    6  A    between atoms: S_17  and  C_20
REMARK    7  A    between atoms: C_20  and  C_21
REMARK    8  A    between atoms: C_21  and  N_22
REMARK    9  A    between atoms: N_22  and  C_23
REMARK   10  A    between atoms: N_22  and  C_24
REMARK   11  A    between atoms: C_29  and  C_30
REMARK                            x       y       z     vdW  Elec       q    Type
REMARK                         _______ _______ _______ _____ _____    ______ ____
ROOT
ATOM      1  C   UNL     1      -2.593  14.645  23.218  0.00  0.00    +0.000 A 
ATOM      2  C   UNL     1      -1.278  15.148  23.220  0.00  0.00    +0.000 A 
ATOM      3  C   UNL     1      -0.190  14.414  22.707  0.00  0.00    +0.000 A 
ATOM      4  C   UNL     1      -0.468  13.159  22.190  0.00  0.00    +0.000 A 
ATOM      5  C   UNL     1      -1.761  12.646  22.188  0.00  0.00    +0.000 A 
ATOM      6  C   UNL     1      -2.833  13.368  22.697  0.00  0.00    +0.000 A 
ATOM      7 CL   UNL     1      -4.425  12.699  22.648  0.00  0.00    +0.000 Cl
ATOM      8  O   UNL     1      -1.907  11.400  21.615  0.00  0.00    +0.000 OA
ATOM      9  C   UNL     1      -0.621  11.021  21.111  0.00  0.00    +0.000 C 
ATOM     10  C   UNL     1       0.313  12.145  21.510  0.00  0.00    +0.000 C 
ATOM     11  O   UNL     1       1.498  12.174  21.222  0.00  0.00    +0.000 OA
ATOM     12  C   UNL     1      -0.571  10.928  19.602  0.00  0.00    +0.000 C 
ATOM     13  C   UNL     1       0.196  10.033  18.953  0.00  0.00    +0.000 C 
ATOM     14  C   UNL     1       1.078   9.097  19.686  0.00  0.00    +0.000 C 
ATOM     15  O   UNL     1       1.846   8.386  19.042  0.00  0.00    +0.000 OA
ATOM     16  C   UNL     1       1.066   9.094  21.197  0.00  0.00    +0.000 C 
ATOM     17  C   UNL     1      -0.225   9.679  21.779  0.00  0.00    +0.000 C 
ATOM     18  C   UNL     1      -0.113   9.775  23.308  0.00  0.00    +0.000 C 
ENDROOT
BRANCH  12  19
ATOM     19  S   UNL     1      -1.460  12.054  18.602  0.00  0.00    +0.000 S 
ATOM     20  O   UNL     1      -1.807  11.405  17.348  0.00  0.00    +0.000 OA
ATOM     21  O   UNL     1      -2.515  12.676  19.376  0.00  0.00    +0.000 OA
BRANCH  19  22
ATOM     22  C   UNL     1      -0.311  13.352  18.215  0.00  0.00    +0.000 C 
BRANCH  22  23
ATOM     23  C   UNL     1      -0.579  14.639  18.983  0.00  0.00    +0.000 C 
BRANCH  23  24
ATOM     24  N   UNL     1       0.653  15.387  19.314  0.00  0.00    +0.000 NA
ATOM     25  C   UNL     1       1.819  14.666  18.786  0.00  0.00    +0.000 C 
ATOM     26  C   UNL     1       0.640  16.746  18.764  0.00  0.00    +0.000 C 
ENDBRANCH  23  24
ENDBRANCH  22  23
ENDBRANCH  19  22
ENDBRANCH  12  19
BRANCH   1  28
ATOM     27  C   UNL     1      -4.072  16.513  23.111  0.00  0.00    +0.000 C 
ATOM     28  O   UNL     1      -3.666  15.310  23.752  0.00  0.00    +0.000 OA
ENDBRANCH   1  28
BRANCH   3  29
ATOM     29  O   UNL     1       0.984  15.099  22.806  0.00  0.00    +0.000 OA
ATOM     30  C   UNL     1       0.968  16.515  22.837  0.00  0.00    +0.000 C 
ENDBRANCH   3  29
TORSDOF 6
ENDMDL
MODEL 9
REMARK VINA RESULT:      -5.7      3.171      6.085
REMARK  Name = 
REMARK  11 active torsions:
REMARK  status: ('A' for Active; 'I' for Inactive)
REMARK    1  A    between atoms: C_1  and  O_2
REMARK    2  A    between atoms: O_2  and  C_3
REMARK    3  A    between atoms: C_5  and  O_6
REMARK    4  A    between atoms: O_6  and  C_7
REMARK    5  A    between atoms: C_16  and  S_17
REMARK    6  A    between atoms: S_17  and  C_20
REMARK    7  A    between atoms: C_20  and  C_21
REMARK    8  A    between atoms: C_21  and  N_22
REMARK    9  A    between atoms: N_22  and  C_23
REMARK   10  A    between atoms: N_22  and  C_24
REMARK   11  A    between atoms: C_29  and  C_30
REMARK                            x       y       z     vdW  Elec       q    Type
REMARK                         _______ _______ _______ _____ _____    ______ ____
ROOT
ATOM      1  C   UNL     1      -4.606  13.276  22.383  0.00  0.00    +0.000 A 
ATOM      2  C   UNL     1      -5.051  12.870  21.111  0.00  0.00    +0.000 A 
ATOM      3  C   UNL     1      -4.165  12.671  20.033  0.00  0.00    +0.000 A 
ATOM      4  C   UNL     1      -2.819  12.891  20.276  0.00  0.00    +0.000 A 
ATOM      5  C   UNL     1      -2.367  13.299  21.526  0.00  0.00    +0.000 A 
ATOM      6  C   UNL     1      -3.239  13.499  22.588  0.00  0.00    +0.000 A 
ATOM      7 CL   UNL     1      -2.626  13.981  24.130  0.00  0.00    +0.000 Cl
ATOM      8  O   UNL     1      -1.001  13.451  21.645  0.00  0.00    +0.000 OA
ATOM      9  C   UNL     1      -0.429  13.057  20.393  0.00  0.00    +0.000 C 
ATOM     10  C   UNL     1      -1.606  12.725  19.500  0.00  0.00    +0.000 C 
ATOM     11  O   UNL     1      -1.494  12.324  18.354  0.00  0.00    +0.000 OA
ATOM     12  C   UNL     1       0.416  11.806  20.485  0.00  0.00    +0.000 C 
ATOM     13  C   UNL     1       1.510  11.608  19.728  0.00  0.00    +0.000 C 
ATOM     14  C   UNL     1       1.940  12.601  18.718  0.00  0.00    +0.000 C 
ATOM     15  O   UNL     1       2.873  12.317  17.972  0.00  0.00    +0.000 OA
ATOM     16  C   UNL     1       1.177  13.899  18.582  0.00  0.00    +0.000 C 
ATOM     17  C   UNL     1       0.388  14.257  19.845  0.00  0.00    +0.000 C 
ATOM     18  C   UNL     1      -0.470  15.506  19.590  0.00  0.00    +0.000 C 
ENDROOT
BRANCH  12  19
ATOM     19  S   UNL     1      -0.042  10.489  21.540  0.00  0.00    +0.000 S 
ATOM     20  O   UNL     1      -0.177  10.992  22.898  0.00  0.00    +0.000 OA
ATOM     21  O   UNL     1      -1.148   9.753  20.961  0.00  0.00    +0.000 OA
BRANCH  19  22
ATOM     22  C   UNL     1       1.341   9.374  21.533  0.00  0.00    +0.000 C 
BRANCH  22  23
ATOM     23  C   UNL     1       1.048   8.060  20.824  0.00  0.00    +0.000 C 
BRANCH  23  24
ATOM     24  N   UNL     1       2.188   7.565  20.021  0.00  0.00    +0.000 NA
ATOM     25  C   UNL     1       2.177   6.097  20.010  0.00  0.00    +0.000 C 
ATOM     26  C   UNL     1       2.148   8.056  18.640  0.00  0.00    +0.000 C 
ENDBRANCH  23  24
ENDBRANCH  22  23
ENDBRANCH  19  22
ENDBRANCH  12  19
BRANCH   1  28
ATOM     27  C   UNL     1      -6.358  12.501  23.804  0.00  0.00    +0.000 C 
ATOM     28  O   UNL     1      -5.442  13.526  23.440  0.00  0.00    +0.000 OA
ENDBRANCH   1  28
BRANCH   3  29
ATOM     29  O   UNL     1      -4.815  12.273  18.902  0.00  0.00    +0.000 OA
ATOM     30  C   UNL     1      -4.643  10.951  18.424  0.00  0.00    +0.000 C 
ENDBRANCH   3  29
TORSDOF 6
ENDMDL
