MODEL 1
REMARK VINA RESULT:      -7.5      0.000      0.000
REMARK  Name = 
REMARK  8 active torsions:
REMARK  status: ('A' for Active; 'I' for Inactive)
REMARK    1  A    between atoms: C_1  and  C_2
REMARK    2  A    between atoms: C_2  and  N_3
REMARK    3  A    between atoms: C_4  and  C_5
REMARK    4  A    between atoms: C_8  and  C_9
REMARK    5  A    between atoms: C_9  and  N_10
REMARK    6  A    between atoms: N_10  and  C_11
REMARK    7  A    between atoms: C_15  and  C_16
REMARK    8  A    between atoms: C_16  and  C_17
REMARK                            x       y       z     vdW  Elec       q    Type
REMARK                         _______ _______ _______ _____ _____    ______ ____
ROOT
ATOM      1  C   UNL     1       5.481   4.524  17.674  0.00  0.00    +0.000 C 
ATOM      2  C   UNL     1       5.514   6.052  17.669  0.00  0.00    +0.000 C 
ATOM      3  C   UNL     1       4.161   6.431  18.237  0.00  0.00    +0.000 C 
ATOM      4  C   UNL     1       3.190   5.404  17.666  0.00  0.00    +0.000 C 
ATOM      5  C   UNL     1       4.034   4.199  17.198  0.00  0.00    +0.000 C 
ENDROOT
BRANCH   1   6
ATOM      6  N   UNL     1       6.537   3.937  16.839  0.00  0.00    +0.000 NA
ATOM      7  H   UNL     1       7.290   4.622  16.740  0.00  0.00    +0.000 HD
BRANCH   6   8
ATOM      8  C   UNL     1       6.095   3.592  15.470  0.00  0.00    +0.000 C 
BRANCH   8  14
ATOM      9  N   UNL     1       6.712   4.143  13.043  0.00  0.00    +0.000 N 
ATOM     10  C   UNL     1       7.516   5.094  12.453  0.00  0.00    +0.000 A 
ATOM     11  C   UNL     1       7.680   5.325  10.997  0.00  0.00    +0.000 C 
ATOM     12  N   UNL     1       8.111   5.789  13.400  0.00  0.00    +0.000 NA
ATOM     13  N   UNL     1       7.694   5.313  14.608  0.00  0.00    +0.000 NA
ATOM     14  C   UNL     1       6.824   4.345  14.403  0.00  0.00    +0.000 A 
BRANCH   9  16
ATOM     15  C   UNL     1       4.605   3.603  11.861  0.00  0.00    +0.000 C 
ATOM     16  C   UNL     1       5.955   3.116  12.362  0.00  0.00    +0.000 C 
ENDBRANCH   9  16
ENDBRANCH   8  14
ENDBRANCH   6   8
ENDBRANCH   1   6
BRANCH   5  17
ATOM     17  C   UNL     1       3.500   2.859  17.749  0.00  0.00    +0.000 C 
BRANCH  17  18
ATOM     18  C   UNL     1       2.725   2.919  19.056  0.00  0.00    +0.000 A 
ATOM     19  C   UNL     1       1.333   3.080  19.074  0.00  0.00    +0.000 A 
ATOM     20  C   UNL     1       0.624   3.034  20.280  0.00  0.00    +0.000 A 
ATOM     21  C   UNL     1       1.297   2.830  21.485  0.00  0.00    +0.000 A 
ATOM     22  C   UNL     1       2.679   2.686  21.485  0.00  0.00    +0.000 A 
ATOM     23  C   UNL     1       3.388   2.730  20.281  0.00  0.00    +0.000 A 
ENDBRANCH  17  18
ENDBRANCH   5  17
TORSDOF 6
ENDMDL
MODEL 2
REMARK VINA RESULT:      -7.4      3.695      6.379
REMARK  Name = 
REMARK  8 active torsions:
REMARK  status: ('A' for Active; 'I' for Inactive)
REMARK    1  A    between atoms: C_1  and  C_2
REMARK    2  A    between atoms: C_2  and  N_3
REMARK    3  A    between atoms: C_4  and  C_5
REMARK    4  A    between atoms: C_8  and  C_9
REMARK    5  A    between atoms: C_9  and  N_10
REMARK    6  A    between atoms: N_10  and  C_11
REMARK    7  A    between atoms: C_15  and  C_16
REMARK    8  A    between atoms: C_16  and  C_17
REMARK                            x       y       z     vdW  Elec       q    Type
REMARK                         _______ _______ _______ _____ _____    ______ ____
ROOT
ATOM      1  C   UNL     1       4.040   5.717  17.449  0.00  0.00    +0.000 C 
ATOM      2  C   UNL     1       5.115   6.488  16.683  0.00  0.00    +0.000 C 
ATOM      3  C   UNL     1       5.376   5.613  15.475  0.00  0.00    +0.000 C 
ATOM      4  C   UNL     1       5.285   4.182  15.994  0.00  0.00    +0.000 C 
ATOM      5  C   UNL     1       4.512   4.237  17.330  0.00  0.00    +0.000 C 
ENDROOT
BRANCH   1   6
ATOM      6  N   UNL     1       3.887   6.192  18.831  0.00  0.00    +0.000 NA
ATOM      7  H   UNL     1       4.197   5.451  19.464  0.00  0.00    +0.000 HD
BRANCH   6   8
ATOM      8  C   UNL     1       2.490   6.508  19.203  0.00  0.00    +0.000 C 
BRANCH   8  14
ATOM      9  N   UNL     1       1.580   8.850  19.712  0.00  0.00    +0.000 N 
ATOM     10  C   UNL     1       1.401   9.991  18.959  0.00  0.00    +0.000 A 
ATOM     11  C   UNL     1       0.940  11.310  19.459  0.00  0.00    +0.000 C 
ATOM     12  N   UNL     1       1.727   9.728  17.710  0.00  0.00    +0.000 NA
ATOM     13  N   UNL     1       2.133   8.429  17.639  0.00  0.00    +0.000 NA
ATOM     14  C   UNL     1       2.082   7.902  18.844  0.00  0.00    +0.000 A 
BRANCH   9  16
ATOM     15  C   UNL     1      -0.237   8.487  21.354  0.00  0.00    +0.000 C 
ATOM     16  C   UNL     1       1.251   8.684  21.110  0.00  0.00    +0.000 C 
ENDBRANCH   9  16
ENDBRANCH   8  14
ENDBRANCH   6   8
ENDBRANCH   1   6
BRANCH   5  17
ATOM     17  C   UNL     1       3.348   3.224  17.376  0.00  0.00    +0.000 C 
BRANCH  17  18
ATOM     18  C   UNL     1       2.674   3.020  18.723  0.00  0.00    +0.000 A 
ATOM     19  C   UNL     1       3.421   2.806  19.890  0.00  0.00    +0.000 A 
ATOM     20  C   UNL     1       2.791   2.717  21.136  0.00  0.00    +0.000 A 
ATOM     21  C   UNL     1       1.405   2.839  21.234  0.00  0.00    +0.000 A 
ATOM     22  C   UNL     1       0.648   3.035  20.084  0.00  0.00    +0.000 A 
ATOM     23  C   UNL     1       1.277   3.125  18.839  0.00  0.00    +0.000 A 
ENDBRANCH  17  18
ENDBRANCH   5  17
TORSDOF 6
ENDMDL
MODEL 3
REMARK VINA RESULT:      -7.3      2.429      5.204
REMARK  Name = 
REMARK  8 active torsions:
REMARK  status: ('A' for Active; 'I' for Inactive)
REMARK    1  A    between atoms: C_1  and  C_2
REMARK    2  A    between atoms: C_2  and  N_3
REMARK    3  A    between atoms: C_4  and  C_5
REMARK    4  A    between atoms: C_8  and  C_9
REMARK    5  A    between atoms: C_9  and  N_10
REMARK    6  A    between atoms: N_10  and  C_11
REMARK    7  A    between atoms: C_15  and  C_16
REMARK    8  A    between atoms: C_16  and  C_17
REMARK                            x       y       z     vdW  Elec       q    Type
REMARK                         _______ _______ _______ _____ _____    ______ ____
ROOT
ATOM      1  C   UNL     1       1.953   3.807  19.354  0.00  0.00    +0.000 C 
ATOM      2  C   UNL     1       2.450   2.455  19.864  0.00  0.00    +0.000 C 
ATOM      3  C   UNL     1       2.128   2.501  21.344  0.00  0.00    +0.000 C 
ATOM      4  C   UNL     1       2.400   3.942  21.763  0.00  0.00    +0.000 C 
ATOM      5  C   UNL     1       2.395   4.793  20.476  0.00  0.00    +0.000 C 
ENDROOT
BRANCH   1   6
ATOM      6  N   UNL     1       2.480   4.132  18.022  0.00  0.00    +0.000 NA
ATOM      7  H   UNL     1       1.799   3.828  17.321  0.00  0.00    +0.000 HD
BRANCH   6   8
ATOM      8  C   UNL     1       3.752   3.450  17.700  0.00  0.00    +0.000 C 
BRANCH   8  14
ATOM      9  N   UNL     1       5.540   5.253  17.342  0.00  0.00    +0.000 N 
ATOM     10  C   UNL     1       6.587   5.726  18.104  0.00  0.00    +0.000 A 
ATOM     11  C   UNL     1       7.475   6.865  17.764  0.00  0.00    +0.000 C 
ATOM     12  N   UNL     1       6.663   5.011  19.207  0.00  0.00    +0.000 NA
ATOM     13  N   UNL     1       5.667   4.081  19.183  0.00  0.00    +0.000 NA
ATOM     14  C   UNL     1       4.963   4.241  18.081  0.00  0.00    +0.000 A 
BRANCH   9  16
ATOM     15  C   UNL     1       5.794   4.864  14.910  0.00  0.00    +0.000 C 
ATOM     16  C   UNL     1       5.171   5.701  16.017  0.00  0.00    +0.000 C 
ENDBRANCH   9  16
ENDBRANCH   8  14
ENDBRANCH   6   8
ENDBRANCH   1   6
BRANCH   5  17
ATOM     17  C   UNL     1       1.477   6.029  20.593  0.00  0.00    +0.000 C 
BRANCH  17  18
ATOM     18  C   UNL     1       1.815   7.217  19.707  0.00  0.00    +0.000 A 
ATOM     19  C   UNL     1       2.669   7.087  18.603  0.00  0.00    +0.000 A 
ATOM     20  C   UNL     1       2.892   8.167  17.741  0.00  0.00    +0.000 A 
ATOM     21  C   UNL     1       2.267   9.393  17.972  0.00  0.00    +0.000 A 
ATOM     22  C   UNL     1       1.431   9.543  19.073  0.00  0.00    +0.000 A 
ATOM     23  C   UNL     1       1.207   8.464  19.933  0.00  0.00    +0.000 A 
ENDBRANCH  17  18
ENDBRANCH   5  17
TORSDOF 6
ENDMDL
MODEL 4
REMARK VINA RESULT:      -7.3      2.821      5.004
REMARK  Name = 
REMARK  8 active torsions:
REMARK  status: ('A' for Active; 'I' for Inactive)
REMARK    1  A    between atoms: C_1  and  C_2
REMARK    2  A    between atoms: C_2  and  N_3
REMARK    3  A    between atoms: C_4  and  C_5
REMARK    4  A    between atoms: C_8  and  C_9
REMARK    5  A    between atoms: C_9  and  N_10
REMARK    6  A    between atoms: N_10  and  C_11
REMARK    7  A    between atoms: C_15  and  C_16
REMARK    8  A    between atoms: C_16  and  C_17
REMARK                            x       y       z     vdW  Elec       q    Type
REMARK                         _______ _______ _______ _____ _____    ______ ____
ROOT
ATOM      1  C   UNL     1       3.161   3.422  19.311  0.00  0.00    +0.000 C 
ATOM      2  C   UNL     1       2.394   2.498  20.256  0.00  0.00    +0.000 C 
ATOM      3  C   UNL     1       1.039   3.166  20.371  0.00  0.00    +0.000 C 
ATOM      4  C   UNL     1       1.334   4.662  20.382  0.00  0.00    +0.000 C 
ATOM      5  C   UNL     1       2.750   4.845  19.795  0.00  0.00    +0.000 C 
ENDROOT
BRANCH   1   6
ATOM      6  N   UNL     1       4.609   3.172  19.334  0.00  0.00    +0.000 NA
ATOM      7  H   UNL     1       5.016   3.700  20.110  0.00  0.00    +0.000 HD
BRANCH   6   8
ATOM      8  C   UNL     1       5.311   3.611  18.109  0.00  0.00    +0.000 C 
BRANCH   8  14
ATOM      9  N   UNL     1       6.563   5.746  17.440  0.00  0.00    +0.000 N 
ATOM     10  C   UNL     1       7.425   6.595  18.100  0.00  0.00    +0.000 A 
ATOM     11  C   UNL     1       7.987   7.861  17.570  0.00  0.00    +0.000 C 
ATOM     12  N   UNL     1       7.659   6.109  19.301  0.00  0.00    +0.000 NA
ATOM     13  N   UNL     1       6.947   4.955  19.442  0.00  0.00    +0.000 NA
ATOM     14  C   UNL     1       6.257   4.746  18.340  0.00  0.00    +0.000 A 
BRANCH   9  16
ATOM     15  C   UNL     1       4.902   6.753  15.906  0.00  0.00    +0.000 C 
ATOM     16  C   UNL     1       6.125   5.864  16.067  0.00  0.00    +0.000 C 
ENDBRANCH   9  16
ENDBRANCH   8  14
ENDBRANCH   6   8
ENDBRANCH   1   6
BRANCH   5  17
ATOM     17  C   UNL     1       2.787   5.902  18.670  0.00  0.00    +0.000 C 
BRANCH  17  18
ATOM     18  C   UNL     1       2.216   7.271  19.001  0.00  0.00    +0.000 A 
ATOM     19  C   UNL     1       1.974   8.224  18.001  0.00  0.00    +0.000 A 
ATOM     20  C   UNL     1       1.357   9.442  18.310  0.00  0.00    +0.000 A 
ATOM     21  C   UNL     1       0.975   9.726  19.621  0.00  0.00    +0.000 A 
ATOM     22  C   UNL     1       1.224   8.798  20.627  0.00  0.00    +0.000 A 
ATOM     23  C   UNL     1       1.838   7.581  20.319  0.00  0.00    +0.000 A 
ENDBRANCH  17  18
ENDBRANCH   5  17
TORSDOF 6
ENDMDL
MODEL 5
REMARK VINA RESULT:      -7.3      3.029      6.264
REMARK  Name = 
REMARK  8 active torsions:
REMARK  status: ('A' for Active; 'I' for Inactive)
REMARK    1  A    between atoms: C_1  and  C_2
REMARK    2  A    between atoms: C_2  and  N_3
REMARK    3  A    between atoms: C_4  and  C_5
REMARK    4  A    between atoms: C_8  and  C_9
REMARK    5  A    between atoms: C_9  and  N_10
REMARK    6  A    between atoms: N_10  and  C_11
REMARK    7  A    between atoms: C_15  and  C_16
REMARK    8  A    between atoms: C_16  and  C_17
REMARK                            x       y       z     vdW  Elec       q    Type
REMARK                         _______ _______ _______ _____ _____    ______ ____
ROOT
ATOM      1  C   UNL     1       5.363   4.227  17.517  0.00  0.00    +0.000 C 
ATOM      2  C   UNL     1       6.648   4.451  16.720  0.00  0.00    +0.000 C 
ATOM      3  C   UNL     1       7.212   5.723  17.320  0.00  0.00    +0.000 C 
ATOM      4  C   UNL     1       5.997   6.596  17.611  0.00  0.00    +0.000 C 
ATOM      5  C   UNL     1       4.768   5.662  17.640  0.00  0.00    +0.000 C 
ENDROOT
BRANCH   1   6
ATOM      6  N   UNL     1       4.467   3.255  16.876  0.00  0.00    +0.000 NA
ATOM      7  H   UNL     1       3.542   3.682  16.780  0.00  0.00    +0.000 HD
BRANCH   6   8
ATOM      8  C   UNL     1       4.281   2.011  17.654  0.00  0.00    +0.000 C 
BRANCH   8  14
ATOM      9  N   UNL     1       2.482   2.464  19.424  0.00  0.00    +0.000 N 
ATOM     10  C   UNL     1       2.499   2.576  20.798  0.00  0.00    +0.000 A 
ATOM     11  C   UNL     1       1.319   2.749  21.680  0.00  0.00    +0.000 C 
ATOM     12  N   UNL     1       3.746   2.484  21.213  0.00  0.00    +0.000 NA
ATOM     13  N   UNL     1       4.546   2.298  20.125  0.00  0.00    +0.000 NA
ATOM     14  C   UNL     1       3.792   2.249  19.047  0.00  0.00    +0.000 A 
BRANCH   9  16
ATOM     15  C   UNL     1       1.233   3.970  17.908  0.00  0.00    +0.000 C 
ATOM     16  C   UNL     1       1.326   2.602  18.565  0.00  0.00    +0.000 C 
ENDBRANCH   9  16
ENDBRANCH   8  14
ENDBRANCH   6   8
ENDBRANCH   1   6
BRANCH   5  17
ATOM     17  C   UNL     1       3.913   5.857  18.911  0.00  0.00    +0.000 C 
BRANCH  17  18
ATOM     18  C   UNL     1       2.939   7.023  18.906  0.00  0.00    +0.000 A 
ATOM     19  C   UNL     1       2.175   7.344  20.038  0.00  0.00    +0.000 A 
ATOM     20  C   UNL     1       1.357   8.479  20.049  0.00  0.00    +0.000 A 
ATOM     21  C   UNL     1       1.288   9.309  18.930  0.00  0.00    +0.000 A 
ATOM     22  C   UNL     1       2.026   8.996  17.794  0.00  0.00    +0.000 A 
ATOM     23  C   UNL     1       2.845   7.863  17.783  0.00  0.00    +0.000 A 
ENDBRANCH  17  18
ENDBRANCH   5  17
TORSDOF 6
ENDMDL
MODEL 6
REMARK VINA RESULT:      -7.2      2.310      4.638
REMARK  Name = 
REMARK  8 active torsions:
REMARK  status: ('A' for Active; 'I' for Inactive)
REMARK    1  A    between atoms: C_1  and  C_2
REMARK    2  A    between atoms: C_2  and  N_3
REMARK    3  A    between atoms: C_4  and  C_5
REMARK    4  A    between atoms: C_8  and  C_9
REMARK    5  A    between atoms: C_9  and  N_10
REMARK    6  A    between atoms: N_10  and  C_11
REMARK    7  A    between atoms: C_15  and  C_16
REMARK    8  A    between atoms: C_16  and  C_17
REMARK                            x       y       z     vdW  Elec       q    Type
REMARK                         _______ _______ _______ _____ _____    ______ ____
ROOT
ATOM      1  C   UNL     1       2.905   3.435  18.811  0.00  0.00    +0.000 C 
ATOM      2  C   UNL     1       1.890   2.455  18.222  0.00  0.00    +0.000 C 
ATOM      3  C   UNL     1       0.565   2.971  18.744  0.00  0.00    +0.000 C 
ATOM      4  C   UNL     1       0.856   3.448  20.162  0.00  0.00    +0.000 C 
ATOM      5  C   UNL     1       2.383   3.655  20.262  0.00  0.00    +0.000 C 
ENDROOT
BRANCH   1   6
ATOM      6  N   UNL     1       4.282   2.929  18.736  0.00  0.00    +0.000 NA
ATOM      7  H   UNL     1       4.788   3.243  19.567  0.00  0.00    +0.000 HD
BRANCH   6   8
ATOM      8  C   UNL     1       5.039   3.428  17.566  0.00  0.00    +0.000 C 
BRANCH   8  14
ATOM      9  N   UNL     1       6.205   5.674  17.153  0.00  0.00    +0.000 N 
ATOM     10  C   UNL     1       7.110   6.427  17.869  0.00  0.00    +0.000 A 
ATOM     11  C   UNL     1       7.610   7.776  17.508  0.00  0.00    +0.000 C 
ATOM     12  N   UNL     1       7.451   5.760  18.952  0.00  0.00    +0.000 NA
ATOM     13  N   UNL     1       6.767   4.580  18.961  0.00  0.00    +0.000 NA
ATOM     14  C   UNL     1       5.988   4.535  17.901  0.00  0.00    +0.000 A 
BRANCH   9  16
ATOM     15  C   UNL     1       6.166   5.105  14.745  0.00  0.00    +0.000 C 
ATOM     16  C   UNL     1       5.649   6.001  15.858  0.00  0.00    +0.000 C 
ENDBRANCH   9  16
ENDBRANCH   8  14
ENDBRANCH   6   8
ENDBRANCH   1   6
BRANCH   5  17
ATOM     17  C   UNL     1       2.750   5.042  20.834  0.00  0.00    +0.000 C 
BRANCH  17  18
ATOM     18  C   UNL     1       2.426   6.246  19.965  0.00  0.00    +0.000 A 
ATOM     19  C   UNL     1       1.676   7.324  20.458  0.00  0.00    +0.000 A 
ATOM     20  C   UNL     1       1.471   8.467  19.678  0.00  0.00    +0.000 A 
ATOM     21  C   UNL     1       2.008   8.549  18.393  0.00  0.00    +0.000 A 
ATOM     22  C   UNL     1       2.739   7.482  17.884  0.00  0.00    +0.000 A 
ATOM     23  C   UNL     1       2.946   6.341  18.663  0.00  0.00    +0.000 A 
ENDBRANCH  17  18
ENDBRANCH   5  17
TORSDOF 6
ENDMDL
MODEL 7
REMARK VINA RESULT:      -7.2      4.455      7.865
REMARK  Name = 
REMARK  8 active torsions:
REMARK  status: ('A' for Active; 'I' for Inactive)
REMARK    1  A    between atoms: C_1  and  C_2
REMARK    2  A    between atoms: C_2  and  N_3
REMARK    3  A    between atoms: C_4  and  C_5
REMARK    4  A    between atoms: C_8  and  C_9
REMARK    5  A    between atoms: C_9  and  N_10
REMARK    6  A    between atoms: N_10  and  C_11
REMARK    7  A    between atoms: C_15  and  C_16
REMARK    8  A    between atoms: C_16  and  C_17
REMARK                            x       y       z     vdW  Elec       q    Type
REMARK                         _______ _______ _______ _____ _____    ______ ____
ROOT
ATOM      1  C   UNL     1       2.630   4.888  19.824  0.00  0.00    +0.000 C 
ATOM      2  C   UNL     1       1.302   4.553  20.503  0.00  0.00    +0.000 C 
ATOM      3  C   UNL     1       0.877   3.268  19.823  0.00  0.00    +0.000 C 
ATOM      4  C   UNL     1       1.293   3.435  18.366  0.00  0.00    +0.000 C 
ATOM      5  C   UNL     1       2.355   4.554  18.327  0.00  0.00    +0.000 C 
ENDROOT
BRANCH   1   6
ATOM      6  N   UNL     1       3.051   6.274  20.066  0.00  0.00    +0.000 NA
ATOM      7  H   UNL     1       2.974   6.465  21.068  0.00  0.00    +0.000 HD
BRANCH   6   8
ATOM      8  C   UNL     1       2.215   7.281  19.376  0.00  0.00    +0.000 C 
BRANCH   8  14
ATOM      9  N   UNL     1       1.020   9.476  19.950  0.00  0.00    +0.000 N 
ATOM     10  C   UNL     1       0.528  10.020  21.117  0.00  0.00    +0.000 A 
ATOM     11  C   UNL     1      -0.235  11.287  21.242  0.00  0.00    +0.000 C 
ATOM     12  N   UNL     1       0.827   9.216  22.116  0.00  0.00    +0.000 NA
ATOM     13  N   UNL     1       1.500   8.142  21.615  0.00  0.00    +0.000 NA
ATOM     14  C   UNL     1       1.590   8.272  20.307  0.00  0.00    +0.000 A 
BRANCH   9  16
ATOM     15  C   UNL     1      -0.347   9.900  17.931  0.00  0.00    +0.000 C 
ATOM     16  C   UNL     1       0.986  10.084  18.638  0.00  0.00    +0.000 C 
ENDBRANCH   9  16
ENDBRANCH   8  14
ENDBRANCH   6   8
ENDBRANCH   1   6
BRANCH   5  17
ATOM     17  C   UNL     1       3.625   4.131  17.557  0.00  0.00    +0.000 C 
BRANCH  17  18
ATOM     18  C   UNL     1       4.844   5.027  17.707  0.00  0.00    +0.000 A 
ATOM     19  C   UNL     1       5.951   4.635  18.473  0.00  0.00    +0.000 A 
ATOM     20  C   UNL     1       7.103   5.427  18.521  0.00  0.00    +0.000 A 
ATOM     21  C   UNL     1       7.166   6.623  17.806  0.00  0.00    +0.000 A 
ATOM     22  C   UNL     1       6.071   7.034  17.055  0.00  0.00    +0.000 A 
ATOM     23  C   UNL     1       4.920   6.243  17.005  0.00  0.00    +0.000 A 
ENDBRANCH  17  18
ENDBRANCH   5  17
TORSDOF 6
ENDMDL
MODEL 8
REMARK VINA RESULT:      -7.2      2.433      7.197
REMARK  Name = 
REMARK  8 active torsions:
REMARK  status: ('A' for Active; 'I' for Inactive)
REMARK    1  A    between atoms: C_1  and  C_2
REMARK    2  A    between atoms: C_2  and  N_3
REMARK    3  A    between atoms: C_4  and  C_5
REMARK    4  A    between atoms: C_8  and  C_9
REMARK    5  A    between atoms: C_9  and  N_10
REMARK    6  A    between atoms: N_10  and  C_11
REMARK    7  A    between atoms: C_15  and  C_16
REMARK    8  A    between atoms: C_16  and  C_17
REMARK                            x       y       z     vdW  Elec       q    Type
REMARK                         _______ _______ _______ _____ _____    ______ ____
ROOT
ATOM      1  C   UNL     1       5.949   6.212  17.800  0.00  0.00    +0.000 C 
ATOM      2  C   UNL     1       6.303   5.686  19.191  0.00  0.00    +0.000 C 
ATOM      3  C   UNL     1       7.724   5.187  19.023  0.00  0.00    +0.000 C 
ATOM      4  C   UNL     1       7.764   4.569  17.630  0.00  0.00    +0.000 C 
ATOM      5  C   UNL     1       6.561   5.139  16.849  0.00  0.00    +0.000 C 
ENDROOT
BRANCH   1   6
ATOM      6  N   UNL     1       4.505   6.417  17.628  0.00  0.00    +0.000 NA
ATOM      7  H   UNL     1       4.153   6.936  18.437  0.00  0.00    +0.000 HD
BRANCH   6   8
ATOM      8  C   UNL     1       3.727   5.161  17.560  0.00  0.00    +0.000 C 
BRANCH   8  14
ATOM      9  N   UNL     1       2.412   3.643  19.155  0.00  0.00    +0.000 N 
ATOM     10  C   UNL     1       1.887   3.811  20.418  0.00  0.00    +0.000 A 
ATOM     11  C   UNL     1       1.227   2.767  21.240  0.00  0.00    +0.000 C 
ATOM     12  N   UNL     1       2.085   5.057  20.796  0.00  0.00    +0.000 NA
ATOM     13  N   UNL     1       2.748   5.706  19.797  0.00  0.00    +0.000 NA
ATOM     14  C   UNL     1       2.981   4.855  18.820  0.00  0.00    +0.000 A 
BRANCH   9  16
ATOM     15  C   UNL     1       3.533   1.539  18.490  0.00  0.00    +0.000 C 
ATOM     16  C   UNL     1       2.326   2.451  18.340  0.00  0.00    +0.000 C 
ENDBRANCH   9  16
ENDBRANCH   8  14
ENDBRANCH   6   8
ENDBRANCH   1   6
BRANCH   5  17
ATOM     17  C   UNL     1       6.970   5.711  15.474  0.00  0.00    +0.000 C 
BRANCH  17  18
ATOM     18  C   UNL     1       6.671   4.847  14.260  0.00  0.00    +0.000 A 
ATOM     19  C   UNL     1       5.497   4.085  14.175  0.00  0.00    +0.000 A 
ATOM     20  C   UNL     1       5.190   3.373  13.010  0.00  0.00    +0.000 A 
ATOM     21  C   UNL     1       6.052   3.410  11.914  0.00  0.00    +0.000 A 
ATOM     22  C   UNL     1       7.228   4.148  11.988  0.00  0.00    +0.000 A 
ATOM     23  C   UNL     1       7.535   4.860  13.151  0.00  0.00    +0.000 A 
ENDBRANCH  17  18
ENDBRANCH   5  17
TORSDOF 6
ENDMDL
MODEL 9
REMARK VINA RESULT:      -7.2      4.083      7.373
REMARK  Name = 
REMARK  8 active torsions:
REMARK  status: ('A' for Active; 'I' for Inactive)
REMARK    1  A    between atoms: C_1  and  C_2
REMARK    2  A    between atoms: C_2  and  N_3
REMARK    3  A    between atoms: C_4  and  C_5
REMARK    4  A    between atoms: C_8  and  C_9
REMARK    5  A    between atoms: C_9  and  N_10
REMARK    6  A    between atoms: N_10  and  C_11
REMARK    7  A    between atoms: C_15  and  C_16
REMARK    8  A    between atoms: C_16  and  C_17
REMARK                            x       y       z     vdW  Elec       q    Type
REMARK                         _______ _______ _______ _____ _____    ______ ____
ROOT
ATOM      1  C   UNL     1       2.769   4.265  19.706  0.00  0.00    +0.000 C 
ATOM      2  C   UNL     1       1.300   3.953  19.992  0.00  0.00    +0.000 C 
ATOM      3  C   UNL     1       1.015   2.768  19.092  0.00  0.00    +0.000 C 
ATOM      4  C   UNL     1       1.795   3.046  17.812  0.00  0.00    +0.000 C 
ATOM      5  C   UNL     1       2.874   4.094  18.161  0.00  0.00    +0.000 C 
ENDROOT
BRANCH   1   6
ATOM      6  N   UNL     1       3.166   5.593  20.194  0.00  0.00    +0.000 NA
ATOM      7  H   UNL     1       3.730   5.472  21.039  0.00  0.00    +0.000 HD
BRANCH   6   8
ATOM      8  C   UNL     1       2.025   6.458  20.567  0.00  0.00    +0.000 C 
BRANCH   8  14
ATOM      9  N   UNL     1       1.148   8.794  19.978  0.00  0.00    +0.000 N 
ATOM     10  C   UNL     1       1.353   9.654  18.920  0.00  0.00    +0.000 A 
ATOM     11  C   UNL     1       0.824  11.034  18.795  0.00  0.00    +0.000 C 
ATOM     12  N   UNL     1       2.122   9.056  18.033  0.00  0.00    +0.000 NA
ATOM     13  N   UNL     1       2.435   7.816  18.505  0.00  0.00    +0.000 NA
ATOM     14  C   UNL     1       1.883   7.663  19.691  0.00  0.00    +0.000 A 
BRANCH   9  16
ATOM     15  C   UNL     1       1.062   9.345  22.390  0.00  0.00    +0.000 C 
ATOM     16  C   UNL     1       0.290   9.026  21.119  0.00  0.00    +0.000 C 
ENDBRANCH   9  16
ENDBRANCH   8  14
ENDBRANCH   6   8
ENDBRANCH   1   6
BRANCH   5  17
ATOM     17  C   UNL     1       4.281   3.666  17.693  0.00  0.00    +0.000 C 
BRANCH  17  18
ATOM     18  C   UNL     1       5.324   4.766  17.570  0.00  0.00    +0.000 A 
ATOM     19  C   UNL     1       5.049   5.961  16.891  0.00  0.00    +0.000 A 
ATOM     20  C   UNL     1       5.984   7.002  16.871  0.00  0.00    +0.000 A 
ATOM     21  C   UNL     1       7.207   6.863  17.526  0.00  0.00    +0.000 A 
ATOM     22  C   UNL     1       7.501   5.678  18.190  0.00  0.00    +0.000 A 
ATOM     23  C   UNL     1       6.567   4.638  18.211  0.00  0.00    +0.000 A 
ENDBRANCH  17  18
ENDBRANCH   5  17
TORSDOF 6
ENDMDL
