MODEL 1
REMARK VINA RESULT:      -7.8      0.000      0.000
REMARK  Name = 
REMARK  5 active torsions:
REMARK  status: ('A' for Active; 'I' for Inactive)
REMARK    1  A    between atoms: C_1  and  N_2
REMARK    2  A    between atoms: N_2  and  C_3
REMARK    3  A    between atoms: C_3  and  C_4
REMARK    4  A    between atoms: N_11  and  C_12
REMARK    5  A    between atoms: C_14  and  C_15
REMARK                            x       y       z     vdW  Elec       q    Type
REMARK                         _______ _______ _______ _____ _____    ______ ____
ROOT
ATOM      1  C   UNL     1       2.528   7.215  19.185  0.00  0.00    +0.000 C 
ATOM      2  N   UNL     1       3.375   6.081  18.847  0.00  0.00    +0.000 N 
ATOM      3  C   UNL     1       4.019   6.143  17.624  0.00  0.00    +0.000 C 
ATOM      4  O   UNL     1       3.950   7.164  16.933  0.00  0.00    +0.000 OA
ATOM      5  N   UNL     1       4.729   5.032  17.239  0.00  0.00    +0.000 N 
ATOM      6  H   UNL     1       4.384   4.131  17.564  0.00  0.00    +0.000 HD
ENDROOT
BRANCH   5   7
ATOM      7  C   UNL     1       5.553   4.962  16.126  0.00  0.00    +0.000 A 
ATOM      8  C   UNL     1       5.228   4.388  14.954  0.00  0.00    +0.000 A 
ATOM      9  C   UNL     1       6.158   4.294  13.840  0.00  0.00    +0.000 A 
ATOM     10  C   UNL     1       7.379   4.838  13.979  0.00  0.00    +0.000 A 
ATOM     11  N   UNL     1       7.739   5.471  15.144  0.00  0.00    +0.000 N 
ATOM     12  C   UNL     1       6.919   5.586  16.244  0.00  0.00    +0.000 A 
ATOM     13  O   UNL     1       7.280   6.157  17.272  0.00  0.00    +0.000 OA
ATOM     14  H   UNL     1       8.663   5.873  15.239  0.00  0.00    +0.000 HD
BRANCH   9  15
ATOM     15  C   UNL     1       5.737   3.573  12.589  0.00  0.00    +0.000 C 
ATOM     16  F   UNL     1       6.377   4.004  11.472  0.00  0.00    +0.000 F 
ATOM     17  F   UNL     1       5.975   2.239  12.683  0.00  0.00    +0.000 F 
ATOM     18  F   UNL     1       4.407   3.714  12.355  0.00  0.00    +0.000 F 
ENDBRANCH   9  15
ENDBRANCH   5   7
BRANCH   2  19
ATOM     19  C   UNL     1       3.422   4.967  19.786  0.00  0.00    +0.000 C 
BRANCH  19  20
ATOM     20  C   UNL     1       2.337   3.989  19.515  0.00  0.00    +0.000 A 
ATOM     21  C   UNL     1       1.087   3.767  20.061  0.00  0.00    +0.000 A 
ATOM     22  C   UNL     1       0.572   2.615  19.418  0.00  0.00    +0.000 A 
ATOM     23  C   UNL     1       1.530   2.217  18.515  0.00  0.00    +0.000 A 
ATOM     24  O   UNL     1       2.602   3.049  18.563  0.00  0.00    +0.000 OA
ENDBRANCH  19  20
ENDBRANCH   2  19
TORSDOF 4
ENDMDL
MODEL 2
REMARK VINA RESULT:      -7.6      0.883      1.291
REMARK  Name = 
REMARK  5 active torsions:
REMARK  status: ('A' for Active; 'I' for Inactive)
REMARK    1  A    between atoms: C_1  and  N_2
REMARK    2  A    between atoms: N_2  and  C_3
REMARK    3  A    between atoms: C_3  and  C_4
REMARK    4  A    between atoms: N_11  and  C_12
REMARK    5  A    between atoms: C_14  and  C_15
REMARK                            x       y       z     vdW  Elec       q    Type
REMARK                         _______ _______ _______ _____ _____    ______ ____
ROOT
ATOM      1  C   UNL     1       3.052   6.368  19.404  0.00  0.00    +0.000 C 
ATOM      2  N   UNL     1       3.932   5.336  18.879  0.00  0.00    +0.000 N 
ATOM      3  C   UNL     1       4.400   5.528  17.592  0.00  0.00    +0.000 C 
ATOM      4  O   UNL     1       4.159   6.579  16.991  0.00  0.00    +0.000 OA
ATOM      5  N   UNL     1       5.137   4.508  17.040  0.00  0.00    +0.000 N 
ATOM      6  H   UNL     1       4.911   3.563  17.341  0.00  0.00    +0.000 HD
ENDROOT
BRANCH   5   7
ATOM      7  C   UNL     1       5.808   4.579  15.828  0.00  0.00    +0.000 A 
ATOM      8  C   UNL     1       5.377   4.047  14.670  0.00  0.00    +0.000 A 
ATOM      9  C   UNL     1       6.154   4.103  13.442  0.00  0.00    +0.000 A 
ATOM     10  C   UNL     1       7.334   4.747  13.461  0.00  0.00    +0.000 A 
ATOM     11  N   UNL     1       7.793   5.341  14.612  0.00  0.00    +0.000 N 
ATOM     12  C   UNL     1       7.121   5.316  15.813  0.00  0.00    +0.000 A 
ATOM     13  O   UNL     1       7.568   5.857  16.823  0.00  0.00    +0.000 OA
ATOM     14  H   UNL     1       8.685   5.819  14.615  0.00  0.00    +0.000 HD
BRANCH   9  15
ATOM     15  C   UNL     1       5.631   3.421  12.209  0.00  0.00    +0.000 C 
ATOM     16  F   UNL     1       4.276   3.357  12.157  0.00  0.00    +0.000 F 
ATOM     17  F   UNL     1       6.032   4.063  11.080  0.00  0.00    +0.000 F 
ATOM     18  F   UNL     1       6.086   2.146  12.112  0.00  0.00    +0.000 F 
ENDBRANCH   9  15
ENDBRANCH   5   7
BRANCH   2  19
ATOM     19  C   UNL     1       4.192   4.174  19.722  0.00  0.00    +0.000 C 
BRANCH  19  20
ATOM     20  C   UNL     1       2.930   3.617  20.273  0.00  0.00    +0.000 A 
ATOM     21  C   UNL     1       2.453   3.405  21.552  0.00  0.00    +0.000 A 
ATOM     22  C   UNL     1       1.204   2.753  21.407  0.00  0.00    +0.000 A 
ATOM     23  C   UNL     1       0.993   2.622  20.054  0.00  0.00    +0.000 A 
ATOM     24  O   UNL     1       2.033   3.149  19.359  0.00  0.00    +0.000 OA
ENDBRANCH  19  20
ENDBRANCH   2  19
TORSDOF 4
ENDMDL
MODEL 3
REMARK VINA RESULT:      -7.3      1.540      1.894
REMARK  Name = 
REMARK  5 active torsions:
REMARK  status: ('A' for Active; 'I' for Inactive)
REMARK    1  A    between atoms: C_1  and  N_2
REMARK    2  A    between atoms: N_2  and  C_3
REMARK    3  A    between atoms: C_3  and  C_4
REMARK    4  A    between atoms: N_11  and  C_12
REMARK    5  A    between atoms: C_14  and  C_15
REMARK                            x       y       z     vdW  Elec       q    Type
REMARK                         _______ _______ _______ _____ _____    ______ ____
ROOT
ATOM      1  C   UNL     1       1.714   7.293  20.194  0.00  0.00    +0.000 C 
ATOM      2  N   UNL     1       2.531   6.101  20.015  0.00  0.00    +0.000 N 
ATOM      3  C   UNL     1       3.474   6.154  19.005  0.00  0.00    +0.000 C 
ATOM      4  O   UNL     1       3.666   7.203  18.384  0.00  0.00    +0.000 OA
ATOM      5  N   UNL     1       4.173   4.999  18.748  0.00  0.00    +0.000 N 
ATOM      6  H   UNL     1       3.688   4.121  18.917  0.00  0.00    +0.000 HD
ENDROOT
BRANCH   5   7
ATOM      7  C   UNL     1       5.251   4.900  17.881  0.00  0.00    +0.000 A 
ATOM      8  C   UNL     1       5.164   4.720  16.551  0.00  0.00    +0.000 A 
ATOM      9  C   UNL     1       6.334   4.565  15.701  0.00  0.00    +0.000 A 
ATOM     10  C   UNL     1       7.550   4.642  16.266  0.00  0.00    +0.000 A 
ATOM     11  N   UNL     1       7.686   4.866  17.615  0.00  0.00    +0.000 N 
ATOM     12  C   UNL     1       6.628   5.008  18.484  0.00  0.00    +0.000 A 
ATOM     13  O   UNL     1       6.791   5.204  19.687  0.00  0.00    +0.000 OA
ATOM     14  H   UNL     1       8.608   4.918  18.031  0.00  0.00    +0.000 HD
BRANCH   9  15
ATOM     15  C   UNL     1       6.146   4.298  14.233  0.00  0.00    +0.000 C 
ATOM     16  F   UNL     1       4.900   4.589  13.783  0.00  0.00    +0.000 F 
ATOM     17  F   UNL     1       7.011   5.028  13.482  0.00  0.00    +0.000 F 
ATOM     18  F   UNL     1       6.376   2.994  13.929  0.00  0.00    +0.000 F 
ENDBRANCH   9  15
ENDBRANCH   5   7
BRANCH   2  19
ATOM     19  C   UNL     1       2.246   4.951  20.864  0.00  0.00    +0.000 C 
BRANCH  19  20
ATOM     20  C   UNL     1       1.779   3.792  20.061  0.00  0.00    +0.000 A 
ATOM     21  C   UNL     1       0.568   3.443  19.496  0.00  0.00    +0.000 A 
ATOM     22  C   UNL     1       0.750   2.159  18.927  0.00  0.00    +0.000 A 
ATOM     23  C   UNL     1       2.060   1.814  19.169  0.00  0.00    +0.000 A 
ATOM     24  O   UNL     1       2.692   2.802  19.851  0.00  0.00    +0.000 OA
ENDBRANCH  19  20
ENDBRANCH   2  19
TORSDOF 4
ENDMDL
MODEL 4
REMARK VINA RESULT:      -7.3      0.846      1.031
REMARK  Name = 
REMARK  5 active torsions:
REMARK  status: ('A' for Active; 'I' for Inactive)
REMARK    1  A    between atoms: C_1  and  N_2
REMARK    2  A    between atoms: N_2  and  C_3
REMARK    3  A    between atoms: C_3  and  C_4
REMARK    4  A    between atoms: N_11  and  C_12
REMARK    5  A    between atoms: C_14  and  C_15
REMARK                            x       y       z     vdW  Elec       q    Type
REMARK                         _______ _______ _______ _____ _____    ______ ____
ROOT
ATOM      1  C   UNL     1       2.974   6.552  19.219  0.00  0.00    +0.000 C 
ATOM      2  N   UNL     1       3.875   5.513  18.744  0.00  0.00    +0.000 N 
ATOM      3  C   UNL     1       4.379   5.679  17.467  0.00  0.00    +0.000 C 
ATOM      4  O   UNL     1       4.151   6.714  16.835  0.00  0.00    +0.000 OA
ATOM      5  N   UNL     1       5.138   4.651  16.961  0.00  0.00    +0.000 N 
ATOM      6  H   UNL     1       4.908   3.711  17.276  0.00  0.00    +0.000 HD
ENDROOT
BRANCH   5   7
ATOM      7  C   UNL     1       5.843   4.698  15.767  0.00  0.00    +0.000 A 
ATOM      8  C   UNL     1       5.485   4.077  14.629  0.00  0.00    +0.000 A 
ATOM      9  C   UNL     1       6.298   4.116  13.424  0.00  0.00    +0.000 A 
ATOM     10  C   UNL     1       7.434   4.833  13.441  0.00  0.00    +0.000 A 
ATOM     11  N   UNL     1       7.817   5.517  14.570  0.00  0.00    +0.000 N 
ATOM     12  C   UNL     1       7.108   5.516  15.750  0.00  0.00    +0.000 A 
ATOM     13  O   UNL     1       7.486   6.138  16.741  0.00  0.00    +0.000 OA
ATOM     14  H   UNL     1       8.677   6.051  14.573  0.00  0.00    +0.000 HD
BRANCH   9  15
ATOM     15  C   UNL     1       5.860   3.335  12.215  0.00  0.00    +0.000 C 
ATOM     16  F   UNL     1       6.689   3.472  11.150  0.00  0.00    +0.000 F 
ATOM     17  F   UNL     1       5.789   2.005  12.484  0.00  0.00    +0.000 F 
ATOM     18  F   UNL     1       4.623   3.712  11.799  0.00  0.00    +0.000 F 
ENDBRANCH   9  15
ENDBRANCH   5   7
BRANCH   2  19
ATOM     19  C   UNL     1       4.116   4.373  19.620  0.00  0.00    +0.000 C 
BRANCH  19  20
ATOM     20  C   UNL     1       2.895   3.541  19.768  0.00  0.00    +0.000 A 
ATOM     21  C   UNL     1       2.228   2.660  18.939  0.00  0.00    +0.000 A 
ATOM     22  C   UNL     1       1.067   2.255  19.641  0.00  0.00    +0.000 A 
ATOM     23  C   UNL     1       1.105   2.903  20.854  0.00  0.00    +0.000 A 
ATOM     24  O   UNL     1       2.214   3.680  20.942  0.00  0.00    +0.000 OA
ENDBRANCH  19  20
ENDBRANCH   2  19
TORSDOF 4
ENDMDL
MODEL 5
REMARK VINA RESULT:      -7.1      4.287      7.029
REMARK  Name = 
REMARK  5 active torsions:
REMARK  status: ('A' for Active; 'I' for Inactive)
REMARK    1  A    between atoms: C_1  and  N_2
REMARK    2  A    between atoms: N_2  and  C_3
REMARK    3  A    between atoms: C_3  and  C_4
REMARK    4  A    between atoms: N_11  and  C_12
REMARK    5  A    between atoms: C_14  and  C_15
REMARK                            x       y       z     vdW  Elec       q    Type
REMARK                         _______ _______ _______ _____ _____    ______ ____
ROOT
ATOM      1  C   UNL     1       6.613   7.291  17.190  0.00  0.00    +0.000 C 
ATOM      2  N   UNL     1       6.317   5.867  17.228  0.00  0.00    +0.000 N 
ATOM      3  C   UNL     1       5.150   5.503  17.874  0.00  0.00    +0.000 C 
ATOM      4  O   UNL     1       4.368   6.367  18.285  0.00  0.00    +0.000 OA
ATOM      5  N   UNL     1       4.914   4.158  18.020  0.00  0.00    +0.000 N 
ATOM      6  H   UNL     1       5.729   3.556  18.110  0.00  0.00    +0.000 HD
ENDROOT
BRANCH   5   7
ATOM      7  C   UNL     1       3.737   3.606  18.505  0.00  0.00    +0.000 A 
ATOM      8  C   UNL     1       3.408   3.499  19.805  0.00  0.00    +0.000 A 
ATOM      9  C   UNL     1       2.183   2.856  20.254  0.00  0.00    +0.000 A 
ATOM     10  C   UNL     1       1.332   2.383  19.328  0.00  0.00    +0.000 A 
ATOM     11  N   UNL     1       1.609   2.508  17.988  0.00  0.00    +0.000 N 
ATOM     12  C   UNL     1       2.752   3.090  17.488  0.00  0.00    +0.000 A 
ATOM     13  O   UNL     1       2.966   3.180  16.281  0.00  0.00    +0.000 OA
ATOM     14  H   UNL     1       0.962   2.145  17.300  0.00  0.00    +0.000 HD
BRANCH   9  15
ATOM     15  C   UNL     1       1.925   2.716  21.729  0.00  0.00    +0.000 C 
ATOM     16  F   UNL     1       0.621   2.496  22.034  0.00  0.00    +0.000 F 
ATOM     17  F   UNL     1       2.627   1.680  22.259  0.00  0.00    +0.000 F 
ATOM     18  F   UNL     1       2.303   3.828  22.410  0.00  0.00    +0.000 F 
ENDBRANCH   9  15
ENDBRANCH   5   7
BRANCH   2  19
ATOM     19  C   UNL     1       7.293   4.956  16.644  0.00  0.00    +0.000 C 
BRANCH  19  20
ATOM     20  C   UNL     1       6.996   4.696  15.212  0.00  0.00    +0.000 A 
ATOM     21  C   UNL     1       6.166   3.813  14.549  0.00  0.00    +0.000 A 
ATOM     22  C   UNL     1       6.405   4.003  13.166  0.00  0.00    +0.000 A 
ATOM     23  C   UNL     1       7.353   4.996  13.073  0.00  0.00    +0.000 A 
ATOM     24  O   UNL     1       7.712   5.425  14.310  0.00  0.00    +0.000 OA
ENDBRANCH  19  20
ENDBRANCH   2  19
TORSDOF 4
ENDMDL
MODEL 6
REMARK VINA RESULT:      -7.1      5.303      7.514
REMARK  Name = 
REMARK  5 active torsions:
REMARK  status: ('A' for Active; 'I' for Inactive)
REMARK    1  A    between atoms: C_1  and  N_2
REMARK    2  A    between atoms: N_2  and  C_3
REMARK    3  A    between atoms: C_3  and  C_4
REMARK    4  A    between atoms: N_11  and  C_12
REMARK    5  A    between atoms: C_14  and  C_15
REMARK                            x       y       z     vdW  Elec       q    Type
REMARK                         _______ _______ _______ _____ _____    ______ ____
ROOT
ATOM      1  C   UNL     1       3.052   2.554  17.806  0.00  0.00    +0.000 C 
ATOM      2  N   UNL     1       3.494   3.695  18.594  0.00  0.00    +0.000 N 
ATOM      3  C   UNL     1       2.722   4.839  18.500  0.00  0.00    +0.000 C 
ATOM      4  O   UNL     1       1.661   4.826  17.868  0.00  0.00    +0.000 OA
ATOM      5  N   UNL     1       3.189   5.958  19.145  0.00  0.00    +0.000 N 
ATOM      6  H   UNL     1       4.199   6.057  19.221  0.00  0.00    +0.000 HD
ENDROOT
BRANCH   5   7
ATOM      7  C   UNL     1       2.485   7.145  19.286  0.00  0.00    +0.000 A 
ATOM      8  C   UNL     1       1.761   7.494  20.366  0.00  0.00    +0.000 A 
ATOM      9  C   UNL     1       0.996   8.729  20.431  0.00  0.00    +0.000 A 
ATOM     10  C   UNL     1       1.046   9.570  19.384  0.00  0.00    +0.000 A 
ATOM     11  N   UNL     1       1.805   9.272  18.279  0.00  0.00    +0.000 N 
ATOM     12  C   UNL     1       2.543   8.118  18.138  0.00  0.00    +0.000 A 
ATOM     13  O   UNL     1       3.208   7.886  17.130  0.00  0.00    +0.000 OA
ATOM     14  H   UNL     1       1.832   9.911  17.494  0.00  0.00    +0.000 HD
BRANCH   9  15
ATOM     15  C   UNL     1       0.157   9.010  21.648  0.00  0.00    +0.000 C 
ATOM     16  F   UNL     1       0.866   9.024  22.805  0.00  0.00    +0.000 F 
ATOM     17  F   UNL     1      -0.460  10.217  21.556  0.00  0.00    +0.000 F 
ATOM     18  F   UNL     1      -0.825   8.085  21.802  0.00  0.00    +0.000 F 
ENDBRANCH   9  15
ENDBRANCH   5   7
BRANCH   2  19
ATOM     19  C   UNL     1       4.730   3.555  19.354  0.00  0.00    +0.000 C 
BRANCH  19  20
ATOM     20  C   UNL     1       5.807   4.411  18.792  0.00  0.00    +0.000 A 
ATOM     21  C   UNL     1       6.377   4.537  17.540  0.00  0.00    +0.000 A 
ATOM     22  C   UNL     1       7.430   5.475  17.676  0.00  0.00    +0.000 A 
ATOM     23  C   UNL     1       7.426   5.870  18.994  0.00  0.00    +0.000 A 
ATOM     24  O   UNL     1       6.441   5.233  19.676  0.00  0.00    +0.000 OA
ENDBRANCH  19  20
ENDBRANCH   2  19
TORSDOF 4
ENDMDL
MODEL 7
REMARK VINA RESULT:      -7.0      2.092      3.730
REMARK  Name = 
REMARK  5 active torsions:
REMARK  status: ('A' for Active; 'I' for Inactive)
REMARK    1  A    between atoms: C_1  and  N_2
REMARK    2  A    between atoms: N_2  and  C_3
REMARK    3  A    between atoms: C_3  and  C_4
REMARK    4  A    between atoms: N_11  and  C_12
REMARK    5  A    between atoms: C_14  and  C_15
REMARK                            x       y       z     vdW  Elec       q    Type
REMARK                         _______ _______ _______ _____ _____    ______ ____
ROOT
ATOM      1  C   UNL     1       1.008   4.724  20.197  0.00  0.00    +0.000 C 
ATOM      2  N   UNL     1       2.184   5.542  19.938  0.00  0.00    +0.000 N 
ATOM      3  C   UNL     1       3.185   4.951  19.188  0.00  0.00    +0.000 C 
ATOM      4  O   UNL     1       3.014   3.836  18.686  0.00  0.00    +0.000 OA
ATOM      5  N   UNL     1       4.348   5.666  19.032  0.00  0.00    +0.000 N 
ATOM      6  H   UNL     1       4.610   6.288  19.794  0.00  0.00    +0.000 HD
ENDROOT
BRANCH   5   7
ATOM      7  C   UNL     1       5.396   5.305  18.200  0.00  0.00    +0.000 A 
ATOM      8  C   UNL     1       5.309   5.142  16.867  0.00  0.00    +0.000 A 
ATOM      9  C   UNL     1       6.433   4.704  16.054  0.00  0.00    +0.000 A 
ATOM     10  C   UNL     1       7.614   4.491  16.657  0.00  0.00    +0.000 A 
ATOM     11  N   UNL     1       7.759   4.686  18.009  0.00  0.00    +0.000 N 
ATOM     12  C   UNL     1       6.739   5.084  18.845  0.00  0.00    +0.000 A 
ATOM     13  O   UNL     1       6.908   5.244  20.052  0.00  0.00    +0.000 OA
ATOM     14  H   UNL     1       8.653   4.519  18.454  0.00  0.00    +0.000 HD
BRANCH   9  15
ATOM     15  C   UNL     1       6.230   4.479  14.581  0.00  0.00    +0.000 C 
ATOM     16  F   UNL     1       5.025   4.907  14.126  0.00  0.00    +0.000 F 
ATOM     17  F   UNL     1       7.173   5.125  13.847  0.00  0.00    +0.000 F 
ATOM     18  F   UNL     1       6.324   3.163  14.259  0.00  0.00    +0.000 F 
ENDBRANCH   9  15
ENDBRANCH   5   7
BRANCH   2  19
ATOM     19  C   UNL     1       2.229   6.871  20.534  0.00  0.00    +0.000 C 
BRANCH  19  20
ATOM     20  C   UNL     1       1.849   7.916  19.548  0.00  0.00    +0.000 A 
ATOM     21  C   UNL     1       2.166   8.144  18.223  0.00  0.00    +0.000 A 
ATOM     22  C   UNL     1       1.548   9.370  17.872  0.00  0.00    +0.000 A 
ATOM     23  C   UNL     1       0.886   9.802  18.998  0.00  0.00    +0.000 A 
ATOM     24  O   UNL     1       1.059   8.923  20.017  0.00  0.00    +0.000 OA
ENDBRANCH  19  20
ENDBRANCH   2  19
TORSDOF 4
ENDMDL
MODEL 8
REMARK VINA RESULT:      -6.9      1.496      2.597
REMARK  Name = 
REMARK  5 active torsions:
REMARK  status: ('A' for Active; 'I' for Inactive)
REMARK    1  A    between atoms: C_1  and  N_2
REMARK    2  A    between atoms: N_2  and  C_3
REMARK    3  A    between atoms: C_3  and  C_4
REMARK    4  A    between atoms: N_11  and  C_12
REMARK    5  A    between atoms: C_14  and  C_15
REMARK                            x       y       z     vdW  Elec       q    Type
REMARK                         _______ _______ _______ _____ _____    ______ ____
ROOT
ATOM      1  C   UNL     1       2.499   1.795  19.035  0.00  0.00    +0.000 C 
ATOM      2  N   UNL     1       2.622   2.946  18.153  0.00  0.00    +0.000 N 
ATOM      3  C   UNL     1       3.811   3.057  17.455  0.00  0.00    +0.000 C 
ATOM      4  O   UNL     1       4.654   2.156  17.511  0.00  0.00    +0.000 OA
ATOM      5  N   UNL     1       3.989   4.195  16.708  0.00  0.00    +0.000 N 
ATOM      6  H   UNL     1       3.544   5.044  17.050  0.00  0.00    +0.000 HD
ENDROOT
BRANCH   5   7
ATOM      7  C   UNL     1       5.043   4.415  15.833  0.00  0.00    +0.000 A 
ATOM      8  C   UNL     1       5.111   3.956  14.569  0.00  0.00    +0.000 A 
ATOM      9  C   UNL     1       6.271   4.170  13.718  0.00  0.00    +0.000 A 
ATOM     10  C   UNL     1       7.298   4.886  14.204  0.00  0.00    +0.000 A 
ATOM     11  N   UNL     1       7.253   5.409  15.474  0.00  0.00    +0.000 N 
ATOM     12  C   UNL     1       6.198   5.237  16.342  0.00  0.00    +0.000 A 
ATOM     13  O   UNL     1       6.197   5.717  17.473  0.00  0.00    +0.000 OA
ATOM     14  H   UNL     1       8.034   5.944  15.831  0.00  0.00    +0.000 HD
BRANCH   9  15
ATOM     15  C   UNL     1       6.294   3.563  12.342  0.00  0.00    +0.000 C 
ATOM     16  F   UNL     1       7.424   3.840  11.645  0.00  0.00    +0.000 F 
ATOM     17  F   UNL     1       6.195   2.209  12.397  0.00  0.00    +0.000 F 
ATOM     18  F   UNL     1       5.253   3.997  11.587  0.00  0.00    +0.000 F 
ENDBRANCH   9  15
ENDBRANCH   5   7
BRANCH   2  19
ATOM     19  C   UNL     1       1.521   3.901  18.127  0.00  0.00    +0.000 C 
BRANCH  19  20
ATOM     20  C   UNL     1       1.744   5.004  19.097  0.00  0.00    +0.000 A 
ATOM     21  C   UNL     1       1.423   5.192  20.427  0.00  0.00    +0.000 A 
ATOM     22  C   UNL     1       1.837   6.506  20.754  0.00  0.00    +0.000 A 
ATOM     23  C   UNL     1       2.393   7.030  19.611  0.00  0.00    +0.000 A 
ATOM     24  O   UNL     1       2.346   6.123  18.602  0.00  0.00    +0.000 OA
ENDBRANCH  19  20
ENDBRANCH   2  19
TORSDOF 4
ENDMDL
MODEL 9
REMARK VINA RESULT:      -6.9      3.922      7.166
REMARK  Name = 
REMARK  5 active torsions:
REMARK  status: ('A' for Active; 'I' for Inactive)
REMARK    1  A    between atoms: C_1  and  N_2
REMARK    2  A    between atoms: N_2  and  C_3
REMARK    3  A    between atoms: C_3  and  C_4
REMARK    4  A    between atoms: N_11  and  C_12
REMARK    5  A    between atoms: C_14  and  C_15
REMARK                            x       y       z     vdW  Elec       q    Type
REMARK                         _______ _______ _______ _____ _____    ______ ____
ROOT
ATOM      1  C   UNL     1       7.647   4.502  16.488  0.00  0.00    +0.000 C 
ATOM      2  N   UNL     1       6.279   4.999  16.525  0.00  0.00    +0.000 N 
ATOM      3  C   UNL     1       5.568   4.742  17.683  0.00  0.00    +0.000 C 
ATOM      4  O   UNL     1       6.123   4.221  18.655  0.00  0.00    +0.000 OA
ATOM      5  N   UNL     1       4.242   5.103  17.690  0.00  0.00    +0.000 N 
ATOM      6  H   UNL     1       3.752   5.068  16.798  0.00  0.00    +0.000 HD
ENDROOT
BRANCH   5   7
ATOM      7  C   UNL     1       3.413   5.061  18.801  0.00  0.00    +0.000 A 
ATOM      8  C   UNL     1       3.108   3.953  19.501  0.00  0.00    +0.000 A 
ATOM      9  C   UNL     1       2.185   3.962  20.624  0.00  0.00    +0.000 A 
ATOM     10  C   UNL     1       1.644   5.134  20.998  0.00  0.00    +0.000 A 
ATOM     11  N   UNL     1       1.959   6.297  20.337  0.00  0.00    +0.000 N 
ATOM     12  C   UNL     1       2.812   6.364  19.258  0.00  0.00    +0.000 A 
ATOM     13  O   UNL     1       3.066   7.425  18.690  0.00  0.00    +0.000 OA
ATOM     14  H   UNL     1       1.543   7.174  20.624  0.00  0.00    +0.000 HD
BRANCH   9  15
ATOM     15  C   UNL     1       1.845   2.667  21.308  0.00  0.00    +0.000 C 
ATOM     16  F   UNL     1       2.880   2.133  22.005  0.00  0.00    +0.000 F 
ATOM     17  F   UNL     1       0.824   2.825  22.190  0.00  0.00    +0.000 F 
ATOM     18  F   UNL     1       1.445   1.722  20.418  0.00  0.00    +0.000 F 
ENDBRANCH   9  15
ENDBRANCH   5   7
BRANCH   2  19
ATOM     19  C   UNL     1       5.766   5.660  15.332  0.00  0.00    +0.000 C 
BRANCH  19  20
ATOM     20  C   UNL     1       6.119   4.903  14.104  0.00  0.00    +0.000 A 
ATOM     21  C   UNL     1       5.610   3.772  13.495  0.00  0.00    +0.000 A 
ATOM     22  C   UNL     1       6.452   3.504  12.387  0.00  0.00    +0.000 A 
ATOM     23  C   UNL     1       7.409   4.492  12.384  0.00  0.00    +0.000 A 
ATOM     24  O   UNL     1       7.211   5.348  13.419  0.00  0.00    +0.000 OA
ENDBRANCH  19  20
ENDBRANCH   2  19
TORSDOF 4
ENDMDL
