MODEL 1
REMARK VINA RESULT:      -7.7      0.000      0.000
REMARK  Name = 
REMARK  6 active torsions:
REMARK  status: ('A' for Active; 'I' for Inactive)
REMARK    1  A    between atoms: C_2  and  C_3
REMARK    2  A    between atoms: C_3  and  N_4
REMARK    3  A    between atoms: N_7  and  C_8
REMARK    4  A    between atoms: C_8  and  C_9
REMARK    5  A    between atoms: C_9  and  C_11
REMARK    6  A    between atoms: C_15  and  N_16
REMARK                            x       y       z     vdW  Elec       q    Type
REMARK                         _______ _______ _______ _____ _____    ______ ____
ROOT
ATOM      1  N   UNL     1       6.848   5.599  17.660  0.00  0.00    +0.000 N 
ATOM      2  C   UNL     1       5.891   4.939  18.431  0.00  0.00    +0.000 A 
ATOM      3  N   UNL     1       5.688   5.037  19.699  0.00  0.00    +0.000 NA
ATOM      4  N   UNL     1       5.133   4.144  17.569  0.00  0.00    +0.000 N 
ATOM      5  C   UNL     1       5.655   4.249  16.281  0.00  0.00    +0.000 A 
ATOM      6  C   UNL     1       5.300   3.634  15.099  0.00  0.00    +0.000 A 
ATOM      7  C   UNL     1       6.022   3.961  13.947  0.00  0.00    +0.000 A 
ATOM      8  C   UNL     1       7.084   4.881  13.998  0.00  0.00    +0.000 A 
ATOM      9  C   UNL     1       7.446   5.494  15.201  0.00  0.00    +0.000 A 
ATOM     10  C   UNL     1       6.725   5.174  16.334  0.00  0.00    +0.000 A 
ATOM     11  H   UNL     1       6.358   5.696  20.098  0.00  0.00    +0.000 HD
ENDROOT
BRANCH   1  12
ATOM     12  C   UNL     1       7.912   6.457  18.124  0.00  0.00    +0.000 C 
BRANCH  12  14
ATOM     13  C   UNL     1       8.413   8.928  18.048  0.00  0.00    +0.000 C 
ATOM     14  C   UNL     1       7.607   7.885  17.778  0.00  0.00    +0.000 C 
ENDBRANCH  12  14
ENDBRANCH   1  12
BRANCH   4  15
ATOM     15  C   UNL     1       4.148   3.164  17.984  0.00  0.00    +0.000 C 
BRANCH  15  16
ATOM     16  C   UNL     1       2.721   3.691  17.932  0.00  0.00    +0.000 C 
ATOM     17  O   UNL     1       1.857   3.151  17.238  0.00  0.00    +0.000 OA
BRANCH  16  18
ATOM     18  C   UNL     1       2.317   4.857  18.776  0.00  0.00    +0.000 A 
ATOM     19  C   UNL     1       1.981   4.716  20.125  0.00  0.00    +0.000 A 
ATOM     20  C   UNL     1       1.680   5.830  20.910  0.00  0.00    +0.000 A 
ATOM     21  C   UNL     1       1.696   7.105  20.351  0.00  0.00    +0.000 A 
ATOM     22  C   UNL     1       2.003   7.253  18.992  0.00  0.00    +0.000 A 
ATOM     23  C   UNL     1       2.315   6.137  18.200  0.00  0.00    +0.000 A 
BRANCH  22  24
ATOM     24  N   UNL     1       2.008   8.597  18.403  0.00  0.00    +0.000 N 
ATOM     25  O   UNL     1       2.545   8.738  17.294  0.00  0.00    +0.000 OA
ATOM     26  O   UNL     1       1.483   9.511  19.049  0.00  0.00    +0.000 OA
ENDBRANCH  22  24
ENDBRANCH  16  18
ENDBRANCH  15  16
ENDBRANCH   4  15
TORSDOF 6
ENDMDL
MODEL 2
REMARK VINA RESULT:      -7.6      2.682      5.064
REMARK  Name = 
REMARK  6 active torsions:
REMARK  status: ('A' for Active; 'I' for Inactive)
REMARK    1  A    between atoms: C_2  and  C_3
REMARK    2  A    between atoms: C_3  and  N_4
REMARK    3  A    between atoms: N_7  and  C_8
REMARK    4  A    between atoms: C_8  and  C_9
REMARK    5  A    between atoms: C_9  and  C_11
REMARK    6  A    between atoms: C_15  and  N_16
REMARK                            x       y       z     vdW  Elec       q    Type
REMARK                         _______ _______ _______ _____ _____    ______ ____
ROOT
ATOM      1  N   UNL     1       4.294   4.663  17.399  0.00  0.00    +0.000 N 
ATOM      2  C   UNL     1       4.197   5.975  17.860  0.00  0.00    +0.000 A 
ATOM      3  N   UNL     1       4.987   6.963  17.613  0.00  0.00    +0.000 NA
ATOM      4  N   UNL     1       3.041   6.064  18.639  0.00  0.00    +0.000 N 
ATOM      5  C   UNL     1       2.458   4.801  18.726  0.00  0.00    +0.000 A 
ATOM      6  C   UNL     1       1.346   4.354  19.407  0.00  0.00    +0.000 A 
ATOM      7  C   UNL     1       0.999   3.005  19.285  0.00  0.00    +0.000 A 
ATOM      8  C   UNL     1       1.771   2.131  18.500  0.00  0.00    +0.000 A 
ATOM      9  C   UNL     1       2.903   2.587  17.818  0.00  0.00    +0.000 A 
ATOM     10  C   UNL     1       3.236   3.921  17.936  0.00  0.00    +0.000 A 
ATOM     11  H   UNL     1       5.742   6.647  17.003  0.00  0.00    +0.000 HD
ENDROOT
BRANCH   1  12
ATOM     12  C   UNL     1       5.368   4.075  16.635  0.00  0.00    +0.000 C 
BRANCH  12  14
ATOM     13  C   UNL     1       6.142   4.288  14.244  0.00  0.00    +0.000 C 
ATOM     14  C   UNL     1       5.174   4.361  15.174  0.00  0.00    +0.000 C 
ENDBRANCH  12  14
ENDBRANCH   1  12
BRANCH   4  15
ATOM     15  C   UNL     1       2.663   7.206  19.447  0.00  0.00    +0.000 C 
BRANCH  15  16
ATOM     16  C   UNL     1       1.999   8.315  18.641  0.00  0.00    +0.000 C 
ATOM     17  O   UNL     1       2.192   8.437  17.429  0.00  0.00    +0.000 OA
BRANCH  16  18
ATOM     18  C   UNL     1       1.044   9.258  19.299  0.00  0.00    +0.000 A 
ATOM     19  C   UNL     1       0.237  10.130  18.564  0.00  0.00    +0.000 A 
ATOM     20  C   UNL     1      -0.701  10.947  19.197  0.00  0.00    +0.000 A 
ATOM     21  C   UNL     1      -0.834  10.915  20.583  0.00  0.00    +0.000 A 
ATOM     22  C   UNL     1      -0.008  10.064  21.330  0.00  0.00    +0.000 A 
ATOM     23  C   UNL     1       0.930   9.234  20.697  0.00  0.00    +0.000 A 
BRANCH  22  24
ATOM     24  N   UNL     1      -0.143  10.040  22.792  0.00  0.00    +0.000 N 
ATOM     25  O   UNL     1      -1.245  10.338  23.274  0.00  0.00    +0.000 OA
ATOM     26  O   UNL     1       0.853   9.730  23.457  0.00  0.00    +0.000 OA
ENDBRANCH  22  24
ENDBRANCH  16  18
ENDBRANCH  15  16
ENDBRANCH   4  15
TORSDOF 6
ENDMDL
MODEL 3
REMARK VINA RESULT:      -7.3      2.702      4.661
REMARK  Name = 
REMARK  6 active torsions:
REMARK  status: ('A' for Active; 'I' for Inactive)
REMARK    1  A    between atoms: C_2  and  C_3
REMARK    2  A    between atoms: C_3  and  N_4
REMARK    3  A    between atoms: N_7  and  C_8
REMARK    4  A    between atoms: C_8  and  C_9
REMARK    5  A    between atoms: C_9  and  C_11
REMARK    6  A    between atoms: C_15  and  N_16
REMARK                            x       y       z     vdW  Elec       q    Type
REMARK                         _______ _______ _______ _____ _____    ______ ____
ROOT
ATOM      1  N   UNL     1       5.061   4.894  17.579  0.00  0.00    +0.000 N 
ATOM      2  C   UNL     1       4.650   6.226  17.573  0.00  0.00    +0.000 A 
ATOM      3  N   UNL     1       5.378   7.281  17.441  0.00  0.00    +0.000 NA
ATOM      4  N   UNL     1       3.260   6.238  17.706  0.00  0.00    +0.000 N 
ATOM      5  C   UNL     1       2.811   4.928  17.867  0.00  0.00    +0.000 A 
ATOM      6  C   UNL     1       1.549   4.417  18.082  0.00  0.00    +0.000 A 
ATOM      7  C   UNL     1       1.414   3.029  18.192  0.00  0.00    +0.000 A 
ATOM      8  C   UNL     1       2.535   2.186  18.098  0.00  0.00    +0.000 A 
ATOM      9  C   UNL     1       3.814   2.711  17.890  0.00  0.00    +0.000 A 
ATOM     10  C   UNL     1       3.940   4.081  17.774  0.00  0.00    +0.000 A 
ATOM     11  H   UNL     1       6.356   7.005  17.338  0.00  0.00    +0.000 HD
ENDROOT
BRANCH   1  12
ATOM     12  C   UNL     1       6.414   4.391  17.559  0.00  0.00    +0.000 C 
BRANCH  12  14
ATOM     13  C   UNL     1       6.275   4.180  15.049  0.00  0.00    +0.000 C 
ATOM     14  C   UNL     1       6.968   4.465  16.165  0.00  0.00    +0.000 C 
ENDBRANCH  12  14
ENDBRANCH   1  12
BRANCH   4  15
ATOM     15  C   UNL     1       2.450   7.422  17.920  0.00  0.00    +0.000 C 
BRANCH  15  16
ATOM     16  C   UNL     1       2.101   7.652  19.384  0.00  0.00    +0.000 C 
ATOM     17  O   UNL     1       2.515   6.903  20.272  0.00  0.00    +0.000 OA
BRANCH  16  18
ATOM     18  C   UNL     1       1.283   8.836  19.787  0.00  0.00    +0.000 A 
ATOM     19  C   UNL     1       0.777   9.741  18.851  0.00  0.00    +0.000 A 
ATOM     20  C   UNL     1      -0.047  10.797  19.245  0.00  0.00    +0.000 A 
ATOM     21  C   UNL     1      -0.365  10.972  20.589  0.00  0.00    +0.000 A 
ATOM     22  C   UNL     1       0.162  10.085  21.538  0.00  0.00    +0.000 A 
ATOM     23  C   UNL     1       0.984   9.018  21.145  0.00  0.00    +0.000 A 
BRANCH  22  24
ATOM     24  N   UNL     1      -0.166  10.279  22.955  0.00  0.00    +0.000 N 
ATOM     25  O   UNL     1      -1.017  11.134  23.239  0.00  0.00    +0.000 OA
ATOM     26  O   UNL     1       0.431   9.581  23.785  0.00  0.00    +0.000 OA
ENDBRANCH  22  24
ENDBRANCH  16  18
ENDBRANCH  15  16
ENDBRANCH   4  15
TORSDOF 6
ENDMDL
MODEL 4
REMARK VINA RESULT:      -7.3      2.556      4.729
REMARK  Name = 
REMARK  6 active torsions:
REMARK  status: ('A' for Active; 'I' for Inactive)
REMARK    1  A    between atoms: C_2  and  C_3
REMARK    2  A    between atoms: C_3  and  N_4
REMARK    3  A    between atoms: N_7  and  C_8
REMARK    4  A    between atoms: C_8  and  C_9
REMARK    5  A    between atoms: C_9  and  C_11
REMARK    6  A    between atoms: C_15  and  N_16
REMARK                            x       y       z     vdW  Elec       q    Type
REMARK                         _______ _______ _______ _____ _____    ______ ____
ROOT
ATOM      1  N   UNL     1       4.565   4.757  17.067  0.00  0.00    +0.000 N 
ATOM      2  C   UNL     1       4.431   6.043  17.589  0.00  0.00    +0.000 A 
ATOM      3  N   UNL     1       5.208   7.056  17.413  0.00  0.00    +0.000 NA
ATOM      4  N   UNL     1       3.254   6.072  18.341  0.00  0.00    +0.000 N 
ATOM      5  C   UNL     1       2.693   4.796  18.349  0.00  0.00    +0.000 A 
ATOM      6  C   UNL     1       1.573   4.296  18.977  0.00  0.00    +0.000 A 
ATOM      7  C   UNL     1       1.255   2.948  18.778  0.00  0.00    +0.000 A 
ATOM      8  C   UNL     1       2.063   2.129  17.971  0.00  0.00    +0.000 A 
ATOM      9  C   UNL     1       3.204   2.639  17.344  0.00  0.00    +0.000 A 
ATOM     10  C   UNL     1       3.508   3.971  17.537  0.00  0.00    +0.000 A 
ATOM     11  H   UNL     1       5.985   6.785  16.809  0.00  0.00    +0.000 HD
ENDROOT
BRANCH   1  12
ATOM     12  C   UNL     1       5.670   4.229  16.303  0.00  0.00    +0.000 C 
BRANCH  12  14
ATOM     13  C   UNL     1       6.026   3.896  13.828  0.00  0.00    +0.000 C 
ATOM     14  C   UNL     1       5.516   4.597  14.856  0.00  0.00    +0.000 C 
ENDBRANCH  12  14
ENDBRANCH   1  12
BRANCH   4  15
ATOM     15  C   UNL     1       2.833   7.165  19.194  0.00  0.00    +0.000 C 
BRANCH  15  16
ATOM     16  C   UNL     1       2.188   8.310  18.425  0.00  0.00    +0.000 C 
ATOM     17  O   UNL     1       2.457   8.524  17.241  0.00  0.00    +0.000 OA
BRANCH  16  18
ATOM     18  C   UNL     1       1.162   9.176  19.082  0.00  0.00    +0.000 A 
ATOM     19  C   UNL     1       0.871   9.077  20.445  0.00  0.00    +0.000 A 
ATOM     20  C   UNL     1      -0.037   9.948  21.050  0.00  0.00    +0.000 A 
ATOM     21  C   UNL     1      -0.680  10.924  20.294  0.00  0.00    +0.000 A 
ATOM     22  C   UNL     1      -0.415  11.012  18.921  0.00  0.00    +0.000 A 
ATOM     23  C   UNL     1       0.503  10.144  18.309  0.00  0.00    +0.000 A 
BRANCH  22  24
ATOM     24  N   UNL     1      -1.103  12.035  18.124  0.00  0.00    +0.000 N 
ATOM     25  O   UNL     1      -0.746  13.213  18.267  0.00  0.00    +0.000 OA
ATOM     26  O   UNL     1      -2.002  11.662  17.360  0.00  0.00    +0.000 OA
ENDBRANCH  22  24
ENDBRANCH  16  18
ENDBRANCH  15  16
ENDBRANCH   4  15
TORSDOF 6
ENDMDL
MODEL 5
REMARK VINA RESULT:      -7.3      2.592      5.801
REMARK  Name = 
REMARK  6 active torsions:
REMARK  status: ('A' for Active; 'I' for Inactive)
REMARK    1  A    between atoms: C_2  and  C_3
REMARK    2  A    between atoms: C_3  and  N_4
REMARK    3  A    between atoms: N_7  and  C_8
REMARK    4  A    between atoms: C_8  and  C_9
REMARK    5  A    between atoms: C_9  and  C_11
REMARK    6  A    between atoms: C_15  and  N_16
REMARK                            x       y       z     vdW  Elec       q    Type
REMARK                         _______ _______ _______ _____ _____    ______ ____
ROOT
ATOM      1  N   UNL     1       3.285   3.895  18.944  0.00  0.00    +0.000 N 
ATOM      2  C   UNL     1       3.968   3.573  17.772  0.00  0.00    +0.000 A 
ATOM      3  N   UNL     1       4.427   2.424  17.410  0.00  0.00    +0.000 NA
ATOM      4  N   UNL     1       4.055   4.736  17.003  0.00  0.00    +0.000 N 
ATOM      5  C   UNL     1       3.494   5.793  17.718  0.00  0.00    +0.000 A 
ATOM      6  C   UNL     1       3.377   7.134  17.423  0.00  0.00    +0.000 A 
ATOM      7  C   UNL     1       2.740   7.958  18.356  0.00  0.00    +0.000 A 
ATOM      8  C   UNL     1       2.245   7.433  19.562  0.00  0.00    +0.000 A 
ATOM      9  C   UNL     1       2.374   6.074  19.861  0.00  0.00    +0.000 A 
ATOM     10  C   UNL     1       2.997   5.263  18.933  0.00  0.00    +0.000 A 
ATOM     11  H   UNL     1       4.218   1.735  18.134  0.00  0.00    +0.000 HD
ENDROOT
BRANCH   1  12
ATOM     12  C   UNL     1       3.036   3.040  20.080  0.00  0.00    +0.000 C 
BRANCH  12  14
ATOM     13  C   UNL     1       0.856   2.386  18.992  0.00  0.00    +0.000 C 
ATOM     14  C   UNL     1       1.598   2.607  20.091  0.00  0.00    +0.000 C 
ENDBRANCH  12  14
ENDBRANCH   1  12
BRANCH   4  15
ATOM     15  C   UNL     1       4.837   4.881  15.792  0.00  0.00    +0.000 C 
BRANCH  15  16
ATOM     16  C   UNL     1       6.336   4.746  16.028  0.00  0.00    +0.000 C 
ATOM     17  O   UNL     1       7.055   4.105  15.258  0.00  0.00    +0.000 OA
BRANCH  16  18
ATOM     18  C   UNL     1       6.983   5.441  17.181  0.00  0.00    +0.000 A 
ATOM     19  C   UNL     1       7.391   4.754  18.328  0.00  0.00    +0.000 A 
ATOM     20  C   UNL     1       8.061   5.412  19.360  0.00  0.00    +0.000 A 
ATOM     21  C   UNL     1       8.321   6.777  19.266  0.00  0.00    +0.000 A 
ATOM     22  C   UNL     1       7.890   7.479  18.132  0.00  0.00    +0.000 A 
ATOM     23  C   UNL     1       7.223   6.820  17.088  0.00  0.00    +0.000 A 
BRANCH  22  24
ATOM     24  N   UNL     1       8.156   8.920  18.041  0.00  0.00    +0.000 N 
ATOM     25  O   UNL     1       8.992   9.403  18.818  0.00  0.00    +0.000 OA
ATOM     26  O   UNL     1       7.525   9.570  17.198  0.00  0.00    +0.000 OA
ENDBRANCH  22  24
ENDBRANCH  16  18
ENDBRANCH  15  16
ENDBRANCH   4  15
TORSDOF 6
ENDMDL
MODEL 6
REMARK VINA RESULT:      -7.1      2.904      6.870
REMARK  Name = 
REMARK  6 active torsions:
REMARK  status: ('A' for Active; 'I' for Inactive)
REMARK    1  A    between atoms: C_2  and  C_3
REMARK    2  A    between atoms: C_3  and  N_4
REMARK    3  A    between atoms: N_7  and  C_8
REMARK    4  A    between atoms: C_8  and  C_9
REMARK    5  A    between atoms: C_9  and  C_11
REMARK    6  A    between atoms: C_15  and  N_16
REMARK                            x       y       z     vdW  Elec       q    Type
REMARK                         _______ _______ _______ _____ _____    ______ ____
ROOT
ATOM      1  N   UNL     1       2.778   6.178  18.696  0.00  0.00    +0.000 N 
ATOM      2  C   UNL     1       3.692   5.833  17.702  0.00  0.00    +0.000 A 
ATOM      3  N   UNL     1       4.312   6.615  16.887  0.00  0.00    +0.000 NA
ATOM      4  N   UNL     1       3.864   4.447  17.750  0.00  0.00    +0.000 N 
ATOM      5  C   UNL     1       3.010   3.921  18.718  0.00  0.00    +0.000 A 
ATOM      6  C   UNL     1       2.768   2.622  19.112  0.00  0.00    +0.000 A 
ATOM      7  C   UNL     1       1.845   2.410  20.141  0.00  0.00    +0.000 A 
ATOM      8  C   UNL     1       1.177   3.489  20.744  0.00  0.00    +0.000 A 
ATOM      9  C   UNL     1       1.418   4.804  20.334  0.00  0.00    +0.000 A 
ATOM     10  C   UNL     1       2.337   5.008  19.324  0.00  0.00    +0.000 A 
ATOM     11  H   UNL     1       4.031   7.580  17.067  0.00  0.00    +0.000 HD
ENDROOT
BRANCH   1  12
ATOM     12  C   UNL     1       2.222   7.482  18.965  0.00  0.00    +0.000 C 
BRANCH  12  14
ATOM     13  C   UNL     1       1.191   8.606  20.974  0.00  0.00    +0.000 C 
ATOM     14  C   UNL     1       1.928   7.621  20.431  0.00  0.00    +0.000 C 
ENDBRANCH  12  14
ENDBRANCH   1  12
BRANCH   4  15
ATOM     15  C   UNL     1       4.595   3.660  16.777  0.00  0.00    +0.000 C 
BRANCH  15  16
ATOM     16  C   UNL     1       5.907   4.305  16.350  0.00  0.00    +0.000 C 
ATOM     17  O   UNL     1       6.703   4.757  17.176  0.00  0.00    +0.000 OA
BRANCH  16  18
ATOM     18  C   UNL     1       6.288   4.355  14.906  0.00  0.00    +0.000 A 
ATOM     19  C   UNL     1       7.354   5.133  14.446  0.00  0.00    +0.000 A 
ATOM     20  C   UNL     1       7.738   5.104  13.104  0.00  0.00    +0.000 A 
ATOM     21  C   UNL     1       7.048   4.306  12.196  0.00  0.00    +0.000 A 
ATOM     22  C   UNL     1       5.959   3.545  12.643  0.00  0.00    +0.000 A 
ATOM     23  C   UNL     1       5.575   3.564  13.993  0.00  0.00    +0.000 A 
BRANCH  22  24
ATOM     24  N   UNL     1       5.226   2.713  11.681  0.00  0.00    +0.000 N 
ATOM     25  O   UNL     1       4.147   3.145  11.250  0.00  0.00    +0.000 OA
ATOM     26  O   UNL     1       5.724   1.627  11.362  0.00  0.00    +0.000 OA
ENDBRANCH  22  24
ENDBRANCH  16  18
ENDBRANCH  15  16
ENDBRANCH   4  15
TORSDOF 6
ENDMDL
MODEL 7
REMARK VINA RESULT:      -7.0      1.950      3.635
REMARK  Name = 
REMARK  6 active torsions:
REMARK  status: ('A' for Active; 'I' for Inactive)
REMARK    1  A    between atoms: C_2  and  C_3
REMARK    2  A    between atoms: C_3  and  N_4
REMARK    3  A    between atoms: N_7  and  C_8
REMARK    4  A    between atoms: C_8  and  C_9
REMARK    5  A    between atoms: C_9  and  C_11
REMARK    6  A    between atoms: C_15  and  N_16
REMARK                            x       y       z     vdW  Elec       q    Type
REMARK                         _______ _______ _______ _____ _____    ______ ____
ROOT
ATOM      1  N   UNL     1       5.026   4.530  16.211  0.00  0.00    +0.000 N 
ATOM      2  C   UNL     1       4.083   3.950  17.058  0.00  0.00    +0.000 A 
ATOM      3  N   UNL     1       3.023   3.293  16.735  0.00  0.00    +0.000 NA
ATOM      4  N   UNL     1       4.504   4.174  18.371  0.00  0.00    +0.000 N 
ATOM      5  C   UNL     1       5.661   4.951  18.348  0.00  0.00    +0.000 A 
ATOM      6  C   UNL     1       6.428   5.476  19.366  0.00  0.00    +0.000 A 
ATOM      7  C   UNL     1       7.561   6.217  19.018  0.00  0.00    +0.000 A 
ATOM      8  C   UNL     1       7.898   6.429  17.670  0.00  0.00    +0.000 A 
ATOM      9  C   UNL     1       7.112   5.902  16.641  0.00  0.00    +0.000 A 
ATOM     10  C   UNL     1       5.999   5.164  16.991  0.00  0.00    +0.000 A 
ATOM     11  H   UNL     1       2.950   3.250  15.717  0.00  0.00    +0.000 HD
ENDROOT
BRANCH   1  12
ATOM     12  C   UNL     1       4.970   4.634  14.772  0.00  0.00    +0.000 C 
BRANCH  12  14
ATOM     13  C   UNL     1       6.224   3.568  12.861  0.00  0.00    +0.000 C 
ATOM     14  C   UNL     1       6.128   3.901  14.160  0.00  0.00    +0.000 C 
ENDBRANCH  12  14
ENDBRANCH   1  12
BRANCH   4  15
ATOM     15  C   UNL     1       3.724   3.888  19.559  0.00  0.00    +0.000 C 
BRANCH  15  16
ATOM     16  C   UNL     1       2.333   4.508  19.526  0.00  0.00    +0.000 C 
ATOM     17  O   UNL     1       1.316   3.812  19.562  0.00  0.00    +0.000 OA
BRANCH  16  18
ATOM     18  C   UNL     1       2.170   5.993  19.505  0.00  0.00    +0.000 A 
ATOM     19  C   UNL     1       2.474   6.757  18.375  0.00  0.00    +0.000 A 
ATOM     20  C   UNL     1       2.242   8.133  18.354  0.00  0.00    +0.000 A 
ATOM     21  C   UNL     1       1.715   8.770  19.474  0.00  0.00    +0.000 A 
ATOM     22  C   UNL     1       1.434   8.016  20.622  0.00  0.00    +0.000 A 
ATOM     23  C   UNL     1       1.658   6.631  20.645  0.00  0.00    +0.000 A 
BRANCH  22  24
ATOM     24  N   UNL     1       0.888   8.692  21.805  0.00  0.00    +0.000 N 
ATOM     25  O   UNL     1       1.664   9.379  22.485  0.00  0.00    +0.000 OA
ATOM     26  O   UNL     1      -0.312   8.532  22.058  0.00  0.00    +0.000 OA
ENDBRANCH  22  24
ENDBRANCH  16  18
ENDBRANCH  15  16
ENDBRANCH   4  15
TORSDOF 6
ENDMDL
MODEL 8
REMARK VINA RESULT:      -7.0      3.030      6.865
REMARK  Name = 
REMARK  6 active torsions:
REMARK  status: ('A' for Active; 'I' for Inactive)
REMARK    1  A    between atoms: C_2  and  C_3
REMARK    2  A    between atoms: C_3  and  N_4
REMARK    3  A    between atoms: N_7  and  C_8
REMARK    4  A    between atoms: C_8  and  C_9
REMARK    5  A    between atoms: C_9  and  C_11
REMARK    6  A    between atoms: C_15  and  N_16
REMARK                            x       y       z     vdW  Elec       q    Type
REMARK                         _______ _______ _______ _____ _____    ______ ____
ROOT
ATOM      1  N   UNL     1       3.642   7.062  17.865  0.00  0.00    +0.000 N 
ATOM      2  C   UNL     1       4.465   6.387  16.965  0.00  0.00    +0.000 A 
ATOM      3  N   UNL     1       5.055   6.859  15.920  0.00  0.00    +0.000 NA
ATOM      4  N   UNL     1       4.583   5.068  17.409  0.00  0.00    +0.000 N 
ATOM      5  C   UNL     1       3.783   4.899  18.538  0.00  0.00    +0.000 A 
ATOM      6  C   UNL     1       3.518   3.789  19.311  0.00  0.00    +0.000 A 
ATOM      7  C   UNL     1       2.665   3.942  20.409  0.00  0.00    +0.000 A 
ATOM      8  C   UNL     1       2.088   5.189  20.704  0.00  0.00    +0.000 A 
ATOM      9  C   UNL     1       2.352   6.310  19.912  0.00  0.00    +0.000 A 
ATOM     10  C   UNL     1       3.201   6.154  18.834  0.00  0.00    +0.000 A 
ATOM     11  H   UNL     1       4.828   7.850  15.824  0.00  0.00    +0.000 HD
ENDROOT
BRANCH   1  12
ATOM     12  C   UNL     1       3.161   8.419  17.770  0.00  0.00    +0.000 C 
BRANCH  12  14
ATOM     13  C   UNL     1       0.891   9.506  17.940  0.00  0.00    +0.000 C 
ATOM     14  C   UNL     1       1.726   8.486  18.206  0.00  0.00    +0.000 C 
ENDBRANCH  12  14
ENDBRANCH   1  12
BRANCH   4  15
ATOM     15  C   UNL     1       5.208   3.989  16.670  0.00  0.00    +0.000 C 
BRANCH  15  16
ATOM     16  C   UNL     1       6.534   4.387  16.035  0.00  0.00    +0.000 C 
ATOM     17  O   UNL     1       7.519   4.668  16.721  0.00  0.00    +0.000 OA
BRANCH  16  18
ATOM     18  C   UNL     1       6.687   4.392  14.549  0.00  0.00    +0.000 A 
ATOM     19  C   UNL     1       7.626   5.199  13.903  0.00  0.00    +0.000 A 
ATOM     20  C   UNL     1       7.803   5.130  12.520  0.00  0.00    +0.000 A 
ATOM     21  C   UNL     1       7.027   4.261  11.758  0.00  0.00    +0.000 A 
ATOM     22  C   UNL     1       6.062   3.468  12.395  0.00  0.00    +0.000 A 
ATOM     23  C   UNL     1       5.887   3.528  13.786  0.00  0.00    +0.000 A 
BRANCH  22  24
ATOM     24  N   UNL     1       5.237   2.560  11.588  0.00  0.00    +0.000 N 
ATOM     25  O   UNL     1       5.722   1.462  11.281  0.00  0.00    +0.000 OA
ATOM     26  O   UNL     1       4.110   2.946  11.258  0.00  0.00    +0.000 OA
ENDBRANCH  22  24
ENDBRANCH  16  18
ENDBRANCH  15  16
ENDBRANCH   4  15
TORSDOF 6
ENDMDL
MODEL 9
REMARK VINA RESULT:      -7.0      2.844      4.744
REMARK  Name = 
REMARK  6 active torsions:
REMARK  status: ('A' for Active; 'I' for Inactive)
REMARK    1  A    between atoms: C_2  and  C_3
REMARK    2  A    between atoms: C_3  and  N_4
REMARK    3  A    between atoms: N_7  and  C_8
REMARK    4  A    between atoms: C_8  and  C_9
REMARK    5  A    between atoms: C_9  and  C_11
REMARK    6  A    between atoms: C_15  and  N_16
REMARK                            x       y       z     vdW  Elec       q    Type
REMARK                         _______ _______ _______ _____ _____    ______ ____
ROOT
ATOM      1  N   UNL     1       3.801   3.899  17.662  0.00  0.00    +0.000 N 
ATOM      2  C   UNL     1       2.774   4.777  18.007  0.00  0.00    +0.000 A 
ATOM      3  N   UNL     1       1.550   4.494  18.294  0.00  0.00    +0.000 NA
ATOM      4  N   UNL     1       3.312   6.067  18.025  0.00  0.00    +0.000 N 
ATOM      5  C   UNL     1       4.645   6.005  17.624  0.00  0.00    +0.000 A 
ATOM      6  C   UNL     1       5.587   6.994  17.434  0.00  0.00    +0.000 A 
ATOM      7  C   UNL     1       6.870   6.608  17.032  0.00  0.00    +0.000 A 
ATOM      8  C   UNL     1       7.183   5.255  16.819  0.00  0.00    +0.000 A 
ATOM      9  C   UNL     1       6.221   4.257  17.004  0.00  0.00    +0.000 A 
ATOM     10  C   UNL     1       4.958   4.642  17.409  0.00  0.00    +0.000 A 
ATOM     11  H   UNL     1       1.414   3.484  18.230  0.00  0.00    +0.000 HD
ENDROOT
BRANCH   1  12
ATOM     12  C   UNL     1       3.702   2.479  17.428  0.00  0.00    +0.000 C 
BRANCH  12  14
ATOM     13  C   UNL     1       4.370   1.972  19.807  0.00  0.00    +0.000 C 
ATOM     14  C   UNL     1       3.587   1.751  18.737  0.00  0.00    +0.000 C 
ENDBRANCH  12  14
ENDBRANCH   1  12
BRANCH   4  15
ATOM     15  C   UNL     1       2.546   7.290  18.166  0.00  0.00    +0.000 C 
BRANCH  15  16
ATOM     16  C   UNL     1       2.040   7.518  19.584  0.00  0.00    +0.000 C 
ATOM     17  O   UNL     1       2.265   6.711  20.488  0.00  0.00    +0.000 OA
BRANCH  16  18
ATOM     18  C   UNL     1       1.296   8.768  19.927  0.00  0.00    +0.000 A 
ATOM     19  C   UNL     1       1.003   9.743  18.969  0.00  0.00    +0.000 A 
ATOM     20  C   UNL     1       0.242  10.866  19.297  0.00  0.00    +0.000 A 
ATOM     21  C   UNL     1      -0.226  11.039  20.597  0.00  0.00    +0.000 A 
ATOM     22  C   UNL     1       0.088  10.080  21.570  0.00  0.00    +0.000 A 
ATOM     23  C   UNL     1       0.846   8.945  21.243  0.00  0.00    +0.000 A 
BRANCH  22  24
ATOM     24  N   UNL     1      -0.397  10.270  22.943  0.00  0.00    +0.000 N 
ATOM     25  O   UNL     1       0.250   9.745  23.860  0.00  0.00    +0.000 OA
ATOM     26  O   UNL     1      -1.426  10.937  23.103  0.00  0.00    +0.000 OA
ENDBRANCH  22  24
ENDBRANCH  16  18
ENDBRANCH  15  16
ENDBRANCH   4  15
TORSDOF 6
ENDMDL
