MODEL 1
REMARK VINA RESULT:      -8.2      0.000      0.000
REMARK  Name = 
REMARK  1 active torsions:
REMARK  status: ('A' for Active; 'I' for Inactive)
REMARK    1  A    between atoms: C_12  and  C_13
REMARK                            x       y       z     vdW  Elec       q    Type
REMARK                         _______ _______ _______ _____ _____    ______ ____
ROOT
ATOM      1  O   UNL     1       6.704   5.340  20.028  0.00  0.00    +0.000 OA
ATOM      2  N   UNL     1       5.795   4.777  19.334  0.00  0.00    +0.000 N 
ATOM      3  N   UNL     1       4.717   4.352  19.880  0.00  0.00    +0.000 NA
ATOM      4  C   UNL     1       3.749   3.751  19.134  0.00  0.00    +0.000 A 
ATOM      5  C   UNL     1       2.524   3.204  19.431  0.00  0.00    +0.000 A 
ATOM      6  I   UNL     1       1.671   3.099  21.255  0.00  0.00    +0.000 I 
ATOM      7  C   UNL     1       1.998   2.742  18.218  0.00  0.00    +0.000 A 
ATOM      8  N   UNL     1       2.827   2.972  17.193  0.00  0.00    +0.000 NA
ATOM      9  N   UNL     1       3.884   3.578  17.771  0.00  0.00    +0.000 N 
ATOM     10  C   UNL     1       5.031   4.009  17.093  0.00  0.00    +0.000 A 
ATOM     11  C   UNL     1       5.209   3.838  15.713  0.00  0.00    +0.000 A 
ATOM     12  C   UNL     1       6.398   4.287  15.115  0.00  0.00    +0.000 A 
ATOM     13  C   UNL     1       7.372   4.907  15.921  0.00  0.00    +0.000 A 
ATOM     14  C   UNL     1       7.185   5.077  17.295  0.00  0.00    +0.000 A 
ATOM     15  C   UNL     1       6.009   4.620  17.886  0.00  0.00    +0.000 A 
ENDROOT
BRANCH  12  16
ATOM     16  C   UNL     1       6.672   4.122  13.684  0.00  0.00    +0.000 A 
ATOM     17  C   UNL     1       7.357   4.956  12.812  0.00  0.00    +0.000 A 
ATOM     18  C   UNL     1       7.289   4.403  11.513  0.00  0.00    +0.000 A 
ATOM     19  C   UNL     1       6.570   3.236  11.611  0.00  0.00    +0.000 A 
ATOM     20  N   UNL     1       6.212   3.066  12.925  0.00  0.00    +0.000 N 
ATOM     21  H   UNL     1       5.656   2.298  13.275  0.00  0.00    +0.000 HD
ENDBRANCH  12  16
TORSDOF 1
ENDMDL
MODEL 2
REMARK VINA RESULT:      -7.7      4.225      7.600
REMARK  Name = 
REMARK  1 active torsions:
REMARK  status: ('A' for Active; 'I' for Inactive)
REMARK    1  A    between atoms: C_12  and  C_13
REMARK                            x       y       z     vdW  Elec       q    Type
REMARK                         _______ _______ _______ _____ _____    ______ ____
ROOT
ATOM      1  O   UNL     1       3.024   2.093  18.614  0.00  0.00    +0.000 OA
ATOM      2  N   UNL     1       3.324   3.280  18.259  0.00  0.00    +0.000 N 
ATOM      3  N   UNL     1       4.113   3.493  17.272  0.00  0.00    +0.000 NA
ATOM      4  C   UNL     1       4.431   4.763  16.897  0.00  0.00    +0.000 A 
ATOM      5  C   UNL     1       5.231   5.290  15.912  0.00  0.00    +0.000 A 
ATOM      6  I   UNL     1       6.308   4.251  14.562  0.00  0.00    +0.000 I 
ATOM      7  C   UNL     1       5.142   6.682  16.040  0.00  0.00    +0.000 A 
ATOM      8  N   UNL     1       4.335   7.043  17.045  0.00  0.00    +0.000 NA
ATOM      9  N   UNL     1       3.921   5.865  17.555  0.00  0.00    +0.000 N 
ATOM     10  C   UNL     1       3.054   5.724  18.646  0.00  0.00    +0.000 A 
ATOM     11  C   UNL     1       2.527   6.818  19.346  0.00  0.00    +0.000 A 
ATOM     12  C   UNL     1       1.677   6.587  20.439  0.00  0.00    +0.000 A 
ATOM     13  C   UNL     1       1.369   5.258  20.792  0.00  0.00    +0.000 A 
ATOM     14  C   UNL     1       1.895   4.173  20.087  0.00  0.00    +0.000 A 
ATOM     15  C   UNL     1       2.747   4.408  19.009  0.00  0.00    +0.000 A 
ENDROOT
BRANCH  12  16
ATOM     16  C   UNL     1       1.106   7.675  21.239  0.00  0.00    +0.000 A 
ATOM     17  C   UNL     1      -0.214   8.084  21.364  0.00  0.00    +0.000 A 
ATOM     18  C   UNL     1      -0.255   9.230  22.191  0.00  0.00    +0.000 A 
ATOM     19  C   UNL     1       1.040   9.500  22.566  0.00  0.00    +0.000 A 
ATOM     20  N   UNL     1       1.853   8.552  21.999  0.00  0.00    +0.000 N 
ATOM     21  H   UNL     1       2.860   8.526  22.091  0.00  0.00    +0.000 HD
ENDBRANCH  12  16
TORSDOF 1
ENDMDL
MODEL 3
REMARK VINA RESULT:      -7.6      1.851      2.034
REMARK  Name = 
REMARK  1 active torsions:
REMARK  status: ('A' for Active; 'I' for Inactive)
REMARK    1  A    between atoms: C_12  and  C_13
REMARK                            x       y       z     vdW  Elec       q    Type
REMARK                         _______ _______ _______ _____ _____    ______ ____
ROOT
ATOM      1  O   UNL     1       3.079   7.441  19.031  0.00  0.00    +0.000 OA
ATOM      2  N   UNL     1       3.254   6.205  18.774  0.00  0.00    +0.000 N 
ATOM      3  N   UNL     1       2.796   5.298  19.553  0.00  0.00    +0.000 NA
ATOM      4  C   UNL     1       2.987   3.978  19.274  0.00  0.00    +0.000 A 
ATOM      5  C   UNL     1       2.629   2.813  19.906  0.00  0.00    +0.000 A 
ATOM      6  I   UNL     1       1.600   2.655  21.633  0.00  0.00    +0.000 I 
ATOM      7  C   UNL     1       3.120   1.769  19.111  0.00  0.00    +0.000 A 
ATOM      8  N   UNL     1       3.760   2.225  18.027  0.00  0.00    +0.000 NA
ATOM      9  N   UNL     1       3.673   3.565  18.149  0.00  0.00    +0.000 N 
ATOM     10  C   UNL     1       4.210   4.489  17.244  0.00  0.00    +0.000 A 
ATOM     11  C   UNL     1       4.923   4.108  16.099  0.00  0.00    +0.000 A 
ATOM     12  C   UNL     1       5.443   5.101  15.253  0.00  0.00    +0.000 A 
ATOM     13  C   UNL     1       5.219   6.453  15.575  0.00  0.00    +0.000 A 
ATOM     14  C   UNL     1       4.504   6.826  16.716  0.00  0.00    +0.000 A 
ATOM     15  C   UNL     1       4.000   5.837  17.559  0.00  0.00    +0.000 A 
ENDROOT
BRANCH  12  16
ATOM     16  C   UNL     1       6.222   4.785  14.051  0.00  0.00    +0.000 A 
ATOM     17  C   UNL     1       6.041   3.773  13.119  0.00  0.00    +0.000 A 
ATOM     18  C   UNL     1       7.096   3.830  12.181  0.00  0.00    +0.000 A 
ATOM     19  C   UNL     1       7.903   4.881  12.549  0.00  0.00    +0.000 A 
ATOM     20  N   UNL     1       7.363   5.460  13.670  0.00  0.00    +0.000 N 
ATOM     21  H   UNL     1       7.769   6.241  14.167  0.00  0.00    +0.000 HD
ENDBRANCH  12  16
TORSDOF 1
ENDMDL
MODEL 4
REMARK VINA RESULT:      -7.5      3.695      4.231
REMARK  Name = 
REMARK  1 active torsions:
REMARK  status: ('A' for Active; 'I' for Inactive)
REMARK    1  A    between atoms: C_12  and  C_13
REMARK                            x       y       z     vdW  Elec       q    Type
REMARK                         _______ _______ _______ _____ _____    ______ ____
ROOT
ATOM      1  O   UNL     1       2.328   4.805  21.119  0.00  0.00    +0.000 OA
ATOM      2  N   UNL     1       2.403   5.748  20.263  0.00  0.00    +0.000 N 
ATOM      3  N   UNL     1       1.776   6.850  20.440  0.00  0.00    +0.000 NA
ATOM      4  C   UNL     1       1.860   7.853  19.522  0.00  0.00    +0.000 A 
ATOM      5  C   UNL     1       1.311   9.110  19.436  0.00  0.00    +0.000 A 
ATOM      6  I   UNL     1       0.073   9.969  20.775  0.00  0.00    +0.000 I 
ATOM      7  C   UNL     1       1.786   9.663  18.240  0.00  0.00    +0.000 A 
ATOM      8  N   UNL     1       2.594   8.820  17.585  0.00  0.00    +0.000 NA
ATOM      9  N   UNL     1       2.619   7.728  18.375  0.00  0.00    +0.000 N 
ATOM     10  C   UNL     1       3.336   6.557  18.101  0.00  0.00    +0.000 A 
ATOM     11  C   UNL     1       4.106   6.388  16.943  0.00  0.00    +0.000 A 
ATOM     12  C   UNL     1       4.781   5.174  16.739  0.00  0.00    +0.000 A 
ATOM     13  C   UNL     1       4.671   4.163  17.714  0.00  0.00    +0.000 A 
ATOM     14  C   UNL     1       3.904   4.340  18.868  0.00  0.00    +0.000 A 
ATOM     15  C   UNL     1       3.228   5.543  19.061  0.00  0.00    +0.000 A 
ENDROOT
BRANCH  12  16
ATOM     16  C   UNL     1       5.585   4.909  15.541  0.00  0.00    +0.000 A 
ATOM     17  C   UNL     1       5.359   4.019  14.502  0.00  0.00    +0.000 A 
ATOM     18  C   UNL     1       6.458   4.071  13.616  0.00  0.00    +0.000 A 
ATOM     19  C   UNL     1       7.337   4.999  14.122  0.00  0.00    +0.000 A 
ATOM     20  N   UNL     1       6.799   5.509  15.276  0.00  0.00    +0.000 N 
ATOM     21  H   UNL     1       7.248   6.194  15.868  0.00  0.00    +0.000 HD
ENDBRANCH  12  16
TORSDOF 1
ENDMDL
MODEL 5
REMARK VINA RESULT:      -7.2      3.342      3.997
REMARK  Name = 
REMARK  1 active torsions:
REMARK  status: ('A' for Active; 'I' for Inactive)
REMARK    1  A    between atoms: C_12  and  C_13
REMARK                            x       y       z     vdW  Elec       q    Type
REMARK                         _______ _______ _______ _____ _____    ______ ____
ROOT
ATOM      1  O   UNL     1       2.303   4.143  21.350  0.00  0.00    +0.000 OA
ATOM      2  N   UNL     1       2.389   5.142  20.564  0.00  0.00    +0.000 N 
ATOM      3  N   UNL     1       1.757   6.229  20.807  0.00  0.00    +0.000 NA
ATOM      4  C   UNL     1       1.853   7.294  19.963  0.00  0.00    +0.000 A 
ATOM      5  C   UNL     1       1.302   8.553  19.957  0.00  0.00    +0.000 A 
ATOM      6  I   UNL     1       0.043   9.315  21.334  0.00  0.00    +0.000 I 
ATOM      7  C   UNL     1       1.794   9.189  18.810  0.00  0.00    +0.000 A 
ATOM      8  N   UNL     1       2.613   8.395  18.110  0.00  0.00    +0.000 NA
ATOM      9  N   UNL     1       2.629   7.250  18.822  0.00  0.00    +0.000 N 
ATOM     10  C   UNL     1       3.352   6.101  18.478  0.00  0.00    +0.000 A 
ATOM     11  C   UNL     1       4.140   6.015  17.322  0.00  0.00    +0.000 A 
ATOM     12  C   UNL     1       4.820   4.818  17.044  0.00  0.00    +0.000 A 
ATOM     13  C   UNL     1       4.698   3.742  17.944  0.00  0.00    +0.000 A 
ATOM     14  C   UNL     1       3.914   3.837  19.096  0.00  0.00    +0.000 A 
ATOM     15  C   UNL     1       3.232   5.023  19.362  0.00  0.00    +0.000 A 
ENDROOT
BRANCH  12  16
ATOM     16  C   UNL     1       5.643   4.639  15.843  0.00  0.00    +0.000 A 
ATOM     17  C   UNL     1       6.895   5.155  15.543  0.00  0.00    +0.000 A 
ATOM     18  C   UNL     1       7.242   4.763  14.230  0.00  0.00    +0.000 A 
ATOM     19  C   UNL     1       6.199   4.007  13.749  0.00  0.00    +0.000 A 
ATOM     20  N   UNL     1       5.244   3.926  14.731  0.00  0.00    +0.000 N 
ATOM     21  H   UNL     1       4.358   3.449  14.636  0.00  0.00    +0.000 HD
ENDBRANCH  12  16
TORSDOF 1
ENDMDL
MODEL 6
REMARK VINA RESULT:      -7.1      5.770      7.906
REMARK  Name = 
REMARK  1 active torsions:
REMARK  status: ('A' for Active; 'I' for Inactive)
REMARK    1  A    between atoms: C_12  and  C_13
REMARK                            x       y       z     vdW  Elec       q    Type
REMARK                         _______ _______ _______ _____ _____    ______ ____
ROOT
ATOM      1  O   UNL     1       2.033  10.367  17.431  0.00  0.00    +0.000 OA
ATOM      2  N   UNL     1       1.620  10.022  18.587  0.00  0.00    +0.000 N 
ATOM      3  N   UNL     1       1.030  10.861  19.353  0.00  0.00    +0.000 NA
ATOM      4  C   UNL     1       0.591  10.487  20.587  0.00  0.00    +0.000 A 
ATOM      5  C   UNL     1      -0.053  11.147  21.607  0.00  0.00    +0.000 A 
ATOM      6  I   UNL     1      -0.613  13.084  21.613  0.00  0.00    +0.000 I 
ATOM      7  C   UNL     1      -0.237  10.205  22.627  0.00  0.00    +0.000 A 
ATOM      8  N   UNL     1       0.256   9.005  22.296  0.00  0.00    +0.000 NA
ATOM      9  N   UNL     1       0.758   9.200  21.060  0.00  0.00    +0.000 N 
ATOM     10  C   UNL     1       1.395   8.220  20.290  0.00  0.00    +0.000 A 
ATOM     11  C   UNL     1       1.595   6.908  20.740  0.00  0.00    +0.000 A 
ATOM     12  C   UNL     1       2.258   5.991  19.909  0.00  0.00    +0.000 A 
ATOM     13  C   UNL     1       2.693   6.416  18.639  0.00  0.00    +0.000 A 
ATOM     14  C   UNL     1       2.487   7.725  18.195  0.00  0.00    +0.000 A 
ATOM     15  C   UNL     1       1.837   8.634  19.028  0.00  0.00    +0.000 A 
ENDROOT
BRANCH  12  16
ATOM     16  C   UNL     1       2.530   4.608  20.317  0.00  0.00    +0.000 A 
ATOM     17  C   UNL     1       1.968   3.862  21.343  0.00  0.00    +0.000 A 
ATOM     18  C   UNL     1       2.612   2.605  21.390  0.00  0.00    +0.000 A 
ATOM     19  C   UNL     1       3.553   2.598  20.388  0.00  0.00    +0.000 A 
ATOM     20  N   UNL     1       3.489   3.804  19.737  0.00  0.00    +0.000 N 
ATOM     21  H   UNL     1       4.089   4.078  18.971  0.00  0.00    +0.000 HD
ENDBRANCH  12  16
TORSDOF 1
ENDMDL
MODEL 7
REMARK VINA RESULT:      -7.0      6.884      8.305
REMARK  Name = 
REMARK  1 active torsions:
REMARK  status: ('A' for Active; 'I' for Inactive)
REMARK    1  A    between atoms: C_12  and  C_13
REMARK                            x       y       z     vdW  Elec       q    Type
REMARK                         _______ _______ _______ _____ _____    ______ ____
ROOT
ATOM      1  O   UNL     1       0.762  12.574  18.232  0.00  0.00    +0.000 OA
ATOM      2  N   UNL     1       0.560  11.787  19.215  0.00  0.00    +0.000 N 
ATOM      3  N   UNL     1      -0.097  12.173  20.244  0.00  0.00    +0.000 NA
ATOM      4  C   UNL     1      -0.310  11.328  21.291  0.00  0.00    +0.000 A 
ATOM      5  C   UNL     1      -0.954  11.456  22.498  0.00  0.00    +0.000 A 
ATOM      6  I   UNL     1      -1.887  13.104  23.189  0.00  0.00    +0.000 I 
ATOM      7  C   UNL     1      -0.828  10.217  23.141  0.00  0.00    +0.000 A 
ATOM      8  N   UNL     1      -0.145   9.336  22.401  0.00  0.00    +0.000 NA
ATOM      9  N   UNL     1       0.165  10.032  21.288  0.00  0.00    +0.000 N 
ATOM     10  C   UNL     1       0.896   9.527  20.205  0.00  0.00    +0.000 A 
ATOM     11  C   UNL     1       1.405   8.222  20.171  0.00  0.00    +0.000 A 
ATOM     12  C   UNL     1       2.141   7.802  19.051  0.00  0.00    +0.000 A 
ATOM     13  C   UNL     1       2.335   8.705  17.988  0.00  0.00    +0.000 A 
ATOM     14  C   UNL     1       1.821  10.003  18.027  0.00  0.00    +0.000 A 
ATOM     15  C   UNL     1       1.100  10.419  19.145  0.00  0.00    +0.000 A 
ENDROOT
BRANCH  12  16
ATOM     16  C   UNL     1       2.729   6.462  18.951  0.00  0.00    +0.000 A 
ATOM     17  C   UNL     1       2.750   5.583  17.878  0.00  0.00    +0.000 A 
ATOM     18  C   UNL     1       3.367   4.381  18.292  0.00  0.00    +0.000 A 
ATOM     19  C   UNL     1       3.722   4.546  19.610  0.00  0.00    +0.000 A 
ATOM     20  N   UNL     1       3.346   5.807  19.997  0.00  0.00    +0.000 N 
ATOM     21  H   UNL     1       3.465   6.184  20.927  0.00  0.00    +0.000 HD
ENDBRANCH  12  16
TORSDOF 1
ENDMDL
MODEL 8
REMARK VINA RESULT:      -6.7      6.529      8.022
REMARK  Name = 
REMARK  1 active torsions:
REMARK  status: ('A' for Active; 'I' for Inactive)
REMARK    1  A    between atoms: C_12  and  C_13
REMARK                            x       y       z     vdW  Elec       q    Type
REMARK                         _______ _______ _______ _____ _____    ______ ____
ROOT
ATOM      1  O   UNL     1      -0.179  11.572  17.877  0.00  0.00    +0.000 OA
ATOM      2  N   UNL     1      -0.038  10.958  18.986  0.00  0.00    +0.000 N 
ATOM      3  N   UNL     1      -0.597  11.390  20.054  0.00  0.00    +0.000 NA
ATOM      4  C   UNL     1      -0.443  10.731  21.236  0.00  0.00    +0.000 A 
ATOM      5  C   UNL     1      -0.902  10.950  22.512  0.00  0.00    +0.000 A 
ATOM      6  I   UNL     1      -2.071  12.477  23.118  0.00  0.00    +0.000 I 
ATOM      7  C   UNL     1      -0.396   9.904  23.295  0.00  0.00    +0.000 A 
ATOM      8  N   UNL     1       0.348   9.055  22.575  0.00  0.00    +0.000 NA
ATOM      9  N   UNL     1       0.311   9.578  21.333  0.00  0.00    +0.000 N 
ATOM     10  C   UNL     1       0.960   9.037  20.216  0.00  0.00    +0.000 A 
ATOM     11  C   UNL     1       1.744   7.878  20.278  0.00  0.00    +0.000 A 
ATOM     12  C   UNL     1       2.373   7.412  19.111  0.00  0.00    +0.000 A 
ATOM     13  C   UNL     1       2.185   8.121  17.909  0.00  0.00    +0.000 A 
ATOM     14  C   UNL     1       1.398   9.274  17.854  0.00  0.00    +0.000 A 
ATOM     15  C   UNL     1       0.785   9.738  19.017  0.00  0.00    +0.000 A 
ENDROOT
BRANCH  12  16
ATOM     16  C   UNL     1       3.231   6.223  19.099  0.00  0.00    +0.000 A 
ATOM     17  C   UNL     1       3.147   5.062  19.855  0.00  0.00    +0.000 A 
ATOM     18  C   UNL     1       4.249   4.237  19.538  0.00  0.00    +0.000 A 
ATOM     19  C   UNL     1       4.987   4.901  18.587  0.00  0.00    +0.000 A 
ATOM     20  N   UNL     1       4.361   6.092  18.318  0.00  0.00    +0.000 N 
ATOM     21  H   UNL     1       4.703   6.790  17.671  0.00  0.00    +0.000 HD
ENDBRANCH  12  16
TORSDOF 1
ENDMDL
MODEL 9
REMARK VINA RESULT:      -6.6      5.591      7.374
REMARK  Name = 
REMARK  1 active torsions:
REMARK  status: ('A' for Active; 'I' for Inactive)
REMARK    1  A    between atoms: C_12  and  C_13
REMARK                            x       y       z     vdW  Elec       q    Type
REMARK                         _______ _______ _______ _____ _____    ______ ____
ROOT
ATOM      1  O   UNL     1       1.952  10.648  17.416  0.00  0.00    +0.000 OA
ATOM      2  N   UNL     1       1.621  10.128  18.533  0.00  0.00    +0.000 N 
ATOM      3  N   UNL     1       0.959  10.797  19.401  0.00  0.00    +0.000 NA
ATOM      4  C   UNL     1       0.608  10.237  20.592  0.00  0.00    +0.000 A 
ATOM      5  C   UNL     1      -0.077  10.696  21.691  0.00  0.00    +0.000 A 
ATOM      6  I   UNL     1      -0.867  12.535  21.928  0.00  0.00    +0.000 I 
ATOM      7  C   UNL     1      -0.113   9.631  22.601  0.00  0.00    +0.000 A 
ATOM      8  N   UNL     1       0.510   8.546  22.127  0.00  0.00    +0.000 NA
ATOM      9  N   UNL     1       0.945   8.937  20.912  0.00  0.00    +0.000 N 
ATOM     10  C   UNL     1       1.671   8.134  20.023  0.00  0.00    +0.000 A 
ATOM     11  C   UNL     1       2.042   6.815  20.317  0.00  0.00    +0.000 A 
ATOM     12  C   UNL     1       2.784   6.085  19.375  0.00  0.00    +0.000 A 
ATOM     13  C   UNL     1       3.123   6.700  18.153  0.00  0.00    +0.000 A 
ATOM     14  C   UNL     1       2.746   8.014  17.866  0.00  0.00    +0.000 A 
ATOM     15  C   UNL     1       2.019   8.737  18.809  0.00  0.00    +0.000 A 
ENDROOT
BRANCH  12  16
ATOM     16  C   UNL     1       3.234   4.711  19.618  0.00  0.00    +0.000 A 
ATOM     17  C   UNL     1       4.435   4.100  19.285  0.00  0.00    +0.000 A 
ATOM     18  C   UNL     1       4.367   2.740  19.660  0.00  0.00    +0.000 A 
ATOM     19  C   UNL     1       3.130   2.540  20.223  0.00  0.00    +0.000 A 
ATOM     20  N   UNL     1       2.456   3.735  20.206  0.00  0.00    +0.000 N 
ATOM     21  H   UNL     1       1.511   3.869  20.538  0.00  0.00    +0.000 HD
ENDBRANCH  12  16
TORSDOF 1
ENDMDL
