MODEL 1
REMARK VINA RESULT:      -8.8      0.000      0.000
REMARK  Name = 
REMARK  5 active torsions:
REMARK  status: ('A' for Active; 'I' for Inactive)
REMARK    1  A    between atoms: C_1  and  C_2
REMARK    2  A    between atoms: N_5  and  S_6
REMARK    3  A    between atoms: S_6  and  C_9
REMARK    4  A    between atoms: C_12  and  N_13
REMARK    5  A    between atoms: N_16  and  C_17
REMARK                            x       y       z     vdW  Elec       q    Type
REMARK                         _______ _______ _______ _____ _____    ______ ____
ROOT
ATOM      1  C   UNL     1       3.370   4.778  18.578  0.00  0.00    +0.000 A 
ATOM      2  C   UNL     1       3.163   6.114  18.251  0.00  0.00    +0.000 A 
ATOM      3  C   UNL     1       2.542   6.958  19.175  0.00  0.00    +0.000 A 
ATOM      4  C   UNL     1       2.117   6.483  20.420  0.00  0.00    +0.000 A 
ATOM      5  C   UNL     1       2.370   5.145  20.757  0.00  0.00    +0.000 A 
ATOM      6  C   UNL     1       2.985   4.291  19.833  0.00  0.00    +0.000 A 
ENDROOT
BRANCH   4   7
ATOM      7  N   UNL     1       1.456   7.307  21.359  0.00  0.00    +0.000 N 
ATOM      8  C   UNL     1       0.925   8.549  21.062  0.00  0.00    +0.000 C 
ATOM      9  O   UNL     1       0.830   9.015  19.930  0.00  0.00    +0.000 OA
ATOM     10  N   UNL     1       0.530   9.230  22.209  0.00  0.00    +0.000 N 
ATOM     11  H   UNL     1       1.091   6.865  22.192  0.00  0.00    +0.000 HD
ATOM     12  H   UNL     1       1.117   9.050  23.011  0.00  0.00    +0.000 HD
BRANCH  10  13
ATOM     13  C   UNL     1      -0.047  10.519  22.119  0.00  0.00    +0.000 A 
ATOM     14  C   UNL     1       0.567  11.545  21.388  0.00  0.00    +0.000 A 
ATOM     15  C   UNL     1       0.021  12.830  21.371  0.00  0.00    +0.000 A 
ATOM     16  C   UNL     1      -1.136  13.099  22.097  0.00  0.00    +0.000 A 
ATOM     17  C   UNL     1      -1.757  12.073  22.810  0.00  0.00    +0.000 A 
ATOM     18 CL   UNL     1      -3.162  12.418  23.744  0.00  0.00    +0.000 Cl
ATOM     19  C   UNL     1      -1.236  10.777  22.802  0.00  0.00    +0.000 A 
ENDBRANCH  10  13
ENDBRANCH   4   7
BRANCH   1  20
ATOM     20  S   UNL     1       4.134   3.655  17.441  0.00  0.00    +0.000 S 
ATOM     21  O   UNL     1       3.987   4.228  16.119  0.00  0.00    +0.000 OA
ATOM     22  O   UNL     1       3.642   2.325  17.731  0.00  0.00    +0.000 OA
BRANCH  20  27
ATOM     23  C   UNL     1       7.908   8.258  17.639  0.00  0.00    +0.000 C 
ATOM     24  C   UNL     1       7.387   6.890  17.471  0.00  0.00    +0.000 A 
ATOM     25  C   UNL     1       6.590   6.057  18.221  0.00  0.00    +0.000 A 
ATOM     26  C   UNL     1       6.466   4.896  17.430  0.00  0.00    +0.000 A 
ATOM     27  N   UNL     1       5.789   3.730  17.765  0.00  0.00    +0.000 N 
ATOM     28  N   UNL     1       7.164   4.996  16.297  0.00  0.00    +0.000 NA
ATOM     29  O   UNL     1       7.741   6.254  16.323  0.00  0.00    +0.000 OA
ATOM     30  H   UNL     1       5.932   3.386  18.714  0.00  0.00    +0.000 HD
ENDBRANCH  20  27
ENDBRANCH   1  20
TORSDOF 4
ENDMDL
MODEL 2
REMARK VINA RESULT:      -8.7      1.829      2.305
REMARK  Name = 
REMARK  5 active torsions:
REMARK  status: ('A' for Active; 'I' for Inactive)
REMARK    1  A    between atoms: C_1  and  C_2
REMARK    2  A    between atoms: N_5  and  S_6
REMARK    3  A    between atoms: S_6  and  C_9
REMARK    4  A    between atoms: C_12  and  N_13
REMARK    5  A    between atoms: N_16  and  C_17
REMARK                            x       y       z     vdW  Elec       q    Type
REMARK                         _______ _______ _______ _____ _____    ______ ____
ROOT
ATOM      1  C   UNL     1       3.113   4.804  18.890  0.00  0.00    +0.000 A 
ATOM      2  C   UNL     1       2.496   4.630  20.124  0.00  0.00    +0.000 A 
ATOM      3  C   UNL     1       1.911   5.728  20.760  0.00  0.00    +0.000 A 
ATOM      4  C   UNL     1       1.942   7.002  20.182  0.00  0.00    +0.000 A 
ATOM      5  C   UNL     1       2.528   7.158  18.918  0.00  0.00    +0.000 A 
ATOM      6  C   UNL     1       3.123   6.063  18.278  0.00  0.00    +0.000 A 
ENDROOT
BRANCH   4   7
ATOM      7  N   UNL     1       1.389   8.136  20.819  0.00  0.00    +0.000 N 
ATOM      8  C   UNL     1       0.972   9.274  20.150  0.00  0.00    +0.000 C 
ATOM      9  O   UNL     1       0.891   9.375  18.930  0.00  0.00    +0.000 OA
ATOM     10  N   UNL     1       0.676  10.310  21.029  0.00  0.00    +0.000 N 
ATOM     11  H   UNL     1       1.007   8.011  21.746  0.00  0.00    +0.000 HD
ATOM     12  H   UNL     1       1.264  10.328  21.850  0.00  0.00    +0.000 HD
BRANCH  10  13
ATOM     13  C   UNL     1       0.223  11.560  20.543  0.00  0.00    +0.000 A 
ATOM     14  C   UNL     1      -1.142  11.825  20.369  0.00  0.00    +0.000 A 
ATOM     15  C   UNL     1      -1.566  13.036  19.820  0.00  0.00    +0.000 A 
ATOM     16  C   UNL     1      -0.624  13.985  19.430  0.00  0.00    +0.000 A 
ATOM     17  C   UNL     1       0.733  13.728  19.621  0.00  0.00    +0.000 A 
ATOM     18 CL   UNL     1       1.897  14.884  19.096  0.00  0.00    +0.000 Cl
ATOM     19  C   UNL     1       1.162  12.533  20.202  0.00  0.00    +0.000 A 
ENDBRANCH  10  13
ENDBRANCH   4   7
BRANCH   1  20
ATOM     20  S   UNL     1       3.888   3.455  18.045  0.00  0.00    +0.000 S 
ATOM     21  O   UNL     1       3.857   3.769  16.631  0.00  0.00    +0.000 OA
ATOM     22  O   UNL     1       3.309   2.225  18.544  0.00  0.00    +0.000 OA
BRANCH  20  27
ATOM     23  C   UNL     1       7.874   7.862  17.656  0.00  0.00    +0.000 C 
ATOM     24  C   UNL     1       7.296   6.508  17.709  0.00  0.00    +0.000 A 
ATOM     25  C   UNL     1       6.410   5.864  18.541  0.00  0.00    +0.000 A 
ATOM     26  C   UNL     1       6.277   4.580  17.973  0.00  0.00    +0.000 A 
ATOM     27  N   UNL     1       5.520   3.525  18.469  0.00  0.00    +0.000 N 
ATOM     28  N   UNL     1       7.051   4.436  16.895  0.00  0.00    +0.000 NA
ATOM     29  O   UNL     1       7.689   5.653  16.728  0.00  0.00    +0.000 OA
ATOM     30  H   UNL     1       5.584   3.362  19.474  0.00  0.00    +0.000 HD
ENDBRANCH  20  27
ENDBRANCH   1  20
TORSDOF 4
ENDMDL
MODEL 3
REMARK VINA RESULT:      -8.7      1.085      1.425
REMARK  Name = 
REMARK  5 active torsions:
REMARK  status: ('A' for Active; 'I' for Inactive)
REMARK    1  A    between atoms: C_1  and  C_2
REMARK    2  A    between atoms: N_5  and  S_6
REMARK    3  A    between atoms: S_6  and  C_9
REMARK    4  A    between atoms: C_12  and  N_13
REMARK    5  A    between atoms: N_16  and  C_17
REMARK                            x       y       z     vdW  Elec       q    Type
REMARK                         _______ _______ _______ _____ _____    ______ ____
ROOT
ATOM      1  C   UNL     1       3.548   4.801  18.359  0.00  0.00    +0.000 A 
ATOM      2  C   UNL     1       3.202   6.108  18.032  0.00  0.00    +0.000 A 
ATOM      3  C   UNL     1       2.559   6.906  18.981  0.00  0.00    +0.000 A 
ATOM      4  C   UNL     1       2.248   6.413  20.253  0.00  0.00    +0.000 A 
ATOM      5  C   UNL     1       2.639   5.108  20.588  0.00  0.00    +0.000 A 
ATOM      6  C   UNL     1       3.277   4.299  19.639  0.00  0.00    +0.000 A 
ENDROOT
BRANCH   4   7
ATOM      7  N   UNL     1       1.567   7.187  21.220  0.00  0.00    +0.000 N 
ATOM      8  C   UNL     1       1.059   8.451  20.982  0.00  0.00    +0.000 C 
ATOM      9  O   UNL     1       1.002   8.984  19.878  0.00  0.00    +0.000 OA
ATOM     10  N   UNL     1       0.636   9.067  22.155  0.00  0.00    +0.000 N 
ATOM     11  H   UNL     1       1.174   6.700  22.013  0.00  0.00    +0.000 HD
ATOM     12  H   UNL     1       1.197   8.833  22.962  0.00  0.00    +0.000 HD
BRANCH  10  13
ATOM     13  C   UNL     1       0.075  10.366  22.126  0.00  0.00    +0.000 A 
ATOM     14  C   UNL     1      -1.021  10.707  22.928  0.00  0.00    +0.000 A 
ATOM     15  C   UNL     1      -1.607  11.970  22.832  0.00  0.00    +0.000 A 
ATOM     16  C   UNL     1      -1.106  12.897  21.922  0.00  0.00    +0.000 A 
ATOM     17  C   UNL     1      -0.003  12.564  21.136  0.00  0.00    +0.000 A 
ATOM     18 CL   UNL     1       0.586  13.694  19.979  0.00  0.00    +0.000 Cl
ATOM     19  C   UNL     1       0.609  11.314  21.253  0.00  0.00    +0.000 A 
ENDBRANCH  10  13
ENDBRANCH   4   7
BRANCH   1  20
ATOM     20  S   UNL     1       4.346   3.735  17.193  0.00  0.00    +0.000 S 
ATOM     21  O   UNL     1       4.183   4.341  15.888  0.00  0.00    +0.000 OA
ATOM     22  O   UNL     1       3.894   2.382  17.443  0.00  0.00    +0.000 OA
BRANCH  20  27
ATOM     23  C   UNL     1       7.935   8.455  17.747  0.00  0.00    +0.000 C 
ATOM     24  C   UNL     1       7.469   7.084  17.474  0.00  0.00    +0.000 A 
ATOM     25  C   UNL     1       6.707   6.165  18.157  0.00  0.00    +0.000 A 
ATOM     26  C   UNL     1       6.627   5.065  17.279  0.00  0.00    +0.000 A 
ATOM     27  N   UNL     1       5.998   3.850  17.522  0.00  0.00    +0.000 N 
ATOM     28  N   UNL     1       7.318   5.279  16.157  0.00  0.00    +0.000 NA
ATOM     29  O   UNL     1       7.844   6.553  16.280  0.00  0.00    +0.000 OA
ATOM     30  H   UNL     1       6.157   3.440  18.442  0.00  0.00    +0.000 HD
ENDBRANCH  20  27
ENDBRANCH   1  20
TORSDOF 4
ENDMDL
MODEL 4
REMARK VINA RESULT:      -8.6      3.451      4.004
REMARK  Name = 
REMARK  5 active torsions:
REMARK  status: ('A' for Active; 'I' for Inactive)
REMARK    1  A    between atoms: C_1  and  C_2
REMARK    2  A    between atoms: N_5  and  S_6
REMARK    3  A    between atoms: S_6  and  C_9
REMARK    4  A    between atoms: C_12  and  N_13
REMARK    5  A    between atoms: N_16  and  C_17
REMARK                            x       y       z     vdW  Elec       q    Type
REMARK                         _______ _______ _______ _____ _____    ______ ____
ROOT
ATOM      1  C   UNL     1       2.914   7.264  18.613  0.00  0.00    +0.000 A 
ATOM      2  C   UNL     1       2.250   7.363  19.831  0.00  0.00    +0.000 A 
ATOM      3  C   UNL     1       1.344   8.407  20.036  0.00  0.00    +0.000 A 
ATOM      4  C   UNL     1       1.099   9.360  19.042  0.00  0.00    +0.000 A 
ATOM      5  C   UNL     1       1.740   9.226  17.802  0.00  0.00    +0.000 A 
ATOM      6  C   UNL     1       2.655   8.186  17.592  0.00  0.00    +0.000 A 
ENDROOT
BRANCH   4   7
ATOM      7  N   UNL     1       0.214  10.445  19.235  0.00  0.00    +0.000 N 
ATOM      8  C   UNL     1      -1.132  10.412  18.917  0.00  0.00    +0.000 C 
ATOM      9  O   UNL     1      -1.745   9.404  18.578  0.00  0.00    +0.000 OA
ATOM     10  N   UNL     1      -1.714  11.672  19.004  0.00  0.00    +0.000 N 
ATOM     11  H   UNL     1       0.489  11.160  19.893  0.00  0.00    +0.000 HD
ATOM     12  H   UNL     1      -1.095  12.425  18.737  0.00  0.00    +0.000 HD
BRANCH  10  13
ATOM     13  C   UNL     1      -3.090  11.852  18.726  0.00  0.00    +0.000 A 
ATOM     14  C   UNL     1      -3.621  11.577  17.459  0.00  0.00    +0.000 A 
ATOM     15  C   UNL     1      -4.966  11.830  17.182  0.00  0.00    +0.000 A 
ATOM     16  C   UNL     1      -5.785  12.372  18.169  0.00  0.00    +0.000 A 
ATOM     17  C   UNL     1      -5.260  12.628  19.435  0.00  0.00    +0.000 A 
ATOM     18 CL   UNL     1      -6.262  13.341  20.640  0.00  0.00    +0.000 Cl
ATOM     19  C   UNL     1      -3.925  12.345  19.729  0.00  0.00    +0.000 A 
ENDBRANCH  10  13
ENDBRANCH   4   7
BRANCH   1  20
ATOM     20  S   UNL     1       4.088   5.975  18.301  0.00  0.00    +0.000 S 
ATOM     21  O   UNL     1       3.427   4.998  17.460  0.00  0.00    +0.000 OA
ATOM     22  O   UNL     1       4.671   5.588  19.568  0.00  0.00    +0.000 OA
BRANCH  20  27
ATOM     23  C   UNL     1       6.682   4.031  13.306  0.00  0.00    +0.000 C 
ATOM     24  C   UNL     1       6.470   4.739  14.580  0.00  0.00    +0.000 A 
ATOM     25  C   UNL     1       5.472   5.536  15.091  0.00  0.00    +0.000 A 
ATOM     26  C   UNL     1       5.913   5.843  16.395  0.00  0.00    +0.000 A 
ATOM     27  N   UNL     1       5.274   6.664  17.317  0.00  0.00    +0.000 N 
ATOM     28  N   UNL     1       7.108   5.305  16.651  0.00  0.00    +0.000 NA
ATOM     29  O   UNL     1       7.455   4.607  15.507  0.00  0.00    +0.000 OA
ATOM     30  H   UNL     1       4.901   7.540  16.954  0.00  0.00    +0.000 HD
ENDBRANCH  20  27
ENDBRANCH   1  20
TORSDOF 4
ENDMDL
MODEL 5
REMARK VINA RESULT:      -8.6      1.731      2.001
REMARK  Name = 
REMARK  5 active torsions:
REMARK  status: ('A' for Active; 'I' for Inactive)
REMARK    1  A    between atoms: C_1  and  C_2
REMARK    2  A    between atoms: N_5  and  S_6
REMARK    3  A    between atoms: S_6  and  C_9
REMARK    4  A    between atoms: C_12  and  N_13
REMARK    5  A    between atoms: N_16  and  C_17
REMARK                            x       y       z     vdW  Elec       q    Type
REMARK                         _______ _______ _______ _____ _____    ______ ____
ROOT
ATOM      1  C   UNL     1       3.533   5.055  18.313  0.00  0.00    +0.000 A 
ATOM      2  C   UNL     1       3.386   6.313  17.738  0.00  0.00    +0.000 A 
ATOM      3  C   UNL     1       2.760   7.330  18.464  0.00  0.00    +0.000 A 
ATOM      4  C   UNL     1       2.270   7.104  19.754  0.00  0.00    +0.000 A 
ATOM      5  C   UNL     1       2.462   5.844  20.341  0.00  0.00    +0.000 A 
ATOM      6  C   UNL     1       3.082   4.818  19.617  0.00  0.00    +0.000 A 
ENDROOT
BRANCH   4   7
ATOM      7  N   UNL     1       1.601   8.104  20.497  0.00  0.00    +0.000 N 
ATOM      8  C   UNL     1       1.081   9.260  19.944  0.00  0.00    +0.000 C 
ATOM      9  O   UNL     1       1.001   9.484  18.740  0.00  0.00    +0.000 OA
ATOM     10  N   UNL     1       0.675  10.162  20.922  0.00  0.00    +0.000 N 
ATOM     11  H   UNL     1       1.225   7.843  21.397  0.00  0.00    +0.000 HD
ATOM     12  H   UNL     1       1.252  10.149  21.751  0.00  0.00    +0.000 HD
BRANCH  10  13
ATOM     13  C   UNL     1       0.105  11.407  20.563  0.00  0.00    +0.000 A 
ATOM     14  C   UNL     1      -1.283  11.584  20.501  0.00  0.00    +0.000 A 
ATOM     15  C   UNL     1      -1.826  12.797  20.074  0.00  0.00    +0.000 A 
ATOM     16  C   UNL     1      -0.981  13.837  19.694  0.00  0.00    +0.000 A 
ATOM     17  C   UNL     1       0.400  13.666  19.773  0.00  0.00    +0.000 A 
ATOM     18 CL   UNL     1       1.443  14.937  19.259  0.00  0.00    +0.000 Cl
ATOM     19  C   UNL     1       0.950  12.468  20.233  0.00  0.00    +0.000 A 
ENDBRANCH  10  13
ENDBRANCH   4   7
BRANCH   1  20
ATOM     20  S   UNL     1       4.301   3.721  17.436  0.00  0.00    +0.000 S 
ATOM     21  O   UNL     1       4.183   4.022  16.024  0.00  0.00    +0.000 OA
ATOM     22  O   UNL     1       3.787   2.480  17.975  0.00  0.00    +0.000 OA
BRANCH  20  27
ATOM     23  C   UNL     1       7.927   8.437  17.714  0.00  0.00    +0.000 C 
ATOM     24  C   UNL     1       7.451   7.056  17.525  0.00  0.00    +0.000 A 
ATOM     25  C   UNL     1       6.677   6.188  18.260  0.00  0.00    +0.000 A 
ATOM     26  C   UNL     1       6.593   5.035  17.453  0.00  0.00    +0.000 A 
ATOM     27  N   UNL     1       5.951   3.844  17.769  0.00  0.00    +0.000 N 
ATOM     28  N   UNL     1       7.293   5.172  16.325  0.00  0.00    +0.000 NA
ATOM     29  O   UNL     1       7.829   6.447  16.370  0.00  0.00    +0.000 OA
ATOM     30  H   UNL     1       6.101   3.492  18.714  0.00  0.00    +0.000 HD
ENDBRANCH  20  27
ENDBRANCH   1  20
TORSDOF 4
ENDMDL
MODEL 6
REMARK VINA RESULT:      -8.6      0.739      1.188
REMARK  Name = 
REMARK  5 active torsions:
REMARK  status: ('A' for Active; 'I' for Inactive)
REMARK    1  A    between atoms: C_1  and  C_2
REMARK    2  A    between atoms: N_5  and  S_6
REMARK    3  A    between atoms: S_6  and  C_9
REMARK    4  A    between atoms: C_12  and  N_13
REMARK    5  A    between atoms: N_16  and  C_17
REMARK                            x       y       z     vdW  Elec       q    Type
REMARK                         _______ _______ _______ _____ _____    ______ ____
ROOT
ATOM      1  C   UNL     1       2.864   4.946  18.793  0.00  0.00    +0.000 A 
ATOM      2  C   UNL     1       2.332   4.559  20.019  0.00  0.00    +0.000 A 
ATOM      3  C   UNL     1       1.894   5.536  20.916  0.00  0.00    +0.000 A 
ATOM      4  C   UNL     1       1.989   6.898  20.609  0.00  0.00    +0.000 A 
ATOM      5  C   UNL     1       2.486   7.276  19.353  0.00  0.00    +0.000 A 
ATOM      6  C   UNL     1       2.934   6.302  18.452  0.00  0.00    +0.000 A 
ENDROOT
BRANCH   4   7
ATOM      7  N   UNL     1       1.586   7.908  21.512  0.00  0.00    +0.000 N 
ATOM      8  C   UNL     1       0.670   8.899  21.207  0.00  0.00    +0.000 C 
ATOM      9  O   UNL     1      -0.008   8.931  20.185  0.00  0.00    +0.000 OA
ATOM     10  N   UNL     1       0.622   9.879  22.192  0.00  0.00    +0.000 N 
ATOM     11  H   UNL     1       1.733   7.738  22.497  0.00  0.00    +0.000 HD
ATOM     12  H   UNL     1       1.514  10.058  22.631  0.00  0.00    +0.000 HD
BRANCH  10  13
ATOM     13  C   UNL     1      -0.261  10.979  22.073  0.00  0.00    +0.000 A 
ATOM     14  C   UNL     1      -0.010  12.021  21.171  0.00  0.00    +0.000 A 
ATOM     15  C   UNL     1      -0.853  13.134  21.120  0.00  0.00    +0.000 A 
ATOM     16  C   UNL     1      -1.945  13.214  21.980  0.00  0.00    +0.000 A 
ATOM     17  C   UNL     1      -2.204  12.167  22.864  0.00  0.00    +0.000 A 
ATOM     18 CL   UNL     1      -3.528  12.289  23.958  0.00  0.00    +0.000 Cl
ATOM     19  C   UNL     1      -1.386  11.036  22.896  0.00  0.00    +0.000 A 
ENDBRANCH  10  13
ENDBRANCH   4   7
BRANCH   1  20
ATOM     20  S   UNL     1       3.453   3.755  17.622  0.00  0.00    +0.000 S 
ATOM     21  O   UNL     1       3.570   4.437  16.350  0.00  0.00    +0.000 OA
ATOM     22  O   UNL     1       2.642   2.564  17.753  0.00  0.00    +0.000 OA
BRANCH  20  27
ATOM     23  C   UNL     1       8.167   7.297  18.463  0.00  0.00    +0.000 C 
ATOM     24  C   UNL     1       7.358   6.106  18.151  0.00  0.00    +0.000 A 
ATOM     25  C   UNL     1       6.321   5.449  18.771  0.00  0.00    +0.000 A 
ATOM     26  C   UNL     1       6.002   4.398  17.887  0.00  0.00    +0.000 A 
ATOM     27  N   UNL     1       5.042   3.412  18.079  0.00  0.00    +0.000 N 
ATOM     28  N   UNL     1       6.807   4.389  16.822  0.00  0.00    +0.000 NA
ATOM     29  O   UNL     1       7.658   5.468  16.988  0.00  0.00    +0.000 OA
ATOM     30  H   UNL     1       5.011   2.991  19.007  0.00  0.00    +0.000 HD
ENDBRANCH  20  27
ENDBRANCH   1  20
TORSDOF 4
ENDMDL
MODEL 7
REMARK VINA RESULT:      -8.6      1.266      1.348
REMARK  Name = 
REMARK  5 active torsions:
REMARK  status: ('A' for Active; 'I' for Inactive)
REMARK    1  A    between atoms: C_1  and  C_2
REMARK    2  A    between atoms: N_5  and  S_6
REMARK    3  A    between atoms: S_6  and  C_9
REMARK    4  A    between atoms: C_12  and  N_13
REMARK    5  A    between atoms: N_16  and  C_17
REMARK                            x       y       z     vdW  Elec       q    Type
REMARK                         _______ _______ _______ _____ _____    ______ ____
ROOT
ATOM      1  C   UNL     1       3.212   4.922  18.784  0.00  0.00    +0.000 A 
ATOM      2  C   UNL     1       3.130   6.160  18.153  0.00  0.00    +0.000 A 
ATOM      3  C   UNL     1       2.543   7.235  18.825  0.00  0.00    +0.000 A 
ATOM      4  C   UNL     1       2.027   7.088  20.117  0.00  0.00    +0.000 A 
ATOM      5  C   UNL     1       2.154   5.849  20.761  0.00  0.00    +0.000 A 
ATOM      6  C   UNL     1       2.735   4.764  20.091  0.00  0.00    +0.000 A 
ENDROOT
BRANCH   4   7
ATOM      7  N   UNL     1       1.397   8.150  20.806  0.00  0.00    +0.000 N 
ATOM      8  C   UNL     1       0.936   9.303  20.196  0.00  0.00    +0.000 C 
ATOM      9  O   UNL     1       0.880   9.476  18.983  0.00  0.00    +0.000 OA
ATOM     10  N   UNL     1       0.561  10.265  21.128  0.00  0.00    +0.000 N 
ATOM     11  H   UNL     1       0.999   7.946  21.712  0.00  0.00    +0.000 HD
ATOM     12  H   UNL     1       1.127  10.263  21.964  0.00  0.00    +0.000 HD
BRANCH  10  13
ATOM     13  C   UNL     1       0.053  11.517  20.707  0.00  0.00    +0.000 A 
ATOM     14  C   UNL     1       0.904  12.589  20.412  0.00  0.00    +0.000 A 
ATOM     15  C   UNL     1       0.383  13.838  20.069  0.00  0.00    +0.000 A 
ATOM     16  C   UNL     1      -0.997  14.023  20.031  0.00  0.00    +0.000 A 
ATOM     17  C   UNL     1      -1.844  12.951  20.307  0.00  0.00    +0.000 A 
ATOM     18 CL   UNL     1      -3.549  13.194  20.306  0.00  0.00    +0.000 Cl
ATOM     19  C   UNL     1      -1.329  11.691  20.616  0.00  0.00    +0.000 A 
ENDBRANCH  10  13
ENDBRANCH   4   7
BRANCH   1  20
ATOM     20  S   UNL     1       3.928   3.518  17.977  0.00  0.00    +0.000 S 
ATOM     21  O   UNL     1       3.859   3.770  16.553  0.00  0.00    +0.000 OA
ATOM     22  O   UNL     1       3.336   2.327  18.549  0.00  0.00    +0.000 OA
BRANCH  20  27
ATOM     23  C   UNL     1       7.905   7.941  17.691  0.00  0.00    +0.000 C 
ATOM     24  C   UNL     1       7.327   6.586  17.690  0.00  0.00    +0.000 A 
ATOM     25  C   UNL     1       6.469   5.897  18.515  0.00  0.00    +0.000 A 
ATOM     26  C   UNL     1       6.315   4.647  17.884  0.00  0.00    +0.000 A 
ATOM     27  N   UNL     1       5.574   3.566  18.348  0.00  0.00    +0.000 N 
ATOM     28  N   UNL     1       7.051   4.561  16.773  0.00  0.00    +0.000 NA
ATOM     29  O   UNL     1       7.684   5.786  16.650  0.00  0.00    +0.000 OA
ATOM     30  H   UNL     1       5.672   3.348  19.339  0.00  0.00    +0.000 HD
ENDBRANCH  20  27
ENDBRANCH   1  20
TORSDOF 4
ENDMDL
MODEL 8
REMARK VINA RESULT:      -8.5      5.536      8.104
REMARK  Name = 
REMARK  5 active torsions:
REMARK  status: ('A' for Active; 'I' for Inactive)
REMARK    1  A    between atoms: C_1  and  C_2
REMARK    2  A    between atoms: N_5  and  S_6
REMARK    3  A    between atoms: S_6  and  C_9
REMARK    4  A    between atoms: C_12  and  N_13
REMARK    5  A    between atoms: N_16  and  C_17
REMARK                            x       y       z     vdW  Elec       q    Type
REMARK                         _______ _______ _______ _____ _____    ______ ____
ROOT
ATOM      1  C   UNL     1       6.667   5.774  17.744  0.00  0.00    +0.000 A 
ATOM      2  C   UNL     1       6.622   6.964  17.025  0.00  0.00    +0.000 A 
ATOM      3  C   UNL     1       7.421   8.038  17.423  0.00  0.00    +0.000 A 
ATOM      4  C   UNL     1       8.260   7.943  18.539  0.00  0.00    +0.000 A 
ATOM      5  C   UNL     1       8.331   6.725  19.231  0.00  0.00    +0.000 A 
ATOM      6  C   UNL     1       7.527   5.647  18.842  0.00  0.00    +0.000 A 
ENDROOT
BRANCH   4   7
ATOM      7  N   UNL     1       9.053   9.025  18.985  0.00  0.00    +0.000 N 
ATOM      8  C   UNL     1       9.035  10.285  18.415  0.00  0.00    +0.000 C 
ATOM      9  O   UNL     1       8.231  10.655  17.565  0.00  0.00    +0.000 OA
ATOM     10  N   UNL     1      10.061  11.087  18.903  0.00  0.00    +0.000 N 
ATOM     11  H   UNL     1       9.421   8.976  19.925  0.00  0.00    +0.000 HD
ATOM     12  H   UNL     1      10.909  10.580  19.111  0.00  0.00    +0.000 HD
BRANCH  10  13
ATOM     13  C   UNL     1      10.211  12.420  18.450  0.00  0.00    +0.000 A 
ATOM     14  C   UNL     1      11.027  12.732  17.355  0.00  0.00    +0.000 A 
ATOM     15  C   UNL     1      11.222  14.059  16.969  0.00  0.00    +0.000 A 
ATOM     16  C   UNL     1      10.609  15.084  17.685  0.00  0.00    +0.000 A 
ATOM     17  C   UNL     1       9.782  14.772  18.764  0.00  0.00    +0.000 A 
ATOM     18 CL   UNL     1       9.063  16.043  19.677  0.00  0.00    +0.000 Cl
ATOM     19  C   UNL     1       9.556  13.445  19.133  0.00  0.00    +0.000 A 
ENDBRANCH  10  13
ENDBRANCH   4   7
BRANCH   1  20
ATOM     20  S   UNL     1       5.663   4.385  17.299  0.00  0.00    +0.000 S 
ATOM     21  O   UNL     1       5.575   3.537  18.469  0.00  0.00    +0.000 OA
ATOM     22  O   UNL     1       6.156   3.865  16.041  0.00  0.00    +0.000 OA
BRANCH  20  27
ATOM     23  C   UNL     1       0.599   3.378  20.267  0.00  0.00    +0.000 C 
ATOM     24  C   UNL     1       1.531   3.712  19.176  0.00  0.00    +0.000 A 
ATOM     25  C   UNL     1       2.609   4.556  19.046  0.00  0.00    +0.000 A 
ATOM     26  C   UNL     1       3.056   4.343  17.727  0.00  0.00    +0.000 A 
ATOM     27  N   UNL     1       4.104   4.996  17.087  0.00  0.00    +0.000 N 
ATOM     28  N   UNL     1       2.288   3.461  17.083  0.00  0.00    +0.000 NA
ATOM     29  O   UNL     1       1.330   3.062  17.999  0.00  0.00    +0.000 OA
ATOM     30  H   UNL     1       4.149   6.005  17.219  0.00  0.00    +0.000 HD
ENDBRANCH  20  27
ENDBRANCH   1  20
TORSDOF 4
ENDMDL
MODEL 9
REMARK VINA RESULT:      -8.5      5.650      7.901
REMARK  Name = 
REMARK  5 active torsions:
REMARK  status: ('A' for Active; 'I' for Inactive)
REMARK    1  A    between atoms: C_1  and  C_2
REMARK    2  A    between atoms: N_5  and  S_6
REMARK    3  A    between atoms: S_6  and  C_9
REMARK    4  A    between atoms: C_12  and  N_13
REMARK    5  A    between atoms: N_16  and  C_17
REMARK                            x       y       z     vdW  Elec       q    Type
REMARK                         _______ _______ _______ _____ _____    ______ ____
ROOT
ATOM      1  C   UNL     1       5.924   5.369  17.309  0.00  0.00    +0.000 A 
ATOM      2  C   UNL     1       5.874   6.681  16.849  0.00  0.00    +0.000 A 
ATOM      3  C   UNL     1       6.792   7.615  17.336  0.00  0.00    +0.000 A 
ATOM      4  C   UNL     1       7.756   7.257  18.285  0.00  0.00    +0.000 A 
ATOM      5  C   UNL     1       7.826   5.922  18.710  0.00  0.00    +0.000 A 
ATOM      6  C   UNL     1       6.903   4.982  18.231  0.00  0.00    +0.000 A 
ENDROOT
BRANCH   4   7
ATOM      7  N   UNL     1       8.675   8.188  18.821  0.00  0.00    +0.000 N 
ATOM      8  C   UNL     1       8.698   9.531  18.489  0.00  0.00    +0.000 C 
ATOM      9  O   UNL     1       7.841  10.099  17.818  0.00  0.00    +0.000 OA
ATOM     10  N   UNL     1       9.829  10.167  18.989  0.00  0.00    +0.000 N 
ATOM     11  H   UNL     1       9.133   7.945  19.687  0.00  0.00    +0.000 HD
ATOM     12  H   UNL     1      10.651   9.581  19.004  0.00  0.00    +0.000 HD
BRANCH  10  13
ATOM     13  C   UNL     1      10.037  11.549  18.765  0.00  0.00    +0.000 A 
ATOM     14  C   UNL     1      10.672  12.014  17.606  0.00  0.00    +0.000 A 
ATOM     15  C   UNL     1      10.934  13.375  17.437  0.00  0.00    +0.000 A 
ATOM     16  C   UNL     1      10.573  14.277  18.434  0.00  0.00    +0.000 A 
ATOM     17  C   UNL     1       9.925  13.816  19.580  0.00  0.00    +0.000 A 
ATOM     18 CL   UNL     1       9.522  14.927  20.832  0.00  0.00    +0.000 Cl
ATOM     19  C   UNL     1       9.628  12.461  19.739  0.00  0.00    +0.000 A 
ENDBRANCH  10  13
ENDBRANCH   4   7
BRANCH   1  20
ATOM     20  S   UNL     1       4.774   4.147  16.743  0.00  0.00    +0.000 S 
ATOM     21  O   UNL     1       4.991   2.961  17.547  0.00  0.00    +0.000 OA
ATOM     22  O   UNL     1       4.860   4.089  15.300  0.00  0.00    +0.000 OA
BRANCH  20  27
ATOM     23  C   UNL     1       1.311   2.809  21.399  0.00  0.00    +0.000 C 
ATOM     24  C   UNL     1       1.731   3.230  20.052  0.00  0.00    +0.000 A 
ATOM     25  C   UNL     1       2.656   4.120  19.558  0.00  0.00    +0.000 A 
ATOM     26  C   UNL     1       2.549   3.986  18.159  0.00  0.00    +0.000 A 
ATOM     27  N   UNL     1       3.248   4.707  17.198  0.00  0.00    +0.000 N 
ATOM     28  N   UNL     1       1.604   3.106  17.819  0.00  0.00    +0.000 NA
ATOM     29  O   UNL     1       1.092   2.628  19.013  0.00  0.00    +0.000 OA
ATOM     30  H   UNL     1       3.325   5.710  17.360  0.00  0.00    +0.000 HD
ENDBRANCH  20  27
ENDBRANCH   1  20
TORSDOF 4
ENDMDL
