MODEL 1
REMARK VINA RESULT:      -7.1      0.000      0.000
REMARK  Name = 
REMARK  6 active torsions:
REMARK  status: ('A' for Active; 'I' for Inactive)
REMARK    1  A    between atoms: C_1  and  C_2
REMARK    2  A    between atoms: C_2  and  C_3
REMARK    3  A    between atoms: C_2  and  N_4
REMARK    4  A    between atoms: C_7  and  N_8
REMARK    5  A    between atoms: N_11  and  C_12
REMARK    6  A    between atoms: C_12  and  C_13
REMARK                            x       y       z     vdW  Elec       q    Type
REMARK                         _______ _______ _______ _____ _____    ______ ____
ROOT
ATOM      1  N   UNL     1       5.064   4.757  17.055  0.00  0.00    +0.000 N 
ATOM      2  C   UNL     1       5.606   5.196  15.874  0.00  0.00    +0.000 C 
ATOM      3  O   UNL     1       5.608   6.366  15.525  0.00  0.00    +0.000 OA
ATOM      4  N   UNL     1       6.157   4.178  15.139  0.00  0.00    +0.000 N 
ATOM      5  H   UNL     1       5.381   3.855  17.378  0.00  0.00    +0.000 HD
ATOM      6  H   UNL     1       5.783   3.255  15.285  0.00  0.00    +0.000 HD
ENDROOT
BRANCH   1  10
ATOM      7  N   UNL     1       2.244   4.491  19.427  0.00  0.00    +0.000 NA
ATOM      8  C   UNL     1       3.615   4.052  19.720  0.00  0.00    +0.000 C 
ATOM      9  C   UNL     1       4.629   5.169  19.482  0.00  0.00    +0.000 C 
ATOM     10  C   UNL     1       4.553   5.708  18.051  0.00  0.00    +0.000 C 
ATOM     11  C   UNL     1       3.118   6.121  17.746  0.00  0.00    +0.000 C 
ATOM     12  C   UNL     1       2.113   5.009  18.056  0.00  0.00    +0.000 C 
BRANCH   7  14
ATOM     13  C   UNL     1       1.081   2.324  18.746  0.00  0.00    +0.000 C 
ATOM     14  C   UNL     1       1.204   3.483  19.746  0.00  0.00    +0.000 C 
ATOM     15  C   UNL     1       1.390   2.914  21.161  0.00  0.00    +0.000 C 
ENDBRANCH   7  14
ENDBRANCH   1  10
BRANCH   4  16
ATOM     16  C   UNL     1       6.700   4.463  13.826  0.00  0.00    +0.000 C 
BRANCH  16  17
ATOM     17  C   UNL     1       6.046   3.627  12.757  0.00  0.00    +0.000 A 
ATOM     18  C   UNL     1       4.712   3.831  12.378  0.00  0.00    +0.000 A 
ATOM     19  C   UNL     1       4.134   3.040  11.380  0.00  0.00    +0.000 A 
ATOM     20  C   UNL     1       4.879   2.039  10.758  0.00  0.00    +0.000 A 
ATOM     21  C   UNL     1       6.204   1.827  11.128  0.00  0.00    +0.000 A 
ATOM     22  C   UNL     1       6.784   2.614  12.124  0.00  0.00    +0.000 A 
ENDBRANCH  16  17
ENDBRANCH   4  16
TORSDOF 4
ENDMDL
MODEL 2
REMARK VINA RESULT:      -7.0      0.443      1.410
REMARK  Name = 
REMARK  6 active torsions:
REMARK  status: ('A' for Active; 'I' for Inactive)
REMARK    1  A    between atoms: C_1  and  C_2
REMARK    2  A    between atoms: C_2  and  C_3
REMARK    3  A    between atoms: C_2  and  N_4
REMARK    4  A    between atoms: C_7  and  N_8
REMARK    5  A    between atoms: N_11  and  C_12
REMARK    6  A    between atoms: C_12  and  C_13
REMARK                            x       y       z     vdW  Elec       q    Type
REMARK                         _______ _______ _______ _____ _____    ______ ____
ROOT
ATOM      1  N   UNL     1       5.407   4.711  16.953  0.00  0.00    +0.000 N 
ATOM      2  C   UNL     1       5.772   5.185  15.718  0.00  0.00    +0.000 C 
ATOM      3  O   UNL     1       5.474   6.294  15.305  0.00  0.00    +0.000 OA
ATOM      4  N   UNL     1       6.520   4.281  15.009  0.00  0.00    +0.000 N 
ATOM      5  H   UNL     1       5.948   3.937  17.306  0.00  0.00    +0.000 HD
ATOM      6  H   UNL     1       6.389   3.307  15.229  0.00  0.00    +0.000 HD
ENDROOT
BRANCH   1  10
ATOM      7  N   UNL     1       2.782   3.959  19.440  0.00  0.00    +0.000 NA
ATOM      8  C   UNL     1       4.223   3.848  19.700  0.00  0.00    +0.000 C 
ATOM      9  C   UNL     1       4.958   5.146  19.373  0.00  0.00    +0.000 C 
ATOM     10  C   UNL     1       4.726   5.578  17.923  0.00  0.00    +0.000 C 
ATOM     11  C   UNL     1       3.227   5.650  17.655  0.00  0.00    +0.000 C 
ATOM     12  C   UNL     1       2.502   4.362  18.053  0.00  0.00    +0.000 C 
BRANCH   7  14
ATOM     13  C   UNL     1       1.344   2.848  21.232  0.00  0.00    +0.000 C 
ATOM     14  C   UNL     1       1.999   2.766  19.845  0.00  0.00    +0.000 C 
ATOM     15  C   UNL     1       0.929   2.416  18.800  0.00  0.00    +0.000 C 
ENDBRANCH   7  14
ENDBRANCH   1  10
BRANCH   4  16
ATOM     16  C   UNL     1       6.918   4.597  13.651  0.00  0.00    +0.000 C 
BRANCH  16  17
ATOM     17  C   UNL     1       6.271   3.674  12.652  0.00  0.00    +0.000 A 
ATOM     18  C   UNL     1       6.993   2.652  12.021  0.00  0.00    +0.000 A 
ATOM     19  C   UNL     1       6.364   1.808  11.099  0.00  0.00    +0.000 A 
ATOM     20  C   UNL     1       5.014   1.981  10.799  0.00  0.00    +0.000 A 
ATOM     21  C   UNL     1       4.287   2.995  11.419  0.00  0.00    +0.000 A 
ATOM     22  C   UNL     1       4.913   3.838  12.338  0.00  0.00    +0.000 A 
ENDBRANCH  16  17
ENDBRANCH   4  16
TORSDOF 4
ENDMDL
MODEL 3
REMARK VINA RESULT:      -7.0      0.568      1.004
REMARK  Name = 
REMARK  6 active torsions:
REMARK  status: ('A' for Active; 'I' for Inactive)
REMARK    1  A    between atoms: C_1  and  C_2
REMARK    2  A    between atoms: C_2  and  C_3
REMARK    3  A    between atoms: C_2  and  N_4
REMARK    4  A    between atoms: C_7  and  N_8
REMARK    5  A    between atoms: N_11  and  C_12
REMARK    6  A    between atoms: C_12  and  C_13
REMARK                            x       y       z     vdW  Elec       q    Type
REMARK                         _______ _______ _______ _____ _____    ______ ____
ROOT
ATOM      1  N   UNL     1       5.308   4.782  16.914  0.00  0.00    +0.000 N 
ATOM      2  C   UNL     1       5.675   5.288  15.693  0.00  0.00    +0.000 C 
ATOM      3  O   UNL     1       5.381   6.409  15.311  0.00  0.00    +0.000 OA
ATOM      4  N   UNL     1       6.420   4.401  14.960  0.00  0.00    +0.000 N 
ATOM      5  H   UNL     1       5.846   3.996  17.246  0.00  0.00    +0.000 HD
ATOM      6  H   UNL     1       6.285   3.421  15.153  0.00  0.00    +0.000 HD
ENDROOT
BRANCH   1  10
ATOM      7  N   UNL     1       2.735   3.955  19.432  0.00  0.00    +0.000 NA
ATOM      8  C   UNL     1       4.182   3.862  19.668  0.00  0.00    +0.000 C 
ATOM      9  C   UNL     1       4.893   5.175  19.348  0.00  0.00    +0.000 C 
ATOM     10  C   UNL     1       4.630   5.625  17.908  0.00  0.00    +0.000 C 
ATOM     11  C   UNL     1       3.127   5.678  17.665  0.00  0.00    +0.000 C 
ATOM     12  C   UNL     1       2.427   4.375  18.056  0.00  0.00    +0.000 C 
BRANCH   7  14
ATOM     13  C   UNL     1       1.418   2.761  21.263  0.00  0.00    +0.000 C 
ATOM     14  C   UNL     1       1.976   2.745  19.832  0.00  0.00    +0.000 C 
ATOM     15  C   UNL     1       0.835   2.448  18.847  0.00  0.00    +0.000 C 
ENDBRANCH   7  14
ENDBRANCH   1  10
BRANCH   4  16
ATOM     16  C   UNL     1       6.819   4.751  13.611  0.00  0.00    +0.000 C 
BRANCH  16  17
ATOM     17  C   UNL     1       6.463   3.670  12.625  0.00  0.00    +0.000 A 
ATOM     18  C   UNL     1       5.131   3.371  12.310  0.00  0.00    +0.000 A 
ATOM     19  C   UNL     1       4.833   2.363  11.387  0.00  0.00    +0.000 A 
ATOM     20  C   UNL     1       5.859   1.646  10.776  0.00  0.00    +0.000 A 
ATOM     21  C   UNL     1       7.187   1.934  11.082  0.00  0.00    +0.000 A 
ATOM     22  C   UNL     1       7.488   2.938  12.003  0.00  0.00    +0.000 A 
ENDBRANCH  16  17
ENDBRANCH   4  16
TORSDOF 4
ENDMDL
MODEL 4
REMARK VINA RESULT:      -7.0      0.454      1.169
REMARK  Name = 
REMARK  6 active torsions:
REMARK  status: ('A' for Active; 'I' for Inactive)
REMARK    1  A    between atoms: C_1  and  C_2
REMARK    2  A    between atoms: C_2  and  C_3
REMARK    3  A    between atoms: C_2  and  N_4
REMARK    4  A    between atoms: C_7  and  N_8
REMARK    5  A    between atoms: N_11  and  C_12
REMARK    6  A    between atoms: C_12  and  C_13
REMARK                            x       y       z     vdW  Elec       q    Type
REMARK                         _______ _______ _______ _____ _____    ______ ____
ROOT
ATOM      1  N   UNL     1       4.905   4.889  16.900  0.00  0.00    +0.000 N 
ATOM      2  C   UNL     1       5.530   5.381  15.782  0.00  0.00    +0.000 C 
ATOM      3  O   UNL     1       5.713   6.570  15.580  0.00  0.00    +0.000 OA
ATOM      4  N   UNL     1       5.937   4.388  14.929  0.00  0.00    +0.000 N 
ATOM      5  H   UNL     1       5.078   3.917  17.111  0.00  0.00    +0.000 HD
ATOM      6  H   UNL     1       5.426   3.521  14.960  0.00  0.00    +0.000 HD
ENDROOT
BRANCH   1  10
ATOM      7  N   UNL     1       2.252   4.571  19.450  0.00  0.00    +0.000 NA
ATOM      8  C   UNL     1       3.612   4.039  19.603  0.00  0.00    +0.000 C 
ATOM      9  C   UNL     1       4.670   5.118  19.379  0.00  0.00    +0.000 C 
ATOM     10  C   UNL     1       4.523   5.778  18.005  0.00  0.00    +0.000 C 
ATOM     11  C   UNL     1       3.096   6.289  17.844  0.00  0.00    +0.000 C 
ATOM     12  C   UNL     1       2.053   5.208  18.140  0.00  0.00    +0.000 C 
BRANCH   7  14
ATOM     13  C   UNL     1       0.988   2.472  18.737  0.00  0.00    +0.000 C 
ATOM     14  C   UNL     1       1.180   3.595  19.767  0.00  0.00    +0.000 C 
ATOM     15  C   UNL     1       1.378   2.978  21.160  0.00  0.00    +0.000 C 
ENDBRANCH   7  14
ENDBRANCH   1  10
BRANCH   4  16
ATOM     16  C   UNL     1       6.542   4.745  13.661  0.00  0.00    +0.000 C 
BRANCH  16  17
ATOM     17  C   UNL     1       6.401   3.642  12.645  0.00  0.00    +0.000 A 
ATOM     18  C   UNL     1       7.520   3.053  12.040  0.00  0.00    +0.000 A 
ATOM     19  C   UNL     1       7.357   2.027  11.103  0.00  0.00    +0.000 A 
ATOM     20  C   UNL     1       6.080   1.586  10.760  0.00  0.00    +0.000 A 
ATOM     21  C   UNL     1       4.962   2.166  11.354  0.00  0.00    +0.000 A 
ATOM     22  C   UNL     1       5.121   3.189  12.289  0.00  0.00    +0.000 A 
ENDBRANCH  16  17
ENDBRANCH   4  16
TORSDOF 4
ENDMDL
MODEL 5
REMARK VINA RESULT:      -6.9      5.429      7.652
REMARK  Name = 
REMARK  6 active torsions:
REMARK  status: ('A' for Active; 'I' for Inactive)
REMARK    1  A    between atoms: C_1  and  C_2
REMARK    2  A    between atoms: C_2  and  C_3
REMARK    3  A    between atoms: C_2  and  N_4
REMARK    4  A    between atoms: C_7  and  N_8
REMARK    5  A    between atoms: N_11  and  C_12
REMARK    6  A    between atoms: C_12  and  C_13
REMARK                            x       y       z     vdW  Elec       q    Type
REMARK                         _______ _______ _______ _____ _____    ______ ____
ROOT
ATOM      1  N   UNL     1       7.227   7.297  17.071  0.00  0.00    +0.000 N 
ATOM      2  C   UNL     1       8.037   7.830  18.042  0.00  0.00    +0.000 C 
ATOM      3  O   UNL     1       8.580   7.165  18.909  0.00  0.00    +0.000 OA
ATOM      4  N   UNL     1       8.179   9.188  17.919  0.00  0.00    +0.000 N 
ATOM      5  H   UNL     1       7.088   7.867  16.251  0.00  0.00    +0.000 HD
ATOM      6  H   UNL     1       7.431   9.687  17.465  0.00  0.00    +0.000 HD
ENDROOT
BRANCH   1  10
ATOM      7  N   UNL     1       4.344   5.114  17.822  0.00  0.00    +0.000 NA
ATOM      8  C   UNL     1       4.566   5.773  16.529  0.00  0.00    +0.000 C 
ATOM      9  C   UNL     1       5.949   5.457  15.963  0.00  0.00    +0.000 C 
ATOM     10  C   UNL     1       7.063   5.843  16.940  0.00  0.00    +0.000 C 
ATOM     11  C   UNL     1       6.798   5.186  18.289  0.00  0.00    +0.000 C 
ATOM     12  C   UNL     1       5.383   5.461  18.804  0.00  0.00    +0.000 C 
BRANCH   7  14
ATOM     13  C   UNL     1       2.431   6.728  18.316  0.00  0.00    +0.000 C 
ATOM     14  C   UNL     1       2.976   5.293  18.368  0.00  0.00    +0.000 C 
ATOM     15  C   UNL     1       1.974   4.345  17.692  0.00  0.00    +0.000 C 
ENDBRANCH   7  14
ENDBRANCH   1  10
BRANCH   4  16
ATOM     16  C   UNL     1       8.939   9.917  18.916  0.00  0.00    +0.000 C 
BRANCH  16  17
ATOM     17  C   UNL     1       9.559  11.165  18.344  0.00  0.00    +0.000 A 
ATOM     18  C   UNL     1       8.775  12.243  17.911  0.00  0.00    +0.000 A 
ATOM     19  C   UNL     1       9.380  13.390  17.388  0.00  0.00    +0.000 A 
ATOM     20  C   UNL     1      10.769  13.467  17.290  0.00  0.00    +0.000 A 
ATOM     21  C   UNL     1      11.557  12.401  17.715  0.00  0.00    +0.000 A 
ATOM     22  C   UNL     1      10.956  11.255  18.237  0.00  0.00    +0.000 A 
ENDBRANCH  16  17
ENDBRANCH   4  16
TORSDOF 4
ENDMDL
MODEL 6
REMARK VINA RESULT:      -6.8      5.442      7.662
REMARK  Name = 
REMARK  6 active torsions:
REMARK  status: ('A' for Active; 'I' for Inactive)
REMARK    1  A    between atoms: C_1  and  C_2
REMARK    2  A    between atoms: C_2  and  C_3
REMARK    3  A    between atoms: C_2  and  N_4
REMARK    4  A    between atoms: C_7  and  N_8
REMARK    5  A    between atoms: N_11  and  C_12
REMARK    6  A    between atoms: C_12  and  C_13
REMARK                            x       y       z     vdW  Elec       q    Type
REMARK                         _______ _______ _______ _____ _____    ______ ____
ROOT
ATOM      1  N   UNL     1       7.178   7.362  17.092  0.00  0.00    +0.000 N 
ATOM      2  C   UNL     1       8.016   7.868  18.052  0.00  0.00    +0.000 C 
ATOM      3  O   UNL     1       8.582   7.179  18.886  0.00  0.00    +0.000 OA
ATOM      4  N   UNL     1       8.159   9.228  17.961  0.00  0.00    +0.000 N 
ATOM      5  H   UNL     1       7.017   7.954  16.291  0.00  0.00    +0.000 HD
ATOM      6  H   UNL     1       7.400   9.740  17.542  0.00  0.00    +0.000 HD
ENDROOT
BRANCH   1  10
ATOM      7  N   UNL     1       4.305   5.168  17.853  0.00  0.00    +0.000 NA
ATOM      8  C   UNL     1       4.500   5.860  16.573  0.00  0.00    +0.000 C 
ATOM      9  C   UNL     1       5.868   5.554  15.967  0.00  0.00    +0.000 C 
ATOM     10  C   UNL     1       7.005   5.913  16.927  0.00  0.00    +0.000 C 
ATOM     11  C   UNL     1       6.769   5.221  18.265  0.00  0.00    +0.000 C 
ATOM     12  C   UNL     1       5.368   5.488  18.819  0.00  0.00    +0.000 C 
BRANCH   7  14
ATOM     13  C   UNL     1       1.845   4.491  17.786  0.00  0.00    +0.000 C 
ATOM     14  C   UNL     1       2.951   5.338  18.435  0.00  0.00    +0.000 C 
ATOM     15  C   UNL     1       2.956   5.089  19.951  0.00  0.00    +0.000 C 
ENDBRANCH   7  14
ENDBRANCH   1  10
BRANCH   4  16
ATOM     16  C   UNL     1       8.948   9.929  18.955  0.00  0.00    +0.000 C 
BRANCH  16  17
ATOM     17  C   UNL     1       9.626  11.143  18.375  0.00  0.00    +0.000 A 
ATOM     18  C   UNL     1      11.020  11.218  18.253  0.00  0.00    +0.000 A 
ATOM     19  C   UNL     1      11.620  12.357  17.707  0.00  0.00    +0.000 A 
ATOM     20  C   UNL     1      10.836  13.429  17.285  0.00  0.00    +0.000 A 
ATOM     21  C   UNL     1       9.450  13.366  17.404  0.00  0.00    +0.000 A 
ATOM     22  C   UNL     1       8.848  12.231  17.948  0.00  0.00    +0.000 A 
ENDBRANCH  16  17
ENDBRANCH   4  16
TORSDOF 4
ENDMDL
MODEL 7
REMARK VINA RESULT:      -6.7      5.648      8.135
REMARK  Name = 
REMARK  6 active torsions:
REMARK  status: ('A' for Active; 'I' for Inactive)
REMARK    1  A    between atoms: C_1  and  C_2
REMARK    2  A    between atoms: C_2  and  C_3
REMARK    3  A    between atoms: C_2  and  N_4
REMARK    4  A    between atoms: C_7  and  N_8
REMARK    5  A    between atoms: N_11  and  C_12
REMARK    6  A    between atoms: C_12  and  C_13
REMARK                            x       y       z     vdW  Elec       q    Type
REMARK                         _______ _______ _______ _____ _____    ______ ____
ROOT
ATOM      1  N   UNL     1       1.153   9.703  19.327  0.00  0.00    +0.000 N 
ATOM      2  C   UNL     1       1.853   8.769  18.607  0.00  0.00    +0.000 C 
ATOM      3  O   UNL     1       2.151   8.908  17.431  0.00  0.00    +0.000 OA
ATOM      4  N   UNL     1       2.194   7.674  19.358  0.00  0.00    +0.000 N 
ATOM      5  H   UNL     1       1.229   9.635  20.331  0.00  0.00    +0.000 HD
ATOM      6  H   UNL     1       1.605   7.460  20.147  0.00  0.00    +0.000 HD
ENDROOT
BRANCH   1  10
ATOM      7  N   UNL     1      -0.870  12.493  20.658  0.00  0.00    +0.000 NA
ATOM      8  C   UNL     1       0.571  12.333  20.891  0.00  0.00    +0.000 C 
ATOM      9  C   UNL     1       1.343  12.183  19.581  0.00  0.00    +0.000 C 
ATOM     10  C   UNL     1       0.820  11.011  18.747  0.00  0.00    +0.000 C 
ATOM     11  C   UNL     1      -0.683  11.168  18.547  0.00  0.00    +0.000 C 
ATOM     12  C   UNL     1      -1.427  11.384  19.867  0.00  0.00    +0.000 C 
BRANCH   7  14
ATOM     13  C   UNL     1      -3.174  12.884  21.682  0.00  0.00    +0.000 C 
ATOM     14  C   UNL     1      -1.657  12.756  21.887  0.00  0.00    +0.000 C 
ATOM     15  C   UNL     1      -1.380  11.699  22.967  0.00  0.00    +0.000 C 
ENDBRANCH   7  14
ENDBRANCH   1  10
BRANCH   4  16
ATOM     16  C   UNL     1       2.867   6.558  18.724  0.00  0.00    +0.000 C 
BRANCH  16  17
ATOM     17  C   UNL     1       2.193   5.248  19.036  0.00  0.00    +0.000 A 
ATOM     18  C   UNL     1       1.752   4.939  20.330  0.00  0.00    +0.000 A 
ATOM     19  C   UNL     1       1.125   3.715  20.588  0.00  0.00    +0.000 A 
ATOM     20  C   UNL     1       0.939   2.792  19.560  0.00  0.00    +0.000 A 
ATOM     21  C   UNL     1       1.376   3.088  18.271  0.00  0.00    +0.000 A 
ATOM     22  C   UNL     1       2.001   4.308  18.011  0.00  0.00    +0.000 A 
ENDBRANCH  16  17
ENDBRANCH   4  16
TORSDOF 4
ENDMDL
MODEL 8
REMARK VINA RESULT:      -6.6      1.042      1.076
REMARK  Name = 
REMARK  6 active torsions:
REMARK  status: ('A' for Active; 'I' for Inactive)
REMARK    1  A    between atoms: C_1  and  C_2
REMARK    2  A    between atoms: C_2  and  C_3
REMARK    3  A    between atoms: C_2  and  N_4
REMARK    4  A    between atoms: C_7  and  N_8
REMARK    5  A    between atoms: N_11  and  C_12
REMARK    6  A    between atoms: C_12  and  C_13
REMARK                            x       y       z     vdW  Elec       q    Type
REMARK                         _______ _______ _______ _____ _____    ______ ____
ROOT
ATOM      1  N   UNL     1       6.172   4.994  16.784  0.00  0.00    +0.000 N 
ATOM      2  C   UNL     1       6.213   5.422  15.481  0.00  0.00    +0.000 C 
ATOM      3  O   UNL     1       5.632   6.417  15.079  0.00  0.00    +0.000 OA
ATOM      4  N   UNL     1       6.991   4.618  14.689  0.00  0.00    +0.000 N 
ATOM      5  H   UNL     1       6.910   4.367  17.066  0.00  0.00    +0.000 HD
ATOM      6  H   UNL     1       7.098   3.659  14.976  0.00  0.00    +0.000 HD
ENDROOT
BRANCH   1  10
ATOM      7  N   UNL     1       3.400   4.167  19.080  0.00  0.00    +0.000 NA
ATOM      8  C   UNL     1       4.817   3.922  19.375  0.00  0.00    +0.000 C 
ATOM      9  C   UNL     1       5.654   5.191  19.222  0.00  0.00    +0.000 C 
ATOM     10  C   UNL     1       5.512   5.796  17.823  0.00  0.00    +0.000 C 
ATOM     11  C   UNL     1       4.035   6.006  17.513  0.00  0.00    +0.000 C 
ATOM     12  C   UNL     1       3.207   4.739  17.739  0.00  0.00    +0.000 C 
BRANCH   7  14
ATOM     13  C   UNL     1       2.990   1.678  18.689  0.00  0.00    +0.000 C 
ATOM     14  C   UNL     1       2.520   2.997  19.321  0.00  0.00    +0.000 C 
ATOM     15  C   UNL     1       2.274   2.780  20.822  0.00  0.00    +0.000 C 
ENDBRANCH   7  14
ENDBRANCH   1  10
BRANCH   4  16
ATOM     16  C   UNL     1       7.073   4.887  13.267  0.00  0.00    +0.000 C 
BRANCH  16  17
ATOM     17  C   UNL     1       6.608   3.711  12.448  0.00  0.00    +0.000 A 
ATOM     18  C   UNL     1       5.246   3.439  12.260  0.00  0.00    +0.000 A 
ATOM     19  C   UNL     1       4.846   2.342  11.491  0.00  0.00    +0.000 A 
ATOM     20  C   UNL     1       5.799   1.507  10.910  0.00  0.00    +0.000 A 
ATOM     21  C   UNL     1       7.155   1.767  11.093  0.00  0.00    +0.000 A 
ATOM     22  C   UNL     1       7.558   2.861  11.859  0.00  0.00    +0.000 A 
ENDBRANCH  16  17
ENDBRANCH   4  16
TORSDOF 4
ENDMDL
MODEL 9
REMARK VINA RESULT:      -6.6      4.080      8.581
REMARK  Name = 
REMARK  6 active torsions:
REMARK  status: ('A' for Active; 'I' for Inactive)
REMARK    1  A    between atoms: C_1  and  C_2
REMARK    2  A    between atoms: C_2  and  C_3
REMARK    3  A    between atoms: C_2  and  N_4
REMARK    4  A    between atoms: C_7  and  N_8
REMARK    5  A    between atoms: N_11  and  C_12
REMARK    6  A    between atoms: C_12  and  C_13
REMARK                            x       y       z     vdW  Elec       q    Type
REMARK                         _______ _______ _______ _____ _____    ______ ____
ROOT
ATOM      1  N   UNL     1       2.858   5.631  18.941  0.00  0.00    +0.000 N 
ATOM      2  C   UNL     1       2.234   6.001  20.106  0.00  0.00    +0.000 C 
ATOM      3  O   UNL     1       1.906   5.211  20.977  0.00  0.00    +0.000 OA
ATOM      4  N   UNL     1       2.035   7.355  20.187  0.00  0.00    +0.000 N 
ATOM      5  H   UNL     1       3.348   6.365  18.451  0.00  0.00    +0.000 HD
ATOM      6  H   UNL     1       1.964   7.860  19.319  0.00  0.00    +0.000 HD
ENDROOT
BRANCH   1  10
ATOM      7  N   UNL     1       5.851   4.271  17.257  0.00  0.00    +0.000 NA
ATOM      8  C   UNL     1       5.794   4.626  18.681  0.00  0.00    +0.000 C 
ATOM      9  C   UNL     1       4.633   3.930  19.391  0.00  0.00    +0.000 C 
ATOM     10  C   UNL     1       3.292   4.245  18.724  0.00  0.00    +0.000 C 
ATOM     11  C   UNL     1       3.378   3.912  17.239  0.00  0.00    +0.000 C 
ATOM     12  C   UNL     1       4.587   4.565  16.565  0.00  0.00    +0.000 C 
BRANCH   7  14
ATOM     13  C   UNL     1       6.948   4.771  15.008  0.00  0.00    +0.000 C 
ATOM     14  C   UNL     1       7.024   4.829  16.541  0.00  0.00    +0.000 C 
ATOM     15  C   UNL     1       7.316   6.272  16.980  0.00  0.00    +0.000 C 
ENDBRANCH   7  14
ENDBRANCH   1  10
BRANCH   4  16
ATOM     16  C   UNL     1       1.313   7.901  21.320  0.00  0.00    +0.000 C 
BRANCH  16  17
ATOM     17  C   UNL     1       0.606   9.183  20.967  0.00  0.00    +0.000 A 
ATOM     18  C   UNL     1       0.624   9.697  19.663  0.00  0.00    +0.000 A 
ATOM     19  C   UNL     1      -0.045  10.889  19.366  0.00  0.00    +0.000 A 
ATOM     20  C   UNL     1      -0.732  11.576  20.365  0.00  0.00    +0.000 A 
ATOM     21  C   UNL     1      -0.755  11.075  21.664  0.00  0.00    +0.000 A 
ATOM     22  C   UNL     1      -0.088   9.887  21.964  0.00  0.00    +0.000 A 
ENDBRANCH  16  17
ENDBRANCH   4  16
TORSDOF 4
ENDMDL
