MODEL 1
REMARK VINA RESULT:      -7.6      0.000      0.000
REMARK  Name = 
REMARK  11 active torsions:
REMARK  status: ('A' for Active; 'I' for Inactive)
REMARK    1  A    between atoms: C_1  and  C_2
REMARK    2  A    between atoms: C_2  and  C_3
REMARK    3  A    between atoms: C_3  and  O_4
REMARK    4  A    between atoms: O_4  and  C_5
REMARK    5  A    between atoms: C_9  and  C_10
REMARK    6  A    between atoms: C_10  and  C_11
REMARK    7  A    between atoms: C_14  and  C_15
REMARK    8  A    between atoms: C_23  and  N_24
REMARK    9  A    between atoms: N_24  and  C_25
REMARK   10  A    between atoms: C_28  and  O_29
REMARK   11  A    between atoms: O_29  and  C_30
REMARK                            x       y       z     vdW  Elec       q    Type
REMARK                         _______ _______ _______ _____ _____    ______ ____
ROOT
ATOM      1  C   UNL     1       3.821   4.585  18.140  0.00  0.00    +0.000 A 
ATOM      2  N   UNL     1       3.477   3.308  17.770  0.00  0.00    +0.000 NA
ATOM      3  C   UNL     1       2.405   3.018  18.479  0.00  0.00    +0.000 A 
ATOM      4  C   UNL     1       1.621   1.828  18.538  0.00  0.00    +0.000 A 
ATOM      5  C   UNL     1       0.565   1.755  19.371  0.00  0.00    +0.000 A 
ATOM      6  C   UNL     1       0.206   2.865  20.236  0.00  0.00    +0.000 A 
ATOM      7  C   UNL     1       0.951   3.981  20.201  0.00  0.00    +0.000 A 
ATOM      8  N   UNL     1       2.030   4.073  19.314  0.00  0.00    +0.000 N 
ATOM      9  C   UNL     1       2.940   5.099  19.086  0.00  0.00    +0.000 A 
ENDROOT
BRANCH   1  16
ATOM     10  C   UNL     1       6.211   4.086  14.167  0.00  0.00    +0.000 A 
ATOM     11  C   UNL     1       7.353   4.991  14.115  0.00  0.00    +0.000 A 
ATOM     12  C   UNL     1       7.556   5.853  15.123  0.00  0.00    +0.000 A 
ATOM     13  N   UNL     1       6.697   5.880  16.223  0.00  0.00    +0.000 N 
ATOM     14  C   UNL     1       6.745   6.699  17.350  0.00  0.00    +0.000 A 
ATOM     15  C   UNL     1       5.670   6.328  18.146  0.00  0.00    +0.000 A 
ATOM     16  C   UNL     1       4.982   5.248  17.534  0.00  0.00    +0.000 A 
ATOM     17  C   UNL     1       5.606   5.011  16.325  0.00  0.00    +0.000 A 
ATOM     18  C   UNL     1       5.386   4.101  15.237  0.00  0.00    +0.000 A 
BRANCH  14  19
ATOM     19  C   UNL     1       7.751   7.730  17.589  0.00  0.00    +0.000 C 
ATOM     20  C   UNL     1       8.571   7.677  18.857  0.00  0.00    +0.000 C 
ATOM     21  O   UNL     1       7.987   8.649  16.802  0.00  0.00    +0.000 OA
ENDBRANCH  14  19
BRANCH  10  22
ATOM     22  O   UNL     1       5.965   3.206  13.121  0.00  0.00    +0.000 OA
BRANCH  22  23
ATOM     23  C   UNL     1       5.492   3.759  11.891  0.00  0.00    +0.000 C 
BRANCH  23  25
ATOM     24  C   UNL     1       3.448   3.731  10.443  0.00  0.00    +0.000 C 
ATOM     25  C   UNL     1       4.370   2.899  11.324  0.00  0.00    +0.000 C 
ENDBRANCH  23  25
ENDBRANCH  22  23
ENDBRANCH  10  22
ENDBRANCH   1  16
BRANCH   9  26
ATOM     26  N   UNL     1       2.981   6.259  19.804  0.00  0.00    +0.000 N 
ATOM     27  H   UNL     1       3.843   6.455  20.311  0.00  0.00    +0.000 HD
BRANCH  26  28
ATOM     28  C   UNL     1       2.239   7.443  19.598  0.00  0.00    +0.000 A 
ATOM     29  C   UNL     1       2.330   8.062  18.344  0.00  0.00    +0.000 A 
ATOM     30  C   UNL     1       1.715   9.293  18.101  0.00  0.00    +0.000 A 
ATOM     31  C   UNL     1       0.983   9.924  19.105  0.00  0.00    +0.000 A 
ATOM     32  C   UNL     1       0.887   9.325  20.359  0.00  0.00    +0.000 A 
ATOM     33  C   UNL     1       1.508   8.091  20.600  0.00  0.00    +0.000 A 
BRANCH  31  34
ATOM     34  O   UNL     1       0.451  11.137  18.767  0.00  0.00    +0.000 OA
ATOM     35  C   UNL     1       1.371  12.222  18.760  0.00  0.00    +0.000 C 
ENDBRANCH  31  34
ENDBRANCH  26  28
ENDBRANCH   9  26
TORSDOF 8
ENDMDL
MODEL 2
REMARK VINA RESULT:      -7.5      3.178      6.057
REMARK  Name = 
REMARK  11 active torsions:
REMARK  status: ('A' for Active; 'I' for Inactive)
REMARK    1  A    between atoms: C_1  and  C_2
REMARK    2  A    between atoms: C_2  and  C_3
REMARK    3  A    between atoms: C_3  and  O_4
REMARK    4  A    between atoms: O_4  and  C_5
REMARK    5  A    between atoms: C_9  and  C_10
REMARK    6  A    between atoms: C_10  and  C_11
REMARK    7  A    between atoms: C_14  and  C_15
REMARK    8  A    between atoms: C_23  and  N_24
REMARK    9  A    between atoms: N_24  and  C_25
REMARK   10  A    between atoms: C_28  and  O_29
REMARK   11  A    between atoms: O_29  and  C_30
REMARK                            x       y       z     vdW  Elec       q    Type
REMARK                         _______ _______ _______ _____ _____    ______ ____
ROOT
ATOM      1  C   UNL     1       1.689   8.191  19.684  0.00  0.00    +0.000 A 
ATOM      2  N   UNL     1       1.734   7.967  21.038  0.00  0.00    +0.000 NA
ATOM      3  C   UNL     1       0.897   8.841  21.562  0.00  0.00    +0.000 A 
ATOM      4  C   UNL     1       0.548   9.096  22.920  0.00  0.00    +0.000 A 
ATOM      5  C   UNL     1      -0.328  10.074  23.220  0.00  0.00    +0.000 A 
ATOM      6  C   UNL     1      -0.925  10.899  22.185  0.00  0.00    +0.000 A 
ATOM      7  C   UNL     1      -0.586  10.678  20.905  0.00  0.00    +0.000 A 
ATOM      8  N   UNL     1       0.301   9.642  20.586  0.00  0.00    +0.000 N 
ATOM      9  C   UNL     1       0.802   9.214  19.362  0.00  0.00    +0.000 A 
ENDROOT
BRANCH   1  16
ATOM     10  C   UNL     1       1.628   3.749  18.265  0.00  0.00    +0.000 A 
ATOM     11  C   UNL     1       2.748   3.458  17.378  0.00  0.00    +0.000 A 
ATOM     12  C   UNL     1       3.595   4.442  17.042  0.00  0.00    +0.000 A 
ATOM     13  N   UNL     1       3.423   5.734  17.544  0.00  0.00    +0.000 N 
ATOM     14  C   UNL     1       4.190   6.874  17.306  0.00  0.00    +0.000 A 
ATOM     15  C   UNL     1       3.604   7.896  18.040  0.00  0.00    +0.000 A 
ATOM     16  C   UNL     1       2.501   7.380  18.769  0.00  0.00    +0.000 A 
ATOM     17  C   UNL     1       2.378   6.050  18.418  0.00  0.00    +0.000 A 
ATOM     18  C   UNL     1       1.468   4.995  18.763  0.00  0.00    +0.000 A 
BRANCH  14  19
ATOM     19  C   UNL     1       5.365   6.923  16.441  0.00  0.00    +0.000 C 
ATOM     20  C   UNL     1       6.739   6.972  17.069  0.00  0.00    +0.000 C 
ATOM     21  O   UNL     1       5.308   6.911  15.209  0.00  0.00    +0.000 OA
ENDBRANCH  14  19
BRANCH  10  22
ATOM     22  O   UNL     1       0.723   2.751  18.602  0.00  0.00    +0.000 OA
BRANCH  22  23
ATOM     23  C   UNL     1       1.142   1.775  19.558  0.00  0.00    +0.000 C 
BRANCH  23  25
ATOM     24  C   UNL     1       1.515   2.701  21.855  0.00  0.00    +0.000 C 
ATOM     25  C   UNL     1       2.162   2.379  20.515  0.00  0.00    +0.000 C 
ENDBRANCH  23  25
ENDBRANCH  22  23
ENDBRANCH  10  22
ENDBRANCH   1  16
BRANCH   9  26
ATOM     26  N   UNL     1       0.550   9.832  18.173  0.00  0.00    +0.000 N 
ATOM     27  H   UNL     1       1.232   9.694  17.429  0.00  0.00    +0.000 HD
BRANCH  26  28
ATOM     28  C   UNL     1      -0.696  10.236  17.642  0.00  0.00    +0.000 A 
ATOM     29  C   UNL     1      -1.201  11.483  18.037  0.00  0.00    +0.000 A 
ATOM     30  C   UNL     1      -2.475  11.902  17.643  0.00  0.00    +0.000 A 
ATOM     31  C   UNL     1      -3.264  11.088  16.833  0.00  0.00    +0.000 A 
ATOM     32  C   UNL     1      -2.779   9.844  16.436  0.00  0.00    +0.000 A 
ATOM     33  C   UNL     1      -1.502   9.426  16.835  0.00  0.00    +0.000 A 
BRANCH  31  34
ATOM     34  O   UNL     1      -4.502  11.584  16.535  0.00  0.00    +0.000 OA
ATOM     35  C   UNL     1      -5.402  11.669  17.633  0.00  0.00    +0.000 C 
ENDBRANCH  31  34
ENDBRANCH  26  28
ENDBRANCH   9  26
TORSDOF 8
ENDMDL
MODEL 3
REMARK VINA RESULT:      -7.5      2.865      5.996
REMARK  Name = 
REMARK  11 active torsions:
REMARK  status: ('A' for Active; 'I' for Inactive)
REMARK    1  A    between atoms: C_1  and  C_2
REMARK    2  A    between atoms: C_2  and  C_3
REMARK    3  A    between atoms: C_3  and  O_4
REMARK    4  A    between atoms: O_4  and  C_5
REMARK    5  A    between atoms: C_9  and  C_10
REMARK    6  A    between atoms: C_10  and  C_11
REMARK    7  A    between atoms: C_14  and  C_15
REMARK    8  A    between atoms: C_23  and  N_24
REMARK    9  A    between atoms: N_24  and  C_25
REMARK   10  A    between atoms: C_28  and  O_29
REMARK   11  A    between atoms: O_29  and  C_30
REMARK                            x       y       z     vdW  Elec       q    Type
REMARK                         _______ _______ _______ _____ _____    ______ ____
ROOT
ATOM      1  C   UNL     1       1.646   8.282  19.685  0.00  0.00    +0.000 A 
ATOM      2  N   UNL     1       1.355   7.852  20.956  0.00  0.00    +0.000 NA
ATOM      3  C   UNL     1       0.596   8.795  21.476  0.00  0.00    +0.000 A 
ATOM      4  C   UNL     1       0.012   8.911  22.772  0.00  0.00    +0.000 A 
ATOM      5  C   UNL     1      -0.718   9.998  23.089  0.00  0.00    +0.000 A 
ATOM      6  C   UNL     1      -0.917  11.079  22.140  0.00  0.00    +0.000 A 
ATOM      7  C   UNL     1      -0.354  10.986  20.925  0.00  0.00    +0.000 A 
ATOM      8  N   UNL     1       0.379   9.844  20.580  0.00  0.00    +0.000 N 
ATOM      9  C   UNL     1       1.050   9.508  19.410  0.00  0.00    +0.000 A 
ENDROOT
BRANCH   1  16
ATOM     10  C   UNL     1       1.661   3.810  18.362  0.00  0.00    +0.000 A 
ATOM     11  C   UNL     1       2.794   3.517  17.492  0.00  0.00    +0.000 A 
ATOM     12  C   UNL     1       3.629   4.506  17.143  0.00  0.00    +0.000 A 
ATOM     13  N   UNL     1       3.435   5.805  17.615  0.00  0.00    +0.000 N 
ATOM     14  C   UNL     1       4.187   6.950  17.359  0.00  0.00    +0.000 A 
ATOM     15  C   UNL     1       3.580   7.980  18.065  0.00  0.00    +0.000 A 
ATOM     16  C   UNL     1       2.478   7.463  18.795  0.00  0.00    +0.000 A 
ATOM     17  C   UNL     1       2.377   6.125  18.472  0.00  0.00    +0.000 A 
ATOM     18  C   UNL     1       1.479   5.064  18.831  0.00  0.00    +0.000 A 
BRANCH  14  19
ATOM     19  C   UNL     1       5.370   6.997  16.504  0.00  0.00    +0.000 C 
ATOM     20  C   UNL     1       6.738   7.073  17.143  0.00  0.00    +0.000 C 
ATOM     21  O   UNL     1       5.324   6.963  15.272  0.00  0.00    +0.000 OA
ENDBRANCH  14  19
BRANCH  10  22
ATOM     22  O   UNL     1       0.767   2.807  18.713  0.00  0.00    +0.000 OA
BRANCH  22  23
ATOM     23  C   UNL     1       1.136   1.941  19.787  0.00  0.00    +0.000 C 
BRANCH  23  25
ATOM     24  C   UNL     1       2.569   2.696  21.697  0.00  0.00    +0.000 C 
ATOM     25  C   UNL     1       1.169   2.713  21.100  0.00  0.00    +0.000 C 
ENDBRANCH  23  25
ENDBRANCH  22  23
ENDBRANCH  10  22
ENDBRANCH   1  16
BRANCH   9  26
ATOM     26  N   UNL     1       1.177  10.339  18.335  0.00  0.00    +0.000 N 
ATOM     27  H   UNL     1       0.715  10.051  17.474  0.00  0.00    +0.000 HD
BRANCH  26  28
ATOM     28  C   UNL     1       1.430  11.729  18.327  0.00  0.00    +0.000 A 
ATOM     29  C   UNL     1       2.753  12.152  18.137  0.00  0.00    +0.000 A 
ATOM     30  C   UNL     1       3.099  13.502  18.228  0.00  0.00    +0.000 A 
ATOM     31  C   UNL     1       2.125  14.461  18.495  0.00  0.00    +0.000 A 
ATOM     32  C   UNL     1       0.806  14.058  18.692  0.00  0.00    +0.000 A 
ATOM     33  C   UNL     1       0.463  12.702  18.603  0.00  0.00    +0.000 A 
BRANCH  31  34
ATOM     34  O   UNL     1       2.580  15.746  18.591  0.00  0.00    +0.000 OA
ATOM     35  C   UNL     1       1.673  16.747  18.145  0.00  0.00    +0.000 C 
ENDBRANCH  31  34
ENDBRANCH  26  28
ENDBRANCH   9  26
TORSDOF 8
ENDMDL
MODEL 4
REMARK VINA RESULT:      -7.3      7.286     11.154
REMARK  Name = 
REMARK  11 active torsions:
REMARK  status: ('A' for Active; 'I' for Inactive)
REMARK    1  A    between atoms: C_1  and  C_2
REMARK    2  A    between atoms: C_2  and  C_3
REMARK    3  A    between atoms: C_3  and  O_4
REMARK    4  A    between atoms: O_4  and  C_5
REMARK    5  A    between atoms: C_9  and  C_10
REMARK    6  A    between atoms: C_10  and  C_11
REMARK    7  A    between atoms: C_14  and  C_15
REMARK    8  A    between atoms: C_23  and  N_24
REMARK    9  A    between atoms: N_24  and  C_25
REMARK   10  A    between atoms: C_28  and  O_29
REMARK   11  A    between atoms: O_29  and  C_30
REMARK                            x       y       z     vdW  Elec       q    Type
REMARK                         _______ _______ _______ _____ _____    ______ ____
ROOT
ATOM      1  C   UNL     1      -3.196  12.393  22.222  0.00  0.00    +0.000 A 
ATOM      2  N   UNL     1      -3.702  12.361  23.498  0.00  0.00    +0.000 NA
ATOM      3  C   UNL     1      -4.970  12.698  23.378  0.00  0.00    +0.000 A 
ATOM      4  C   UNL     1      -5.988  12.858  24.364  0.00  0.00    +0.000 A 
ATOM      5  C   UNL     1      -7.227  13.241  24.000  0.00  0.00    +0.000 A 
ATOM      6  C   UNL     1      -7.557  13.514  22.613  0.00  0.00    +0.000 A 
ATOM      7  C   UNL     1      -6.599  13.385  21.682  0.00  0.00    +0.000 A 
ATOM      8  N   UNL     1      -5.318  12.958  22.051  0.00  0.00    +0.000 N 
ATOM      9  C   UNL     1      -4.171  12.747  21.294  0.00  0.00    +0.000 A 
ENDROOT
BRANCH   1  16
ATOM     10  C   UNL     1       0.486  14.668  20.486  0.00  0.00    +0.000 A 
ATOM     11  C   UNL     1       1.653  13.799  20.394  0.00  0.00    +0.000 A 
ATOM     12  C   UNL     1       1.570  12.536  20.835  0.00  0.00    +0.000 A 
ATOM     13  N   UNL     1       0.376  12.042  21.366  0.00  0.00    +0.000 N 
ATOM     14  C   UNL     1       0.104  10.772  21.873  0.00  0.00    +0.000 A 
ATOM     15  C   UNL     1      -1.226  10.790  22.272  0.00  0.00    +0.000 A 
ATOM     16  C   UNL     1      -1.790  12.057  21.970  0.00  0.00    +0.000 A 
ATOM     17  C   UNL     1      -0.774  12.833  21.448  0.00  0.00    +0.000 A 
ATOM     18  C   UNL     1      -0.674  14.189  20.986  0.00  0.00    +0.000 A 
BRANCH  14  19
ATOM     19  C   UNL     1       1.069   9.679  21.948  0.00  0.00    +0.000 C 
ATOM     20  C   UNL     1       1.047   8.603  20.887  0.00  0.00    +0.000 C 
ATOM     21  O   UNL     1       1.927   9.584  22.830  0.00  0.00    +0.000 OA
ENDBRANCH  14  19
BRANCH  10  22
ATOM     22  O   UNL     1       0.559  15.988  20.061  0.00  0.00    +0.000 OA
BRANCH  22  23
ATOM     23  C   UNL     1       0.858  16.223  18.684  0.00  0.00    +0.000 C 
BRANCH  23  25
ATOM     24  C   UNL     1      -1.246  17.536  19.031  0.00  0.00    +0.000 C 
ATOM     25  C   UNL     1      -0.313  16.916  18.000  0.00  0.00    +0.000 C 
ENDBRANCH  23  25
ENDBRANCH  22  23
ENDBRANCH  10  22
ENDBRANCH   1  16
BRANCH   9  26
ATOM     26  N   UNL     1      -4.075  13.016  19.960  0.00  0.00    +0.000 N 
ATOM     27  H   UNL     1      -3.755  13.949  19.701  0.00  0.00    +0.000 HD
BRANCH  26  28
ATOM     28  C   UNL     1      -3.888  12.108  18.894  0.00  0.00    +0.000 A 
ATOM     29  C   UNL     1      -2.578  11.700  18.605  0.00  0.00    +0.000 A 
ATOM     30  C   UNL     1      -2.303  10.893  17.498  0.00  0.00    +0.000 A 
ATOM     31  C   UNL     1      -3.335  10.464  16.666  0.00  0.00    +0.000 A 
ATOM     32  C   UNL     1      -4.641  10.866  16.935  0.00  0.00    +0.000 A 
ATOM     33  C   UNL     1      -4.913  11.678  18.045  0.00  0.00    +0.000 A 
BRANCH  31  34
ATOM     34  O   UNL     1      -2.947   9.706  15.597  0.00  0.00    +0.000 OA
ATOM     35  C   UNL     1      -3.316  10.218  14.322  0.00  0.00    +0.000 C 
ENDBRANCH  31  34
ENDBRANCH  26  28
ENDBRANCH   9  26
TORSDOF 8
ENDMDL
MODEL 5
REMARK VINA RESULT:      -7.2      5.800     10.341
REMARK  Name = 
REMARK  11 active torsions:
REMARK  status: ('A' for Active; 'I' for Inactive)
REMARK    1  A    between atoms: C_1  and  C_2
REMARK    2  A    between atoms: C_2  and  C_3
REMARK    3  A    between atoms: C_3  and  O_4
REMARK    4  A    between atoms: O_4  and  C_5
REMARK    5  A    between atoms: C_9  and  C_10
REMARK    6  A    between atoms: C_10  and  C_11
REMARK    7  A    between atoms: C_14  and  C_15
REMARK    8  A    between atoms: C_23  and  N_24
REMARK    9  A    between atoms: N_24  and  C_25
REMARK   10  A    between atoms: C_28  and  O_29
REMARK   11  A    between atoms: O_29  and  C_30
REMARK                            x       y       z     vdW  Elec       q    Type
REMARK                         _______ _______ _______ _____ _____    ______ ____
ROOT
ATOM      1  C   UNL     1      -0.074  10.742  20.540  0.00  0.00    +0.000 A 
ATOM      2  N   UNL     1       0.188   9.537  21.143  0.00  0.00    +0.000 NA
ATOM      3  C   UNL     1       0.996   8.904  20.317  0.00  0.00    +0.000 A 
ATOM      4  C   UNL     1       1.580   7.606  20.399  0.00  0.00    +0.000 A 
ATOM      5  C   UNL     1       2.368   7.155  19.403  0.00  0.00    +0.000 A 
ATOM      6  C   UNL     1       2.631   7.960  18.223  0.00  0.00    +0.000 A 
ATOM      7  C   UNL     1       2.068   9.175  18.130  0.00  0.00    +0.000 A 
ATOM      8  N   UNL     1       1.274   9.660  19.177  0.00  0.00    +0.000 N 
ATOM      9  C   UNL     1       0.591  10.862  19.324  0.00  0.00    +0.000 A 
ENDROOT
BRANCH   1  16
ATOM     10  C   UNL     1      -4.217  12.646  19.564  0.00  0.00    +0.000 A 
ATOM     11  C   UNL     1      -4.587  13.653  20.553  0.00  0.00    +0.000 A 
ATOM     12  C   UNL     1      -3.778  13.876  21.599  0.00  0.00    +0.000 A 
ATOM     13  N   UNL     1      -2.582  13.169  21.741  0.00  0.00    +0.000 N 
ATOM     14  C   UNL     1      -1.627  13.260  22.752  0.00  0.00    +0.000 A 
ATOM     15  C   UNL     1      -0.630  12.350  22.428  0.00  0.00    +0.000 A 
ATOM     16  C   UNL     1      -0.946  11.727  21.192  0.00  0.00    +0.000 A 
ATOM     17  C   UNL     1      -2.177  12.214  20.802  0.00  0.00    +0.000 A 
ATOM     18  C   UNL     1      -3.055  11.970  19.692  0.00  0.00    +0.000 A 
BRANCH  14  19
ATOM     19  C   UNL     1      -1.714  14.154  23.903  0.00  0.00    +0.000 C 
ATOM     20  C   UNL     1      -3.015  14.248  24.666  0.00  0.00    +0.000 C 
ATOM     21  O   UNL     1      -0.771  14.839  24.308  0.00  0.00    +0.000 OA
ENDBRANCH  14  19
BRANCH  10  22
ATOM     22  O   UNL     1      -5.055  12.378  18.490  0.00  0.00    +0.000 OA
BRANCH  22  23
ATOM     23  C   UNL     1      -5.399  11.013  18.246  0.00  0.00    +0.000 C 
BRANCH  23  25
ATOM     24  C   UNL     1      -6.981   9.488  19.447  0.00  0.00    +0.000 C 
ATOM     25  C   UNL     1      -6.853  10.760  18.622  0.00  0.00    +0.000 C 
ENDBRANCH  23  25
ENDBRANCH  22  23
ENDBRANCH  10  22
ENDBRANCH   1  16
BRANCH   9  26
ATOM     26  N   UNL     1       0.515  11.822  18.358  0.00  0.00    +0.000 N 
ATOM     27  H   UNL     1      -0.272  11.764  17.713  0.00  0.00    +0.000 HD
BRANCH  26  28
ATOM     28  C   UNL     1       1.053  13.129  18.375  0.00  0.00    +0.000 A 
ATOM     29  C   UNL     1       2.426  13.274  18.133  0.00  0.00    +0.000 A 
ATOM     30  C   UNL     1       3.050  14.519  18.244  0.00  0.00    +0.000 A 
ATOM     31  C   UNL     1       2.310  15.649  18.584  0.00  0.00    +0.000 A 
ATOM     32  C   UNL     1       0.946  15.521  18.834  0.00  0.00    +0.000 A 
ATOM     33  C   UNL     1       0.323  14.270  18.725  0.00  0.00    +0.000 A 
BRANCH  31  34
ATOM     34  O   UNL     1       3.028  16.807  18.694  0.00  0.00    +0.000 OA
ATOM     35  C   UNL     1       4.432  16.671  18.505  0.00  0.00    +0.000 C 
ENDBRANCH  31  34
ENDBRANCH  26  28
ENDBRANCH   9  26
TORSDOF 8
ENDMDL
MODEL 6
REMARK VINA RESULT:      -7.2      5.531     11.392
REMARK  Name = 
REMARK  11 active torsions:
REMARK  status: ('A' for Active; 'I' for Inactive)
REMARK    1  A    between atoms: C_1  and  C_2
REMARK    2  A    between atoms: C_2  and  C_3
REMARK    3  A    between atoms: C_3  and  O_4
REMARK    4  A    between atoms: O_4  and  C_5
REMARK    5  A    between atoms: C_9  and  C_10
REMARK    6  A    between atoms: C_10  and  C_11
REMARK    7  A    between atoms: C_14  and  C_15
REMARK    8  A    between atoms: C_23  and  N_24
REMARK    9  A    between atoms: N_24  and  C_25
REMARK   10  A    between atoms: C_28  and  O_29
REMARK   11  A    between atoms: O_29  and  C_30
REMARK                            x       y       z     vdW  Elec       q    Type
REMARK                         _______ _______ _______ _____ _____    ______ ____
ROOT
ATOM      1  C   UNL     1      -1.934  12.226  19.214  0.00  0.00    +0.000 A 
ATOM      2  N   UNL     1      -3.244  12.285  18.808  0.00  0.00    +0.000 NA
ATOM      3  C   UNL     1      -3.318  11.492  17.758  0.00  0.00    +0.000 A 
ATOM      4  C   UNL     1      -4.417  11.177  16.906  0.00  0.00    +0.000 A 
ATOM      5  C   UNL     1      -4.245  10.345  15.860  0.00  0.00    +0.000 A 
ATOM      6  C   UNL     1      -2.948   9.764  15.562  0.00  0.00    +0.000 A 
ATOM      7  C   UNL     1      -1.904  10.072  16.348  0.00  0.00    +0.000 A 
ATOM      8  N   UNL     1      -2.086  10.911  17.454  0.00  0.00    +0.000 N 
ATOM      9  C   UNL     1      -1.185  11.375  18.407  0.00  0.00    +0.000 A 
ENDROOT
BRANCH   1  16
ATOM     10  C   UNL     1      -3.317  12.603  23.651  0.00  0.00    +0.000 A 
ATOM     11  C   UNL     1      -2.526  13.594  24.373  0.00  0.00    +0.000 A 
ATOM     12  C   UNL     1      -1.518  14.215  23.745  0.00  0.00    +0.000 A 
ATOM     13  N   UNL     1      -1.228  13.936  22.408  0.00  0.00    +0.000 N 
ATOM     14  C   UNL     1      -0.228  14.472  21.599  0.00  0.00    +0.000 A 
ATOM     15  C   UNL     1      -0.366  13.867  20.357  0.00  0.00    +0.000 A 
ATOM     16  C   UNL     1      -1.482  12.990  20.383  0.00  0.00    +0.000 A 
ATOM     17  C   UNL     1      -1.978  13.013  21.671  0.00  0.00    +0.000 A 
ATOM     18  C   UNL     1      -3.048  12.341  22.353  0.00  0.00    +0.000 A 
BRANCH  14  19
ATOM     19  C   UNL     1       0.749  15.468  22.030  0.00  0.00    +0.000 C 
ATOM     20  C   UNL     1       0.420  16.935  21.876  0.00  0.00    +0.000 C 
ATOM     21  O   UNL     1       1.838  15.184  22.534  0.00  0.00    +0.000 OA
ENDBRANCH  14  19
BRANCH  10  22
ATOM     22  O   UNL     1      -4.347  11.927  24.291  0.00  0.00    +0.000 OA
BRANCH  22  23
ATOM     23  C   UNL     1      -5.436  12.705  24.791  0.00  0.00    +0.000 C 
BRANCH  23  25
ATOM     24  C   UNL     1      -7.653  13.701  24.187  0.00  0.00    +0.000 C 
ATOM     25  C   UNL     1      -6.608  12.658  23.819  0.00  0.00    +0.000 C 
ENDBRANCH  23  25
ENDBRANCH  22  23
ENDBRANCH  10  22
ENDBRANCH   1  16
BRANCH   9  26
ATOM     26  N   UNL     1       0.156  11.127  18.377  0.00  0.00    +0.000 N 
ATOM     27  H   UNL     1       0.773  11.937  18.351  0.00  0.00    +0.000 HD
BRANCH  26  28
ATOM     28  C   UNL     1       0.847   9.985  18.841  0.00  0.00    +0.000 A 
ATOM     29  C   UNL     1       1.585   9.243  17.909  0.00  0.00    +0.000 A 
ATOM     30  C   UNL     1       2.202   8.042  18.269  0.00  0.00    +0.000 A 
ATOM     31  C   UNL     1       2.107   7.567  19.575  0.00  0.00    +0.000 A 
ATOM     32  C   UNL     1       1.372   8.289  20.513  0.00  0.00    +0.000 A 
ATOM     33  C   UNL     1       0.752   9.492  20.147  0.00  0.00    +0.000 A 
BRANCH  31  34
ATOM     34  O   UNL     1       2.722   6.369  19.807  0.00  0.00    +0.000 OA
ATOM     35  C   UNL     1       3.639   5.952  18.802  0.00  0.00    +0.000 C 
ENDBRANCH  31  34
ENDBRANCH  26  28
ENDBRANCH   9  26
TORSDOF 8
ENDMDL
MODEL 7
REMARK VINA RESULT:      -7.2      5.932     11.884
REMARK  Name = 
REMARK  11 active torsions:
REMARK  status: ('A' for Active; 'I' for Inactive)
REMARK    1  A    between atoms: C_1  and  C_2
REMARK    2  A    between atoms: C_2  and  C_3
REMARK    3  A    between atoms: C_3  and  O_4
REMARK    4  A    between atoms: O_4  and  C_5
REMARK    5  A    between atoms: C_9  and  C_10
REMARK    6  A    between atoms: C_10  and  C_11
REMARK    7  A    between atoms: C_14  and  C_15
REMARK    8  A    between atoms: C_23  and  N_24
REMARK    9  A    between atoms: N_24  and  C_25
REMARK   10  A    between atoms: C_28  and  O_29
REMARK   11  A    between atoms: O_29  and  C_30
REMARK                            x       y       z     vdW  Elec       q    Type
REMARK                         _______ _______ _______ _____ _____    ______ ____
ROOT
ATOM      1  C   UNL     1      -2.264  12.422  19.747  0.00  0.00    +0.000 A 
ATOM      2  N   UNL     1      -3.500  12.451  19.151  0.00  0.00    +0.000 NA
ATOM      3  C   UNL     1      -3.418  11.611  18.139  0.00  0.00    +0.000 A 
ATOM      4  C   UNL     1      -4.379  11.249  17.150  0.00  0.00    +0.000 A 
ATOM      5  C   UNL     1      -4.053  10.372  16.181  0.00  0.00    +0.000 A 
ATOM      6  C   UNL     1      -2.725   9.788  16.104  0.00  0.00    +0.000 A 
ATOM      7  C   UNL     1      -1.809  10.140  17.019  0.00  0.00    +0.000 A 
ATOM      8  N   UNL     1      -2.153  11.027  18.047  0.00  0.00    +0.000 N 
ATOM      9  C   UNL     1      -1.403  11.541  19.099  0.00  0.00    +0.000 A 
ENDROOT
BRANCH   1  16
ATOM     10  C   UNL     1      -4.206  12.889  23.961  0.00  0.00    +0.000 A 
ATOM     11  C   UNL     1      -3.548  13.934  24.737  0.00  0.00    +0.000 A 
ATOM     12  C   UNL     1      -2.492  14.575  24.216  0.00  0.00    +0.000 A 
ATOM     13  N   UNL     1      -2.027  14.263  22.937  0.00  0.00    +0.000 N 
ATOM     14  C   UNL     1      -0.953  14.813  22.239  0.00  0.00    +0.000 A 
ATOM     15  C   UNL     1      -0.913  14.162  21.013  0.00  0.00    +0.000 A 
ATOM     16  C   UNL     1      -1.990  13.241  20.934  0.00  0.00    +0.000 A 
ATOM     17  C   UNL     1      -2.644  13.286  22.149  0.00  0.00    +0.000 A 
ATOM     18  C   UNL     1      -3.766  12.595  22.718  0.00  0.00    +0.000 A 
BRANCH  14  19
ATOM     19  C   UNL     1      -0.076  15.862  22.750  0.00  0.00    +0.000 C 
ATOM     20  C   UNL     1      -0.458  17.309  22.538  0.00  0.00    +0.000 C 
ATOM     21  O   UNL     1       0.969  15.639  23.367  0.00  0.00    +0.000 OA
ENDBRANCH  14  19
BRANCH  10  22
ATOM     22  O   UNL     1      -5.283  12.192  24.493  0.00  0.00    +0.000 OA
BRANCH  22  23
ATOM     23  C   UNL     1      -6.546  12.331  23.840  0.00  0.00    +0.000 C 
BRANCH  23  25
ATOM     24  C   UNL     1      -7.681  14.439  23.104  0.00  0.00    +0.000 C 
ATOM     25  C   UNL     1      -7.240  13.607  24.299  0.00  0.00    +0.000 C 
ENDBRANCH  23  25
ENDBRANCH  22  23
ENDBRANCH  10  22
ENDBRANCH   1  16
BRANCH   9  26
ATOM     26  N   UNL     1      -0.072  11.303  19.278  0.00  0.00    +0.000 N 
ATOM     27  H   UNL     1       0.455  12.006  19.793  0.00  0.00    +0.000 HD
BRANCH  26  28
ATOM     28  C   UNL     1       0.602  10.061  19.291  0.00  0.00    +0.000 A 
ATOM     29  C   UNL     1       0.600   9.328  20.487  0.00  0.00    +0.000 A 
ATOM     30  C   UNL     1       1.337   8.148  20.610  0.00  0.00    +0.000 A 
ATOM     31  C   UNL     1       2.080   7.667  19.534  0.00  0.00    +0.000 A 
ATOM     32  C   UNL     1       2.098   8.385  18.341  0.00  0.00    +0.000 A 
ATOM     33  C   UNL     1       1.359   9.571  18.222  0.00  0.00    +0.000 A 
BRANCH  31  34
ATOM     34  O   UNL     1       2.785   6.521  19.776  0.00  0.00    +0.000 OA
ATOM     35  C   UNL     1       2.064   5.494  20.446  0.00  0.00    +0.000 C 
ENDBRANCH  31  34
ENDBRANCH  26  28
ENDBRANCH   9  26
TORSDOF 8
ENDMDL
MODEL 8
REMARK VINA RESULT:      -7.1      5.529     11.445
REMARK  Name = 
REMARK  11 active torsions:
REMARK  status: ('A' for Active; 'I' for Inactive)
REMARK    1  A    between atoms: C_1  and  C_2
REMARK    2  A    between atoms: C_2  and  C_3
REMARK    3  A    between atoms: C_3  and  O_4
REMARK    4  A    between atoms: O_4  and  C_5
REMARK    5  A    between atoms: C_9  and  C_10
REMARK    6  A    between atoms: C_10  and  C_11
REMARK    7  A    between atoms: C_14  and  C_15
REMARK    8  A    between atoms: C_23  and  N_24
REMARK    9  A    between atoms: N_24  and  C_25
REMARK   10  A    between atoms: C_28  and  O_29
REMARK   11  A    between atoms: O_29  and  C_30
REMARK                            x       y       z     vdW  Elec       q    Type
REMARK                         _______ _______ _______ _____ _____    ______ ____
ROOT
ATOM      1  C   UNL     1      -1.146  13.773  20.511  0.00  0.00    +0.000 A 
ATOM      2  N   UNL     1      -0.918  14.930  19.809  0.00  0.00    +0.000 NA
ATOM      3  C   UNL     1       0.367  14.911  19.514  0.00  0.00    +0.000 A 
ATOM      4  C   UNL     1       1.177  15.856  18.820  0.00  0.00    +0.000 A 
ATOM      5  C   UNL     1       2.495  15.628  18.659  0.00  0.00    +0.000 A 
ATOM      6  C   UNL     1       3.126  14.434  19.194  0.00  0.00    +0.000 A 
ATOM      7  C   UNL     1       2.374  13.549  19.866  0.00  0.00    +0.000 A 
ATOM      8  N   UNL     1       0.998  13.767  20.009  0.00  0.00    +0.000 N 
ATOM      9  C   UNL     1       0.015  13.018  20.646  0.00  0.00    +0.000 A 
ENDROOT
BRANCH   1  16
ATOM     10  C   UNL     1      -4.866  11.584  18.748  0.00  0.00    +0.000 A 
ATOM     11  C   UNL     1      -5.993  11.620  19.673  0.00  0.00    +0.000 A 
ATOM     12  C   UNL     1      -5.840  12.195  20.875  0.00  0.00    +0.000 A 
ATOM     13  N   UNL     1      -4.622  12.770  21.241  0.00  0.00    +0.000 N 
ATOM     14  C   UNL     1      -4.276  13.400  22.436  0.00  0.00    +0.000 A 
ATOM     15  C   UNL     1      -2.953  13.797  22.297  0.00  0.00    +0.000 A 
ATOM     16  C   UNL     1      -2.492  13.452  21.000  0.00  0.00    +0.000 A 
ATOM     17  C   UNL     1      -3.524  12.780  20.375  0.00  0.00    +0.000 A 
ATOM     18  C   UNL     1      -3.690  12.152  19.095  0.00  0.00    +0.000 A 
BRANCH  14  19
ATOM     19  C   UNL     1      -5.172  13.576  23.575  0.00  0.00    +0.000 C 
ATOM     20  C   UNL     1      -5.323  12.452  24.573  0.00  0.00    +0.000 C 
ATOM     21  O   UNL     1      -5.813  14.609  23.787  0.00  0.00    +0.000 OA
ENDBRANCH  14  19
BRANCH  10  22
ATOM     22  O   UNL     1      -4.995  10.969  17.510  0.00  0.00    +0.000 OA
BRANCH  22  23
ATOM     23  C   UNL     1      -4.166  11.444  16.447  0.00  0.00    +0.000 C 
BRANCH  23  25
ATOM     24  C   UNL     1      -2.257   9.845  16.719  0.00  0.00    +0.000 C 
ATOM     25  C   UNL     1      -3.401  10.287  15.817  0.00  0.00    +0.000 C 
ENDBRANCH  23  25
ENDBRANCH  22  23
ENDBRANCH  10  22
ENDBRANCH   1  16
BRANCH   9  26
ATOM     26  N   UNL     1       0.262  11.884  21.363  0.00  0.00    +0.000 N 
ATOM     27  H   UNL     1      -0.194  11.807  22.271  0.00  0.00    +0.000 HD
BRANCH  26  28
ATOM     28  C   UNL     1       0.651  10.612  20.886  0.00  0.00    +0.000 A 
ATOM     29  C   UNL     1       0.929   9.616  21.833  0.00  0.00    +0.000 A 
ATOM     30  C   UNL     1       1.425   8.370  21.443  0.00  0.00    +0.000 A 
ATOM     31  C   UNL     1       1.639   8.088  20.096  0.00  0.00    +0.000 A 
ATOM     32  C   UNL     1       1.374   9.069  19.143  0.00  0.00    +0.000 A 
ATOM     33  C   UNL     1       0.879  10.319  19.537  0.00  0.00    +0.000 A 
BRANCH  31  34
ATOM     34  O   UNL     1       2.155   6.850  19.832  0.00  0.00    +0.000 OA
ATOM     35  C   UNL     1       2.608   6.652  18.497  0.00  0.00    +0.000 C 
ENDBRANCH  31  34
ENDBRANCH  26  28
ENDBRANCH   9  26
TORSDOF 8
ENDMDL
MODEL 9
REMARK VINA RESULT:      -7.1      5.988     10.649
REMARK  Name = 
REMARK  11 active torsions:
REMARK  status: ('A' for Active; 'I' for Inactive)
REMARK    1  A    between atoms: C_1  and  C_2
REMARK    2  A    between atoms: C_2  and  C_3
REMARK    3  A    between atoms: C_3  and  O_4
REMARK    4  A    between atoms: O_4  and  C_5
REMARK    5  A    between atoms: C_9  and  C_10
REMARK    6  A    between atoms: C_10  and  C_11
REMARK    7  A    between atoms: C_14  and  C_15
REMARK    8  A    between atoms: C_23  and  N_24
REMARK    9  A    between atoms: N_24  and  C_25
REMARK   10  A    between atoms: C_28  and  O_29
REMARK   11  A    between atoms: O_29  and  C_30
REMARK                            x       y       z     vdW  Elec       q    Type
REMARK                         _______ _______ _______ _____ _____    ______ ____
ROOT
ATOM      1  C   UNL     1      -0.155  10.903  20.413  0.00  0.00    +0.000 A 
ATOM      2  N   UNL     1       0.124   9.667  20.940  0.00  0.00    +0.000 NA
ATOM      3  C   UNL     1       0.955   9.104  20.086  0.00  0.00    +0.000 A 
ATOM      4  C   UNL     1       1.565   7.815  20.091  0.00  0.00    +0.000 A 
ATOM      5  C   UNL     1       2.374   7.446  19.079  0.00  0.00    +0.000 A 
ATOM      6  C   UNL     1       2.634   8.331  17.958  0.00  0.00    +0.000 A 
ATOM      7  C   UNL     1       2.048   9.538  17.936  0.00  0.00    +0.000 A 
ATOM      8  N   UNL     1       1.231   9.939  19.001  0.00  0.00    +0.000 N 
ATOM      9  C   UNL     1       0.522  11.115  19.216  0.00  0.00    +0.000 A 
ENDROOT
BRANCH   1  16
ATOM     10  C   UNL     1      -4.385  12.677  19.570  0.00  0.00    +0.000 A 
ATOM     11  C   UNL     1      -4.779  13.628  20.603  0.00  0.00    +0.000 A 
ATOM     12  C   UNL     1      -3.963  13.843  21.645  0.00  0.00    +0.000 A 
ATOM     13  N   UNL     1      -2.739  13.179  21.743  0.00  0.00    +0.000 N 
ATOM     14  C   UNL     1      -1.772  13.269  22.743  0.00  0.00    +0.000 A 
ATOM     15  C   UNL     1      -0.745  12.412  22.370  0.00  0.00    +0.000 A 
ATOM     16  C   UNL     1      -1.056  11.826  21.115  0.00  0.00    +0.000 A 
ATOM     17  C   UNL     1      -2.311  12.278  20.762  0.00  0.00    +0.000 A 
ATOM     18  C   UNL     1      -3.195  12.043  19.655  0.00  0.00    +0.000 A 
BRANCH  14  19
ATOM     19  C   UNL     1      -1.876  14.113  23.930  0.00  0.00    +0.000 C 
ATOM     20  C   UNL     1      -3.175  14.143  24.701  0.00  0.00    +0.000 C 
ATOM     21  O   UNL     1      -0.949  14.805  24.359  0.00  0.00    +0.000 OA
ENDBRANCH  14  19
BRANCH  10  22
ATOM     22  O   UNL     1      -5.228  12.418  18.497  0.00  0.00    +0.000 OA
BRANCH  22  23
ATOM     23  C   UNL     1      -6.606  12.175  18.785  0.00  0.00    +0.000 C 
BRANCH  23  25
ATOM     24  C   UNL     1      -7.387  10.362  20.326  0.00  0.00    +0.000 C 
ATOM     25  C   UNL     1      -6.858  10.680  18.935  0.00  0.00    +0.000 C 
ENDBRANCH  23  25
ENDBRANCH  22  23
ENDBRANCH  10  22
ENDBRANCH   1  16
BRANCH   9  26
ATOM     26  N   UNL     1       0.438  12.134  18.313  0.00  0.00    +0.000 N 
ATOM     27  H   UNL     1      -0.310  12.076  17.623  0.00  0.00    +0.000 HD
BRANCH  26  28
ATOM     28  C   UNL     1       0.895  13.464  18.447  0.00  0.00    +0.000 A 
ATOM     29  C   UNL     1      -0.056  14.459  18.712  0.00  0.00    +0.000 A 
ATOM     30  C   UNL     1       0.302  15.809  18.747  0.00  0.00    +0.000 A 
ATOM     31  C   UNL     1       1.625  16.191  18.533  0.00  0.00    +0.000 A 
ATOM     32  C   UNL     1       2.582  15.215  18.264  0.00  0.00    +0.000 A 
ATOM     33  C   UNL     1       2.218  13.862  18.226  0.00  0.00    +0.000 A 
BRANCH  31  34
ATOM     34  O   UNL     1       1.856  17.538  18.560  0.00  0.00    +0.000 OA
ATOM     35  C   UNL     1       0.700  18.349  18.732  0.00  0.00    +0.000 C 
ENDBRANCH  31  34
ENDBRANCH  26  28
ENDBRANCH   9  26
TORSDOF 8
ENDMDL
