MODEL 1
REMARK VINA RESULT:      -7.9      0.000      0.000
REMARK  Name = 
REMARK  13 active torsions:
REMARK  status: ('A' for Active; 'I' for Inactive)
REMARK    1  A    between atoms: C_1  and  C_2
REMARK    2  A    between atoms: C_2  and  O_3
REMARK    3  A    between atoms: O_3  and  C_4
REMARK    4  A    between atoms: C_6  and  C_7
REMARK    5  A    between atoms: N_9  and  C_10
REMARK    6  A    between atoms: C_13  and  N_14
REMARK    7  A    between atoms: C_18  and  C_19
REMARK    8  A    between atoms: C_26  and  O_27
REMARK    9  A    between atoms: O_27  and  C_28
REMARK   10  A    between atoms: C_28  and  C_29
REMARK   11  A    between atoms: C_30  and  O_31
REMARK   12  A    between atoms: O_31  and  C_32
REMARK   13  A    between atoms: C_32  and  C_33
REMARK                            x       y       z     vdW  Elec       q    Type
REMARK                         _______ _______ _______ _____ _____    ______ ____
ROOT
ATOM      1  C   UNL     1       2.202   7.415  19.180  0.00  0.00    +0.000 C 
ATOM      2  O   UNL     1       1.869   6.949  20.270  0.00  0.00    +0.000 OA
ATOM      3  N   UNL     1       1.787   8.621  18.639  0.00  0.00    +0.000 N 
ATOM      4  H   UNL     1       2.020   8.805  17.669  0.00  0.00    +0.000 HD
ENDROOT
BRANCH   1   7
ATOM      5  C   UNL     1       5.087   6.391  17.002  0.00  0.00    +0.000 A 
ATOM      6  C   UNL     1       4.177   7.133  17.765  0.00  0.00    +0.000 A 
ATOM      7  C   UNL     1       3.034   6.552  18.307  0.00  0.00    +0.000 A 
ATOM      8  C   UNL     1       2.723   5.236  17.990  0.00  0.00    +0.000 A 
ATOM      9  C   UNL     1       3.572   4.493  17.146  0.00  0.00    +0.000 A 
ATOM     10  C   UNL     1       4.792   5.047  16.673  0.00  0.00    +0.000 A 
BRANCH   5  11
ATOM     11  O   UNL     1       6.236   6.996  16.543  0.00  0.00    +0.000 OA
BRANCH  11  13
ATOM     12  C   UNL     1       7.907   8.302  17.692  0.00  0.00    +0.000 C 
ATOM     13  C   UNL     1       7.363   6.912  17.426  0.00  0.00    +0.000 C 
ENDBRANCH  11  13
ENDBRANCH   5  11
BRANCH   9  14
ATOM     14  O   UNL     1       3.090   3.224  16.927  0.00  0.00    +0.000 OA
BRANCH  14  15
ATOM     15  C   UNL     1       2.478   2.544  18.023  0.00  0.00    +0.000 C 
ATOM     16  C   UNL     1       3.490   1.559  18.591  0.00  0.00    +0.000 C 
ENDBRANCH  14  15
ENDBRANCH   9  14
BRANCH  10  17
ATOM     17  O   UNL     1       5.605   4.201  15.954  0.00  0.00    +0.000 OA
BRANCH  17  18
ATOM     18  C   UNL     1       5.585   4.274  14.529  0.00  0.00    +0.000 C 
ATOM     19  C   UNL     1       6.934   4.748  14.016  0.00  0.00    +0.000 C 
ENDBRANCH  17  18
ENDBRANCH  10  17
ENDBRANCH   1   7
BRANCH   3  20
ATOM     20  C   UNL     1       0.927   9.549  19.267  0.00  0.00    +0.000 A 
ATOM     21  C   UNL     1       1.019   9.886  20.616  0.00  0.00    +0.000 A 
ATOM     22  C   UNL     1       0.149  10.825  21.186  0.00  0.00    +0.000 A 
ATOM     23  C   UNL     1      -0.842  11.477  20.444  0.00  0.00    +0.000 A 
ATOM     24  C   UNL     1      -0.942  11.111  19.094  0.00  0.00    +0.000 A 
ATOM     25  C   UNL     1      -0.066  10.174  18.509  0.00  0.00    +0.000 A 
BRANCH  23  26
ATOM     26  N   UNL     1      -1.644  12.441  21.020  0.00  0.00    +0.000 N 
ATOM     27  C   UNL     1      -2.889  12.891  20.373  0.00  0.00    +0.000 C 
ATOM     28  C   UNL     1      -4.079  12.742  21.345  0.00  0.00    +0.000 C 
ATOM     29  N   UNL     1      -3.809  13.387  22.637  0.00  0.00    +0.000 N 
ATOM     30  C   UNL     1      -4.583  14.328  23.283  0.00  0.00    +0.000 C 
ATOM     31  C   UNL     1      -5.880  14.797  22.672  0.00  0.00    +0.000 C 
ATOM     32  O   UNL     1      -4.241  14.813  24.366  0.00  0.00    +0.000 OA
ATOM     33  C   UNL     1      -2.558  12.932  23.267  0.00  0.00    +0.000 C 
ATOM     34  C   UNL     1      -1.356  13.083  22.314  0.00  0.00    +0.000 C 
ENDBRANCH  23  26
ENDBRANCH   3  20
TORSDOF 9
ENDMDL
MODEL 2
REMARK VINA RESULT:      -7.8      1.192      1.491
REMARK  Name = 
REMARK  13 active torsions:
REMARK  status: ('A' for Active; 'I' for Inactive)
REMARK    1  A    between atoms: C_1  and  C_2
REMARK    2  A    between atoms: C_2  and  O_3
REMARK    3  A    between atoms: O_3  and  C_4
REMARK    4  A    between atoms: C_6  and  C_7
REMARK    5  A    between atoms: N_9  and  C_10
REMARK    6  A    between atoms: C_13  and  N_14
REMARK    7  A    between atoms: C_18  and  C_19
REMARK    8  A    between atoms: C_26  and  O_27
REMARK    9  A    between atoms: O_27  and  C_28
REMARK   10  A    between atoms: C_28  and  C_29
REMARK   11  A    between atoms: C_30  and  O_31
REMARK   12  A    between atoms: O_31  and  C_32
REMARK   13  A    between atoms: C_32  and  C_33
REMARK                            x       y       z     vdW  Elec       q    Type
REMARK                         _______ _______ _______ _____ _____    ______ ____
ROOT
ATOM      1  C   UNL     1       2.230   7.920  18.389  0.00  0.00    +0.000 C 
ATOM      2  O   UNL     1       1.862   8.774  17.583  0.00  0.00    +0.000 OA
ATOM      3  N   UNL     1       1.974   7.907  19.750  0.00  0.00    +0.000 N 
ATOM      4  H   UNL     1       2.468   7.225  20.315  0.00  0.00    +0.000 HD
ENDROOT
BRANCH   1   7
ATOM      5  C   UNL     1       5.357   6.363  17.003  0.00  0.00    +0.000 A 
ATOM      6  C   UNL     1       4.384   7.280  17.421  0.00  0.00    +0.000 A 
ATOM      7  C   UNL     1       3.136   6.863  17.879  0.00  0.00    +0.000 A 
ATOM      8  C   UNL     1       2.802   5.516  17.811  0.00  0.00    +0.000 A 
ATOM      9  C   UNL     1       3.727   4.583  17.305  0.00  0.00    +0.000 A 
ATOM     10  C   UNL     1       5.038   4.987  16.933  0.00  0.00    +0.000 A 
BRANCH   5  11
ATOM     11  O   UNL     1       6.597   6.823  16.621  0.00  0.00    +0.000 OA
BRANCH  11  13
ATOM     12  C   UNL     1       7.954   8.477  17.736  0.00  0.00    +0.000 C 
ATOM     13  C   UNL     1       7.530   7.021  17.692  0.00  0.00    +0.000 C 
ENDBRANCH  11  13
ENDBRANCH   5  11
BRANCH   9  14
ATOM     14  O   UNL     1       3.211   3.308  17.293  0.00  0.00    +0.000 OA
BRANCH  14  15
ATOM     15  C   UNL     1       3.445   2.483  18.434  0.00  0.00    +0.000 C 
ATOM     16  C   UNL     1       2.095   2.100  19.025  0.00  0.00    +0.000 C 
ENDBRANCH  14  15
ENDBRANCH   9  14
BRANCH  10  17
ATOM     17  O   UNL     1       5.902   3.982  16.563  0.00  0.00    +0.000 OA
BRANCH  17  18
ATOM     18  C   UNL     1       6.552   4.065  15.296  0.00  0.00    +0.000 C 
ATOM     19  C   UNL     1       5.517   4.056  14.183  0.00  0.00    +0.000 C 
ENDBRANCH  17  18
ENDBRANCH  10  17
ENDBRANCH   1   7
BRANCH   3  20
ATOM     20  C   UNL     1       1.207   8.865  20.450  0.00  0.00    +0.000 A 
ATOM     21  C   UNL     1       0.949   8.789  21.817  0.00  0.00    +0.000 A 
ATOM     22  C   UNL     1       0.194   9.775  22.465  0.00  0.00    +0.000 A 
ATOM     23  C   UNL     1      -0.331  10.883  21.790  0.00  0.00    +0.000 A 
ATOM     24  C   UNL     1      -0.087  10.936  20.411  0.00  0.00    +0.000 A 
ATOM     25  C   UNL     1       0.679   9.953  19.751  0.00  0.00    +0.000 A 
BRANCH  23  26
ATOM     26  N   UNL     1      -1.020  11.869  22.467  0.00  0.00    +0.000 N 
ATOM     27  C   UNL     1      -0.606  13.281  22.398  0.00  0.00    +0.000 C 
ATOM     28  C   UNL     1      -1.788  14.161  21.938  0.00  0.00    +0.000 C 
ATOM     29  N   UNL     1      -2.988  13.928  22.752  0.00  0.00    +0.000 N 
ATOM     30  C   UNL     1      -3.741  14.868  23.424  0.00  0.00    +0.000 C 
ATOM     31  C   UNL     1      -3.372  16.329  23.358  0.00  0.00    +0.000 C 
ATOM     32  O   UNL     1      -4.727  14.547  24.094  0.00  0.00    +0.000 OA
ATOM     33  C   UNL     1      -3.384  12.511  22.817  0.00  0.00    +0.000 C 
ATOM     34  C   UNL     1      -2.219  11.618  23.285  0.00  0.00    +0.000 C 
ENDBRANCH  23  26
ENDBRANCH   3  20
TORSDOF 9
ENDMDL
MODEL 3
REMARK VINA RESULT:      -7.8      1.252      3.303
REMARK  Name = 
REMARK  13 active torsions:
REMARK  status: ('A' for Active; 'I' for Inactive)
REMARK    1  A    between atoms: C_1  and  C_2
REMARK    2  A    between atoms: C_2  and  O_3
REMARK    3  A    between atoms: O_3  and  C_4
REMARK    4  A    between atoms: C_6  and  C_7
REMARK    5  A    between atoms: N_9  and  C_10
REMARK    6  A    between atoms: C_13  and  N_14
REMARK    7  A    between atoms: C_18  and  C_19
REMARK    8  A    between atoms: C_26  and  O_27
REMARK    9  A    between atoms: O_27  and  C_28
REMARK   10  A    between atoms: C_28  and  C_29
REMARK   11  A    between atoms: C_30  and  O_31
REMARK   12  A    between atoms: O_31  and  C_32
REMARK   13  A    between atoms: C_32  and  C_33
REMARK                            x       y       z     vdW  Elec       q    Type
REMARK                         _______ _______ _______ _____ _____    ______ ____
ROOT
ATOM      1  C   UNL     1       1.881   8.171  18.562  0.00  0.00    +0.000 C 
ATOM      2  O   UNL     1       1.281   8.840  17.721  0.00  0.00    +0.000 OA
ATOM      3  N   UNL     1       1.808   8.320  19.937  0.00  0.00    +0.000 N 
ATOM      4  H   UNL     1       2.473   7.802  20.501  0.00  0.00    +0.000 HD
ENDROOT
BRANCH   1   7
ATOM      5  C   UNL     1       3.313   4.840  17.576  0.00  0.00    +0.000 A 
ATOM      6  C   UNL     1       2.500   5.848  18.109  0.00  0.00    +0.000 A 
ATOM      7  C   UNL     1       2.871   7.189  18.056  0.00  0.00    +0.000 A 
ATOM      8  C   UNL     1       4.127   7.530  17.571  0.00  0.00    +0.000 A 
ATOM      9  C   UNL     1       5.004   6.526  17.116  0.00  0.00    +0.000 A 
ATOM     10  C   UNL     1       4.593   5.166  17.071  0.00  0.00    +0.000 A 
BRANCH   5  11
ATOM     11  O   UNL     1       2.871   3.536  17.595  0.00  0.00    +0.000 OA
BRANCH  11  13
ATOM     12  C   UNL     1       3.585   1.405  18.474  0.00  0.00    +0.000 C 
ATOM     13  C   UNL     1       3.143   2.818  18.807  0.00  0.00    +0.000 C 
ENDBRANCH  11  13
ENDBRANCH   5  11
BRANCH   9  14
ATOM     14  O   UNL     1       6.205   7.050  16.697  0.00  0.00    +0.000 OA
BRANCH  14  15
ATOM     15  C   UNL     1       7.313   6.980  17.595  0.00  0.00    +0.000 C 
ATOM     16  C   UNL     1       7.911   8.375  17.716  0.00  0.00    +0.000 C 
ENDBRANCH  14  15
ENDBRANCH   9  14
BRANCH  10  17
ATOM     17  O   UNL     1       5.480   4.281  16.501  0.00  0.00    +0.000 OA
BRANCH  17  18
ATOM     18  C   UNL     1       5.394   4.030  15.099  0.00  0.00    +0.000 C 
ATOM     19  C   UNL     1       6.657   4.515  14.408  0.00  0.00    +0.000 C 
ENDBRANCH  17  18
ENDBRANCH  10  17
ENDBRANCH   1   7
BRANCH   3  20
ATOM     20  C   UNL     1       0.995   9.252  20.620  0.00  0.00    +0.000 A 
ATOM     21  C   UNL     1       0.206   8.919  21.718  0.00  0.00    +0.000 A 
ATOM     22  C   UNL     1      -0.571   9.886  22.368  0.00  0.00    +0.000 A 
ATOM     23  C   UNL     1      -0.594  11.226  21.965  0.00  0.00    +0.000 A 
ATOM     24  C   UNL     1       0.184  11.544  20.842  0.00  0.00    +0.000 A 
ATOM     25  C   UNL     1       0.976  10.580  20.187  0.00  0.00    +0.000 A 
BRANCH  23  26
ATOM     26  N   UNL     1      -1.324  12.168  22.662  0.00  0.00    +0.000 N 
ATOM     27  C   UNL     1      -0.855  13.558  22.793  0.00  0.00    +0.000 C 
ATOM     28  C   UNL     1      -1.943  14.536  22.300  0.00  0.00    +0.000 C 
ATOM     29  N   UNL     1      -3.238  14.277  22.943  0.00  0.00    +0.000 N 
ATOM     30  C   UNL     1      -4.032  15.177  23.623  0.00  0.00    +0.000 C 
ATOM     31  C   UNL     1      -3.607  16.618  23.758  0.00  0.00    +0.000 C 
ATOM     32  O   UNL     1      -5.101  14.835  24.138  0.00  0.00    +0.000 OA
ATOM     33  C   UNL     1      -3.689  12.881  22.808  0.00  0.00    +0.000 C 
ATOM     34  C   UNL     1      -2.619  11.890  23.307  0.00  0.00    +0.000 C 
ENDBRANCH  23  26
ENDBRANCH   3  20
TORSDOF 9
ENDMDL
MODEL 4
REMARK VINA RESULT:      -7.7      1.243      3.385
REMARK  Name = 
REMARK  13 active torsions:
REMARK  status: ('A' for Active; 'I' for Inactive)
REMARK    1  A    between atoms: C_1  and  C_2
REMARK    2  A    between atoms: C_2  and  O_3
REMARK    3  A    between atoms: O_3  and  C_4
REMARK    4  A    between atoms: C_6  and  C_7
REMARK    5  A    between atoms: N_9  and  C_10
REMARK    6  A    between atoms: C_13  and  N_14
REMARK    7  A    between atoms: C_18  and  C_19
REMARK    8  A    between atoms: C_26  and  O_27
REMARK    9  A    between atoms: O_27  and  C_28
REMARK   10  A    between atoms: C_28  and  C_29
REMARK   11  A    between atoms: C_30  and  O_31
REMARK   12  A    between atoms: O_31  and  C_32
REMARK   13  A    between atoms: C_32  and  C_33
REMARK                            x       y       z     vdW  Elec       q    Type
REMARK                         _______ _______ _______ _____ _____    ______ ____
ROOT
ATOM      1  C   UNL     1       2.062   8.694  18.201  0.00  0.00    +0.000 C 
ATOM      2  O   UNL     1       2.002   9.582  17.351  0.00  0.00    +0.000 OA
ATOM      3  N   UNL     1       1.426   8.686  19.431  0.00  0.00    +0.000 N 
ATOM      4  H   UNL     1       1.689   7.962  20.090  0.00  0.00    +0.000 HD
ENDROOT
BRANCH   1   7
ATOM      5  C   UNL     1       3.330   5.161  18.016  0.00  0.00    +0.000 A 
ATOM      6  C   UNL     1       2.570   6.303  18.300  0.00  0.00    +0.000 A 
ATOM      7  C   UNL     1       3.000   7.576  17.936  0.00  0.00    +0.000 A 
ATOM      8  C   UNL     1       4.265   7.735  17.384  0.00  0.00    +0.000 A 
ATOM      9  C   UNL     1       5.090   6.613  17.174  0.00  0.00    +0.000 A 
ATOM     10  C   UNL     1       4.618   5.301  17.447  0.00  0.00    +0.000 A 
BRANCH   5  11
ATOM     11  O   UNL     1       2.830   3.919  18.338  0.00  0.00    +0.000 OA
BRANCH  11  13
ATOM     12  C   UNL     1       0.859   2.829  19.203  0.00  0.00    +0.000 C 
ATOM     13  C   UNL     1       1.417   3.763  18.146  0.00  0.00    +0.000 C 
ENDBRANCH  11  13
ENDBRANCH   5  11
BRANCH   9  14
ATOM     14  O   UNL     1       6.309   6.969  16.644  0.00  0.00    +0.000 OA
BRANCH  14  15
ATOM     15  C   UNL     1       7.437   6.990  17.518  0.00  0.00    +0.000 C 
ATOM     16  C   UNL     1       7.884   8.437  17.676  0.00  0.00    +0.000 C 
ENDBRANCH  14  15
ENDBRANCH   9  14
BRANCH  10  17
ATOM     17  O   UNL     1       5.456   4.267  17.098  0.00  0.00    +0.000 OA
BRANCH  17  18
ATOM     18  C   UNL     1       5.308   3.667  15.812  0.00  0.00    +0.000 C 
ATOM     19  C   UNL     1       6.497   4.022  14.935  0.00  0.00    +0.000 C 
ENDBRANCH  17  18
ENDBRANCH  10  17
ENDBRANCH   1   7
BRANCH   3  20
ATOM     20  C   UNL     1       0.560   9.693  19.913  0.00  0.00    +0.000 A 
ATOM     21  C   UNL     1      -0.471  10.243  19.155  0.00  0.00    +0.000 A 
ATOM     22  C   UNL     1      -1.311  11.230  19.687  0.00  0.00    +0.000 A 
ATOM     23  C   UNL     1      -1.172  11.709  20.994  0.00  0.00    +0.000 A 
ATOM     24  C   UNL     1      -0.115  11.167  21.739  0.00  0.00    +0.000 A 
ATOM     25  C   UNL     1       0.731  10.167  21.216  0.00  0.00    +0.000 A 
BRANCH  23  26
ATOM     26  N   UNL     1      -2.052  12.638  21.510  0.00  0.00    +0.000 N 
ATOM     27  C   UNL     1      -2.638  13.693  20.664  0.00  0.00    +0.000 C 
ATOM     28  C   UNL     1      -4.178  13.657  20.759  0.00  0.00    +0.000 C 
ATOM     29  N   UNL     1      -4.638  13.684  22.153  0.00  0.00    +0.000 N 
ATOM     30  C   UNL     1      -5.538  14.559  22.724  0.00  0.00    +0.000 C 
ATOM     31  C   UNL     1      -6.185  15.638  21.891  0.00  0.00    +0.000 C 
ATOM     32  O   UNL     1      -5.836  14.492  23.920  0.00  0.00    +0.000 OA
ATOM     33  C   UNL     1      -4.038  12.628  22.987  0.00  0.00    +0.000 C 
ATOM     34  C   UNL     1      -2.498  12.655  22.914  0.00  0.00    +0.000 C 
ENDBRANCH  23  26
ENDBRANCH   3  20
TORSDOF 9
ENDMDL
MODEL 5
REMARK VINA RESULT:      -7.7      1.166      1.473
REMARK  Name = 
REMARK  13 active torsions:
REMARK  status: ('A' for Active; 'I' for Inactive)
REMARK    1  A    between atoms: C_1  and  C_2
REMARK    2  A    between atoms: C_2  and  O_3
REMARK    3  A    between atoms: O_3  and  C_4
REMARK    4  A    between atoms: C_6  and  C_7
REMARK    5  A    between atoms: N_9  and  C_10
REMARK    6  A    between atoms: C_13  and  N_14
REMARK    7  A    between atoms: C_18  and  C_19
REMARK    8  A    between atoms: C_26  and  O_27
REMARK    9  A    between atoms: O_27  and  C_28
REMARK   10  A    between atoms: C_28  and  C_29
REMARK   11  A    between atoms: C_30  and  O_31
REMARK   12  A    between atoms: O_31  and  C_32
REMARK   13  A    between atoms: C_32  and  C_33
REMARK                            x       y       z     vdW  Elec       q    Type
REMARK                         _______ _______ _______ _____ _____    ______ ____
ROOT
ATOM      1  C   UNL     1       2.071   8.649  18.123  0.00  0.00    +0.000 C 
ATOM      2  O   UNL     1       2.111   9.574  17.312  0.00  0.00    +0.000 OA
ATOM      3  N   UNL     1       1.389   8.639  19.329  0.00  0.00    +0.000 N 
ATOM      4  H   UNL     1       1.571   7.870  19.964  0.00  0.00    +0.000 HD
ENDROOT
BRANCH   1   7
ATOM      5  C   UNL     1       5.135   6.717  17.124  0.00  0.00    +0.000 A 
ATOM      6  C   UNL     1       4.203   7.739  17.339  0.00  0.00    +0.000 A 
ATOM      7  C   UNL     1       2.932   7.474  17.843  0.00  0.00    +0.000 A 
ATOM      8  C   UNL     1       2.533   6.156  18.026  0.00  0.00    +0.000 A 
ATOM      9  C   UNL     1       3.419   5.102  17.726  0.00  0.00    +0.000 A 
ATOM     10  C   UNL     1       4.752   5.368  17.311  0.00  0.00    +0.000 A 
BRANCH   5  11
ATOM     11  O   UNL     1       6.401   7.038  16.686  0.00  0.00    +0.000 OA
BRANCH  11  13
ATOM     12  C   UNL     1       7.975   8.499  17.787  0.00  0.00    +0.000 C 
ATOM     13  C   UNL     1       7.403   7.096  17.711  0.00  0.00    +0.000 C 
ENDBRANCH  11  13
ENDBRANCH   5  11
BRANCH   9  14
ATOM     14  O   UNL     1       2.842   3.873  17.948  0.00  0.00    +0.000 OA
BRANCH  14  15
ATOM     15  C   UNL     1       1.479   3.842  18.372  0.00  0.00    +0.000 C 
ATOM     16  C   UNL     1       1.190   2.456  18.931  0.00  0.00    +0.000 C 
ENDBRANCH  14  15
ENDBRANCH   9  14
BRANCH  10  17
ATOM     17  O   UNL     1       5.571   4.273  17.158  0.00  0.00    +0.000 OA
BRANCH  17  18
ATOM     18  C   UNL     1       5.474   3.504  15.960  0.00  0.00    +0.000 C 
ATOM     19  C   UNL     1       5.888   4.350  14.768  0.00  0.00    +0.000 C 
ENDBRANCH  17  18
ENDBRANCH  10  17
ENDBRANCH   1   7
BRANCH   3  20
ATOM     20  C   UNL     1       0.584   9.689  19.825  0.00  0.00    +0.000 A 
ATOM     21  C   UNL     1      -0.499  10.218  19.126  0.00  0.00    +0.000 A 
ATOM     22  C   UNL     1      -1.274  11.250  19.670  0.00  0.00    +0.000 A 
ATOM     23  C   UNL     1      -1.017  11.797  20.932  0.00  0.00    +0.000 A 
ATOM     24  C   UNL     1       0.091  11.274  21.615  0.00  0.00    +0.000 A 
ATOM     25  C   UNL     1       0.873  10.230  21.080  0.00  0.00    +0.000 A 
BRANCH  23  26
ATOM     26  N   UNL     1      -1.834  12.772  21.467  0.00  0.00    +0.000 N 
ATOM     27  C   UNL     1      -3.267  12.842  21.130  0.00  0.00    +0.000 C 
ATOM     28  C   UNL     1      -4.118  12.828  22.417  0.00  0.00    +0.000 C 
ATOM     29  N   UNL     1      -3.676  13.853  23.372  0.00  0.00    +0.000 N 
ATOM     30  C   UNL     1      -4.445  14.830  23.969  0.00  0.00    +0.000 C 
ATOM     31  C   UNL     1      -5.922  14.924  23.676  0.00  0.00    +0.000 C 
ATOM     32  O   UNL     1      -3.954  15.652  24.749  0.00  0.00    +0.000 OA
ATOM     33  C   UNL     1      -2.241  13.773  23.693  0.00  0.00    +0.000 C 
ATOM     34  C   UNL     1      -1.374  13.797  22.419  0.00  0.00    +0.000 C 
ENDBRANCH  23  26
ENDBRANCH   3  20
TORSDOF 9
ENDMDL
MODEL 6
REMARK VINA RESULT:      -7.7      0.964      3.057
REMARK  Name = 
REMARK  13 active torsions:
REMARK  status: ('A' for Active; 'I' for Inactive)
REMARK    1  A    between atoms: C_1  and  C_2
REMARK    2  A    between atoms: C_2  and  O_3
REMARK    3  A    between atoms: O_3  and  C_4
REMARK    4  A    between atoms: C_6  and  C_7
REMARK    5  A    between atoms: N_9  and  C_10
REMARK    6  A    between atoms: C_13  and  N_14
REMARK    7  A    between atoms: C_18  and  C_19
REMARK    8  A    between atoms: C_26  and  O_27
REMARK    9  A    between atoms: O_27  and  C_28
REMARK   10  A    between atoms: C_28  and  C_29
REMARK   11  A    between atoms: C_30  and  O_31
REMARK   12  A    between atoms: O_31  and  C_32
REMARK   13  A    between atoms: C_32  and  C_33
REMARK                            x       y       z     vdW  Elec       q    Type
REMARK                         _______ _______ _______ _____ _____    ______ ____
ROOT
ATOM      1  C   UNL     1       2.208   7.914  18.764  0.00  0.00    +0.000 C 
ATOM      2  O   UNL     1       1.922   7.675  19.937  0.00  0.00    +0.000 OA
ATOM      3  N   UNL     1       1.697   8.938  17.984  0.00  0.00    +0.000 N 
ATOM      4  H   UNL     1       1.907   8.921  16.992  0.00  0.00    +0.000 HD
ENDROOT
BRANCH   1   7
ATOM      5  C   UNL     1       3.339   4.653  17.280  0.00  0.00    +0.000 A 
ATOM      6  C   UNL     1       2.631   5.634  17.984  0.00  0.00    +0.000 A 
ATOM      7  C   UNL     1       3.096   6.943  18.080  0.00  0.00    +0.000 A 
ATOM      8  C   UNL     1       4.348   7.260  17.567  0.00  0.00    +0.000 A 
ATOM      9  C   UNL     1       5.125   6.269  16.937  0.00  0.00    +0.000 A 
ATOM     10  C   UNL     1       4.613   4.957  16.745  0.00  0.00    +0.000 A 
BRANCH   5  11
ATOM     11  O   UNL     1       2.804   3.389  17.160  0.00  0.00    +0.000 OA
BRANCH  11  13
ATOM     12  C   UNL     1       3.595   1.527  18.475  0.00  0.00    +0.000 C 
ATOM     13  C   UNL     1       2.619   2.686  18.396  0.00  0.00    +0.000 C 
ENDBRANCH  11  13
ENDBRANCH   5  11
BRANCH   9  14
ATOM     14  O   UNL     1       6.338   6.762  16.517  0.00  0.00    +0.000 OA
BRANCH  14  15
ATOM     15  C   UNL     1       7.253   7.219  17.512  0.00  0.00    +0.000 C 
ATOM     16  C   UNL     1       7.681   6.020  18.346  0.00  0.00    +0.000 C 
ENDBRANCH  14  15
ENDBRANCH   9  14
BRANCH  10  17
ATOM     17  O   UNL     1       5.402   4.097  16.015  0.00  0.00    +0.000 OA
BRANCH  17  18
ATOM     18  C   UNL     1       5.395   4.200  14.591  0.00  0.00    +0.000 C 
ATOM     19  C   UNL     1       6.813   4.390  14.080  0.00  0.00    +0.000 C 
ENDBRANCH  17  18
ENDBRANCH  10  17
ENDBRANCH   1   7
BRANCH   3  20
ATOM     20  C   UNL     1       0.775   9.917  18.416  0.00  0.00    +0.000 A 
ATOM     21  C   UNL     1      -0.563   9.931  18.027  0.00  0.00    +0.000 A 
ATOM     22  C   UNL     1      -1.440  10.918  18.497  0.00  0.00    +0.000 A 
ATOM     23  C   UNL     1      -1.034  11.926  19.377  0.00  0.00    +0.000 A 
ATOM     24  C   UNL     1       0.321  11.917  19.740  0.00  0.00    +0.000 A 
ATOM     25  C   UNL     1       1.210  10.924  19.280  0.00  0.00    +0.000 A 
BRANCH  23  26
ATOM     26  N   UNL     1      -1.934  12.849  19.869  0.00  0.00    +0.000 N 
ATOM     27  C   UNL     1      -3.369  12.535  19.986  0.00  0.00    +0.000 C 
ATOM     28  C   UNL     1      -3.852  12.778  21.431  0.00  0.00    +0.000 C 
ATOM     29  N   UNL     1      -3.492  14.121  21.906  0.00  0.00    +0.000 N 
ATOM     30  C   UNL     1      -4.333  15.075  22.439  0.00  0.00    +0.000 C 
ATOM     31  C   UNL     1      -5.805  14.788  22.604  0.00  0.00    +0.000 C 
ATOM     32  O   UNL     1      -3.914  16.182  22.790  0.00  0.00    +0.000 OA
ATOM     33  C   UNL     1      -2.056  14.421  21.776  0.00  0.00    +0.000 C 
ATOM     34  C   UNL     1      -1.558  14.195  20.335  0.00  0.00    +0.000 C 
ENDBRANCH  23  26
ENDBRANCH   3  20
TORSDOF 9
ENDMDL
MODEL 7
REMARK VINA RESULT:      -7.6      1.710      3.594
REMARK  Name = 
REMARK  13 active torsions:
REMARK  status: ('A' for Active; 'I' for Inactive)
REMARK    1  A    between atoms: C_1  and  C_2
REMARK    2  A    between atoms: C_2  and  O_3
REMARK    3  A    between atoms: O_3  and  C_4
REMARK    4  A    between atoms: C_6  and  C_7
REMARK    5  A    between atoms: N_9  and  C_10
REMARK    6  A    between atoms: C_13  and  N_14
REMARK    7  A    between atoms: C_18  and  C_19
REMARK    8  A    between atoms: C_26  and  O_27
REMARK    9  A    between atoms: O_27  and  C_28
REMARK   10  A    between atoms: C_28  and  C_29
REMARK   11  A    between atoms: C_30  and  O_31
REMARK   12  A    between atoms: O_31  and  C_32
REMARK   13  A    between atoms: C_32  and  C_33
REMARK                            x       y       z     vdW  Elec       q    Type
REMARK                         _______ _______ _______ _____ _____    ______ ____
ROOT
ATOM      1  C   UNL     1       1.620   8.925  19.005  0.00  0.00    +0.000 C 
ATOM      2  O   UNL     1       1.854   9.857  18.235  0.00  0.00    +0.000 OA
ATOM      3  N   UNL     1       0.771   8.956  20.099  0.00  0.00    +0.000 N 
ATOM      4  H   UNL     1       0.792   8.164  20.732  0.00  0.00    +0.000 HD
ENDROOT
BRANCH   1   7
ATOM      5  C   UNL     1       2.940   5.480  19.715  0.00  0.00    +0.000 A 
ATOM      6  C   UNL     1       2.313   6.728  19.825  0.00  0.00    +0.000 A 
ATOM      7  C   UNL     1       2.409   7.685  18.818  0.00  0.00    +0.000 A 
ATOM      8  C   UNL     1       3.240   7.447  17.730  0.00  0.00    +0.000 A 
ATOM      9  C   UNL     1       3.957   6.238  17.639  0.00  0.00    +0.000 A 
ATOM     10  C   UNL     1       3.785   5.216  18.611  0.00  0.00    +0.000 A 
BRANCH   5  11
ATOM     11  O   UNL     1       2.761   4.544  20.709  0.00  0.00    +0.000 OA
BRANCH  11  13
ATOM     12  C   UNL     1       1.426   2.696  21.500  0.00  0.00    +0.000 C 
ATOM     13  C   UNL     1       1.415   4.076  20.868  0.00  0.00    +0.000 C 
ENDBRANCH  11  13
ENDBRANCH   5  11
BRANCH   9  14
ATOM     14  O   UNL     1       4.741   6.194  16.510  0.00  0.00    +0.000 OA
BRANCH  14  15
ATOM     15  C   UNL     1       6.150   6.363  16.668  0.00  0.00    +0.000 C 
ATOM     16  C   UNL     1       6.847   5.235  15.921  0.00  0.00    +0.000 C 
ENDBRANCH  14  15
ENDBRANCH   9  14
BRANCH  10  17
ATOM     17  O   UNL     1       4.440   4.030  18.369  0.00  0.00    +0.000 OA
BRANCH  17  18
ATOM     18  C   UNL     1       3.821   3.063  17.521  0.00  0.00    +0.000 C 
ATOM     19  C   UNL     1       3.310   1.898  18.351  0.00  0.00    +0.000 C 
ENDBRANCH  17  18
ENDBRANCH  10  17
ENDBRANCH   1   7
BRANCH   3  20
ATOM     20  C   UNL     1      -0.007  10.064  20.503  0.00  0.00    +0.000 A 
ATOM     21  C   UNL     1      -0.818  10.789  19.632  0.00  0.00    +0.000 A 
ATOM     22  C   UNL     1      -1.580  11.872  20.089  0.00  0.00    +0.000 A 
ATOM     23  C   UNL     1      -1.580  12.279  21.427  0.00  0.00    +0.000 A 
ATOM     24  C   UNL     1      -0.740  11.559  22.289  0.00  0.00    +0.000 A 
ATOM     25  C   UNL     1       0.024  10.463  21.842  0.00  0.00    +0.000 A 
BRANCH  23  26
ATOM     26  N   UNL     1      -2.387  13.312  21.859  0.00  0.00    +0.000 N 
ATOM     27  C   UNL     1      -3.778  13.446  21.392  0.00  0.00    +0.000 C 
ATOM     28  C   UNL     1      -4.740  13.518  22.596  0.00  0.00    +0.000 C 
ATOM     29  N   UNL     1      -4.330  14.549  23.559  0.00  0.00    +0.000 N 
ATOM     30  C   UNL     1      -5.094  15.584  24.056  0.00  0.00    +0.000 C 
ATOM     31  C   UNL     1      -6.532  15.744  23.628  0.00  0.00    +0.000 C 
ATOM     32  O   UNL     1      -4.630  16.404  24.854  0.00  0.00    +0.000 OA
ATOM     33  C   UNL     1      -2.935  14.405  24.010  0.00  0.00    +0.000 C 
ATOM     34  C   UNL     1      -1.958  14.342  22.820  0.00  0.00    +0.000 C 
ENDBRANCH  23  26
ENDBRANCH   3  20
TORSDOF 9
ENDMDL
MODEL 8
REMARK VINA RESULT:      -7.6      1.038      1.428
REMARK  Name = 
REMARK  13 active torsions:
REMARK  status: ('A' for Active; 'I' for Inactive)
REMARK    1  A    between atoms: C_1  and  C_2
REMARK    2  A    between atoms: C_2  and  O_3
REMARK    3  A    between atoms: O_3  and  C_4
REMARK    4  A    between atoms: C_6  and  C_7
REMARK    5  A    between atoms: N_9  and  C_10
REMARK    6  A    between atoms: C_13  and  N_14
REMARK    7  A    between atoms: C_18  and  C_19
REMARK    8  A    between atoms: C_26  and  O_27
REMARK    9  A    between atoms: O_27  and  C_28
REMARK   10  A    between atoms: C_28  and  C_29
REMARK   11  A    between atoms: C_30  and  O_31
REMARK   12  A    between atoms: O_31  and  C_32
REMARK   13  A    between atoms: C_32  and  C_33
REMARK                            x       y       z     vdW  Elec       q    Type
REMARK                         _______ _______ _______ _____ _____    ______ ____
ROOT
ATOM      1  C   UNL     1       2.182   7.259  19.407  0.00  0.00    +0.000 C 
ATOM      2  O   UNL     1       1.815   6.727  20.455  0.00  0.00    +0.000 OA
ATOM      3  N   UNL     1       1.804   8.508  18.942  0.00  0.00    +0.000 N 
ATOM      4  H   UNL     1       2.063   8.753  17.993  0.00  0.00    +0.000 HD
ENDROOT
BRANCH   1   7
ATOM      5  C   UNL     1       5.020   6.378  17.108  0.00  0.00    +0.000 A 
ATOM      6  C   UNL     1       4.110   7.074  17.913  0.00  0.00    +0.000 A 
ATOM      7  C   UNL     1       3.015   6.440  18.495  0.00  0.00    +0.000 A 
ATOM      8  C   UNL     1       2.749   5.114  18.178  0.00  0.00    +0.000 A 
ATOM      9  C   UNL     1       3.595   4.415  17.295  0.00  0.00    +0.000 A 
ATOM     10  C   UNL     1       4.771   5.025  16.779  0.00  0.00    +0.000 A 
BRANCH   5  11
ATOM     11  O   UNL     1       6.122   7.036  16.609  0.00  0.00    +0.000 OA
BRANCH  11  13
ATOM     12  C   UNL     1       7.858   8.328  17.676  0.00  0.00    +0.000 C 
ATOM     13  C   UNL     1       7.305   6.939  17.415  0.00  0.00    +0.000 C 
ENDBRANCH  11  13
ENDBRANCH   5  11
BRANCH   9  14
ATOM     14  O   UNL     1       3.161   3.127  17.084  0.00  0.00    +0.000 OA
BRANCH  14  15
ATOM     15  C   UNL     1       3.423   2.160  18.100  0.00  0.00    +0.000 C 
ATOM     16  C   UNL     1       2.106   1.830  18.789  0.00  0.00    +0.000 C 
ENDBRANCH  14  15
ENDBRANCH   9  14
BRANCH  10  17
ATOM     17  O   UNL     1       5.590   4.220  16.021  0.00  0.00    +0.000 OA
BRANCH  17  18
ATOM     18  C   UNL     1       5.551   4.343  14.599  0.00  0.00    +0.000 C 
ATOM     19  C   UNL     1       6.916   4.757  14.078  0.00  0.00    +0.000 C 
ENDBRANCH  17  18
ENDBRANCH  10  17
ENDBRANCH   1   7
BRANCH   3  20
ATOM     20  C   UNL     1       0.951   9.410  19.614  0.00  0.00    +0.000 A 
ATOM     21  C   UNL     1       1.002   9.632  20.989  0.00  0.00    +0.000 A 
ATOM     22  C   UNL     1       0.140  10.550  21.604  0.00  0.00    +0.000 A 
ATOM     23  C   UNL     1      -0.802  11.294  20.885  0.00  0.00    +0.000 A 
ATOM     24  C   UNL     1      -0.862  11.043  19.507  0.00  0.00    +0.000 A 
ATOM     25  C   UNL     1       0.006  10.128  18.877  0.00  0.00    +0.000 A 
BRANCH  23  26
ATOM     26  N   UNL     1      -1.596  12.234  21.511  0.00  0.00    +0.000 N 
ATOM     27  C   UNL     1      -1.649  12.340  22.979  0.00  0.00    +0.000 C 
ATOM     28  C   UNL     1      -1.320  13.782  23.421  0.00  0.00    +0.000 C 
ATOM     29  N   UNL     1      -2.151  14.768  22.719  0.00  0.00    +0.000 N 
ATOM     30  C   UNL     1      -2.938  15.753  23.279  0.00  0.00    +0.000 C 
ATOM     31  C   UNL     1      -3.001  15.918  24.778  0.00  0.00    +0.000 C 
ATOM     32  O   UNL     1      -3.609  16.519  22.581  0.00  0.00    +0.000 OA
ATOM     33  C   UNL     1      -2.092  14.644  21.253  0.00  0.00    +0.000 C 
ATOM     34  C   UNL     1      -2.429  13.213  20.791  0.00  0.00    +0.000 C 
ENDBRANCH  23  26
ENDBRANCH   3  20
TORSDOF 9
ENDMDL
MODEL 9
REMARK VINA RESULT:      -7.6      0.994      1.097
REMARK  Name = 
REMARK  13 active torsions:
REMARK  status: ('A' for Active; 'I' for Inactive)
REMARK    1  A    between atoms: C_1  and  C_2
REMARK    2  A    between atoms: C_2  and  O_3
REMARK    3  A    between atoms: O_3  and  C_4
REMARK    4  A    between atoms: C_6  and  C_7
REMARK    5  A    between atoms: N_9  and  C_10
REMARK    6  A    between atoms: C_13  and  N_14
REMARK    7  A    between atoms: C_18  and  C_19
REMARK    8  A    between atoms: C_26  and  O_27
REMARK    9  A    between atoms: O_27  and  C_28
REMARK   10  A    between atoms: C_28  and  C_29
REMARK   11  A    between atoms: C_30  and  O_31
REMARK   12  A    between atoms: O_31  and  C_32
REMARK   13  A    between atoms: C_32  and  C_33
REMARK                            x       y       z     vdW  Elec       q    Type
REMARK                         _______ _______ _______ _____ _____    ______ ____
ROOT
ATOM      1  C   UNL     1       2.188   7.784  18.853  0.00  0.00    +0.000 C 
ATOM      2  O   UNL     1       1.919   7.523  20.025  0.00  0.00    +0.000 OA
ATOM      3  N   UNL     1       1.682   8.837  18.107  0.00  0.00    +0.000 N 
ATOM      4  H   UNL     1       1.873   8.840  17.111  0.00  0.00    +0.000 HD
ENDROOT
BRANCH   1   7
ATOM      5  C   UNL     1       5.149   6.477  16.945  0.00  0.00    +0.000 A 
ATOM      6  C   UNL     1       4.218   7.315  17.572  0.00  0.00    +0.000 A 
ATOM      7  C   UNL     1       3.044   6.815  18.129  0.00  0.00    +0.000 A 
ATOM      8  C   UNL     1       2.728   5.473  17.959  0.00  0.00    +0.000 A 
ATOM      9  C   UNL     1       3.602   4.625  17.249  0.00  0.00    +0.000 A 
ATOM     10  C   UNL     1       4.849   5.106  16.768  0.00  0.00    +0.000 A 
BRANCH   5  11
ATOM     11  O   UNL     1       6.325   7.012  16.468  0.00  0.00    +0.000 OA
BRANCH  11  13
ATOM     12  C   UNL     1       7.740   6.547  18.366  0.00  0.00    +0.000 C 
ATOM     13  C   UNL     1       7.164   7.619  17.460  0.00  0.00    +0.000 C 
ENDBRANCH  11  13
ENDBRANCH   5  11
BRANCH   9  14
ATOM     14  O   UNL     1       3.111   3.343  17.164  0.00  0.00    +0.000 OA
BRANCH  14  15
ATOM     15  C   UNL     1       3.151   2.534  18.339  0.00  0.00    +0.000 C 
ATOM     16  C   UNL     1       1.727   2.108  18.668  0.00  0.00    +0.000 C 
ENDBRANCH  14  15
ENDBRANCH   9  14
BRANCH  10  17
ATOM     17  O   UNL     1       5.680   4.172  16.193  0.00  0.00    +0.000 OA
BRANCH  17  18
ATOM     18  C   UNL     1       5.639   3.993  14.778  0.00  0.00    +0.000 C 
ATOM     19  C   UNL     1       6.862   4.630  14.141  0.00  0.00    +0.000 C 
ENDBRANCH  17  18
ENDBRANCH  10  17
ENDBRANCH   1   7
BRANCH   3  20
ATOM     20  C   UNL     1       0.787   9.821  18.580  0.00  0.00    +0.000 A 
ATOM     21  C   UNL     1       1.172  10.868  19.415  0.00  0.00    +0.000 A 
ATOM     22  C   UNL     1       0.246  11.827  19.844  0.00  0.00    +0.000 A 
ATOM     23  C   UNL     1      -1.099  11.798  19.459  0.00  0.00    +0.000 A 
ATOM     24  C   UNL     1      -1.481  10.725  18.639  0.00  0.00    +0.000 A 
ATOM     25  C   UNL     1      -0.555   9.760  18.196  0.00  0.00    +0.000 A 
BRANCH  23  26
ATOM     26  N   UNL     1      -1.975  12.790  19.849  0.00  0.00    +0.000 N 
ATOM     27  C   UNL     1      -3.433  12.577  19.836  0.00  0.00    +0.000 C 
ATOM     28  C   UNL     1      -4.029  12.885  21.225  0.00  0.00    +0.000 C 
ATOM     29  N   UNL     1      -3.622  14.211  21.709  0.00  0.00    +0.000 N 
ATOM     30  C   UNL     1      -4.440  15.232  22.146  0.00  0.00    +0.000 C 
ATOM     31  C   UNL     1      -5.937  15.050  22.176  0.00  0.00    +0.000 C 
ATOM     32  O   UNL     1      -3.979  16.316  22.516  0.00  0.00    +0.000 OA
ATOM     33  C   UNL     1      -2.163  14.411  21.710  0.00  0.00    +0.000 C 
ATOM     34  C   UNL     1      -1.551  14.118  20.326  0.00  0.00    +0.000 C 
ENDBRANCH  23  26
ENDBRANCH   3  20
TORSDOF 9
ENDMDL
