MODEL 1
REMARK VINA RESULT:      -6.1      0.000      0.000
REMARK  Name = 
REMARK  4 active torsions:
REMARK  status: ('A' for Active; 'I' for Inactive)
REMARK    1  A    between atoms: C_1  and  C_2
REMARK    2  A    between atoms: C_2  and  O_3
REMARK    3  A    between atoms: O_3  and  C_4
REMARK    4  A    between atoms: C_4  and  C_6
REMARK                            x       y       z     vdW  Elec       q    Type
REMARK                         _______ _______ _______ _____ _____    ______ ____
ROOT
ATOM      1  C   UNL     1       5.802   4.277  17.531  0.00  0.00    +0.000 A 
ATOM      2  C   UNL     1       4.694   3.928  16.771  0.00  0.00    +0.000 A 
ATOM      3  N   UNL     1       3.794   3.409  17.650  0.00  0.00    +0.000 N 
ATOM      4  C   UNL     1       2.529   2.884  17.482  0.00  0.00    +0.000 A 
ATOM      5  C   UNL     1       1.880   2.441  18.572  0.00  0.00    +0.000 A 
ATOM      6  N   UNL     1       2.405   2.472  19.857  0.00  0.00    +0.000 NA
ATOM      7  C   UNL     1       3.607   2.966  20.008  0.00  0.00    +0.000 A 
ATOM      8  C   UNL     1       4.364   3.465  18.894  0.00  0.00    +0.000 A 
ATOM      9  N   UNL     1       5.575   3.978  18.873  0.00  0.00    +0.000 NA
ENDROOT
BRANCH   1  10
ATOM     10  C   UNL     1       7.047   4.809  16.984  0.00  0.00    +0.000 C 
ATOM     11  O   UNL     1       8.132   4.261  17.154  0.00  0.00    +0.000 OA
BRANCH  10  12
ATOM     12  O   UNL     1       6.880   6.015  16.367  0.00  0.00    +0.000 OA
BRANCH  12  14
ATOM     13  C   UNL     1       7.765   7.841  17.628  0.00  0.00    +0.000 C 
ATOM     14  C   UNL     1       6.504   7.087  17.239  0.00  0.00    +0.000 C 
ENDBRANCH  12  14
ENDBRANCH  10  12
ENDBRANCH   1  10
TORSDOF 3
ENDMDL
MODEL 2
REMARK VINA RESULT:      -5.9      3.077      5.396
REMARK  Name = 
REMARK  4 active torsions:
REMARK  status: ('A' for Active; 'I' for Inactive)
REMARK    1  A    between atoms: C_1  and  C_2
REMARK    2  A    between atoms: C_2  and  O_3
REMARK    3  A    between atoms: O_3  and  C_4
REMARK    4  A    between atoms: C_4  and  C_6
REMARK                            x       y       z     vdW  Elec       q    Type
REMARK                         _______ _______ _______ _____ _____    ______ ____
ROOT
ATOM      1  C   UNL     1       3.285   4.442  18.100  0.00  0.00    +0.000 A 
ATOM      2  C   UNL     1       4.115   4.930  19.100  0.00  0.00    +0.000 A 
ATOM      3  N   UNL     1       5.367   4.935  18.568  0.00  0.00    +0.000 N 
ATOM      4  C   UNL     1       6.594   5.296  19.085  0.00  0.00    +0.000 A 
ATOM      5  C   UNL     1       7.672   5.185  18.290  0.00  0.00    +0.000 A 
ATOM      6  N   UNL     1       7.630   4.722  16.983  0.00  0.00    +0.000 NA
ATOM      7  C   UNL     1       6.464   4.376  16.500  0.00  0.00    +0.000 A 
ATOM      8  C   UNL     1       5.264   4.470  17.283  0.00  0.00    +0.000 A 
ATOM      9  N   UNL     1       4.029   4.158  16.956  0.00  0.00    +0.000 NA
ENDROOT
BRANCH   1  10
ATOM     10  C   UNL     1       1.854   4.195  18.258  0.00  0.00    +0.000 C 
ATOM     11  O   UNL     1       1.116   3.947  17.310  0.00  0.00    +0.000 OA
BRANCH  10  12
ATOM     12  O   UNL     1       1.427   4.372  19.542  0.00  0.00    +0.000 OA
BRANCH  12  14
ATOM     13  C   UNL     1       1.794   3.043  21.494  0.00  0.00    +0.000 C 
ATOM     14  C   UNL     1       1.003   3.173  20.203  0.00  0.00    +0.000 C 
ENDBRANCH  12  14
ENDBRANCH  10  12
ENDBRANCH   1  10
TORSDOF 3
ENDMDL
MODEL 3
REMARK VINA RESULT:      -5.9      2.972      4.393
REMARK  Name = 
REMARK  4 active torsions:
REMARK  status: ('A' for Active; 'I' for Inactive)
REMARK    1  A    between atoms: C_1  and  C_2
REMARK    2  A    between atoms: C_2  and  O_3
REMARK    3  A    between atoms: O_3  and  C_4
REMARK    4  A    between atoms: C_4  and  C_6
REMARK                            x       y       z     vdW  Elec       q    Type
REMARK                         _______ _______ _______ _____ _____    ______ ____
ROOT
ATOM      1  C   UNL     1       6.654   4.713  15.280  0.00  0.00    +0.000 A 
ATOM      2  C   UNL     1       5.431   4.560  15.919  0.00  0.00    +0.000 A 
ATOM      3  N   UNL     1       5.674   4.796  17.237  0.00  0.00    +0.000 N 
ATOM      4  C   UNL     1       4.858   4.776  18.350  0.00  0.00    +0.000 A 
ATOM      5  C   UNL     1       5.410   5.060  19.542  0.00  0.00    +0.000 A 
ATOM      6  N   UNL     1       6.751   5.364  19.727  0.00  0.00    +0.000 NA
ATOM      7  C   UNL     1       7.521   5.376  18.668  0.00  0.00    +0.000 A 
ATOM      8  C   UNL     1       7.007   5.089  17.358  0.00  0.00    +0.000 A 
ATOM      9  N   UNL     1       7.640   5.050  16.206  0.00  0.00    +0.000 NA
ENDROOT
BRANCH   1  10
ATOM     10  C   UNL     1       6.879   4.479  13.856  0.00  0.00    +0.000 C 
ATOM     11  O   UNL     1       7.510   5.258  13.149  0.00  0.00    +0.000 OA
BRANCH  10  12
ATOM     12  O   UNL     1       6.229   3.372  13.394  0.00  0.00    +0.000 OA
BRANCH  12  14
ATOM     13  C   UNL     1       4.599   3.302  11.648  0.00  0.00    +0.000 C 
ATOM     14  C   UNL     1       6.084   3.313  11.969  0.00  0.00    +0.000 C 
ENDBRANCH  12  14
ENDBRANCH  10  12
ENDBRANCH   1  10
TORSDOF 3
ENDMDL
MODEL 4
REMARK VINA RESULT:      -5.9      2.732      5.239
REMARK  Name = 
REMARK  4 active torsions:
REMARK  status: ('A' for Active; 'I' for Inactive)
REMARK    1  A    between atoms: C_1  and  C_2
REMARK    2  A    between atoms: C_2  and  O_3
REMARK    3  A    between atoms: O_3  and  C_4
REMARK    4  A    between atoms: C_4  and  C_6
REMARK                            x       y       z     vdW  Elec       q    Type
REMARK                         _______ _______ _______ _____ _____    ______ ____
ROOT
ATOM      1  C   UNL     1       4.296   3.344  17.857  0.00  0.00    +0.000 A 
ATOM      2  C   UNL     1       4.990   3.911  18.917  0.00  0.00    +0.000 A 
ATOM      3  N   UNL     1       5.866   4.788  18.355  0.00  0.00    +0.000 N 
ATOM      4  C   UNL     1       6.821   5.624  18.898  0.00  0.00    +0.000 A 
ATOM      5  C   UNL     1       7.543   6.385  18.059  0.00  0.00    +0.000 A 
ATOM      6  N   UNL     1       7.397   6.378  16.679  0.00  0.00    +0.000 NA
ATOM      7  C   UNL     1       6.494   5.579  16.170  0.00  0.00    +0.000 A 
ATOM      8  C   UNL     1       5.677   4.737  16.999  0.00  0.00    +0.000 A 
ATOM      9  N   UNL     1       4.743   3.880  16.651  0.00  0.00    +0.000 NA
ENDROOT
BRANCH   1  10
ATOM     10  C   UNL     1       3.298   2.286  17.992  0.00  0.00    +0.000 C 
ATOM     11  O   UNL     1       3.573   1.167  18.414  0.00  0.00    +0.000 OA
BRANCH  10  12
ATOM     12  O   UNL     1       2.076   2.648  17.506  0.00  0.00    +0.000 OA
BRANCH  12  14
ATOM     13  C   UNL     1       0.894   3.075  19.539  0.00  0.00    +0.000 C 
ATOM     14  C   UNL     1       1.419   3.683  18.249  0.00  0.00    +0.000 C 
ENDBRANCH  12  14
ENDBRANCH  10  12
ENDBRANCH   1  10
TORSDOF 3
ENDMDL
MODEL 5
REMARK VINA RESULT:      -5.8      2.733      5.126
REMARK  Name = 
REMARK  4 active torsions:
REMARK  status: ('A' for Active; 'I' for Inactive)
REMARK    1  A    between atoms: C_1  and  C_2
REMARK    2  A    between atoms: C_2  and  O_3
REMARK    3  A    between atoms: O_3  and  C_4
REMARK    4  A    between atoms: C_4  and  C_6
REMARK                            x       y       z     vdW  Elec       q    Type
REMARK                         _______ _______ _______ _____ _____    ______ ____
ROOT
ATOM      1  C   UNL     1       4.594   3.577  18.753  0.00  0.00    +0.000 A 
ATOM      2  C   UNL     1       4.237   3.462  17.416  0.00  0.00    +0.000 A 
ATOM      3  N   UNL     1       5.212   4.106  16.719  0.00  0.00    +0.000 N 
ATOM      4  C   UNL     1       5.392   4.336  15.370  0.00  0.00    +0.000 A 
ATOM      5  C   UNL     1       6.482   5.020  14.986  0.00  0.00    +0.000 A 
ATOM      6  N   UNL     1       7.436   5.519  15.862  0.00  0.00    +0.000 NA
ATOM      7  C   UNL     1       7.258   5.302  17.140  0.00  0.00    +0.000 A 
ATOM      8  C   UNL     1       6.121   4.574  17.631  0.00  0.00    +0.000 A 
ATOM      9  N   UNL     1       5.791   4.282  18.869  0.00  0.00    +0.000 NA
ENDROOT
BRANCH   1  10
ATOM     10  C   UNL     1       3.789   3.090  19.870  0.00  0.00    +0.000 C 
ATOM     11  O   UNL     1       4.153   2.172  20.598  0.00  0.00    +0.000 OA
BRANCH  10  12
ATOM     12  O   UNL     1       2.567   3.694  19.942  0.00  0.00    +0.000 OA
BRANCH  12  14
ATOM     13  C   UNL     1       0.879   2.433  18.817  0.00  0.00    +0.000 C 
ATOM     14  C   UNL     1       1.470   2.801  20.167  0.00  0.00    +0.000 C 
ENDBRANCH  12  14
ENDBRANCH  10  12
ENDBRANCH   1  10
TORSDOF 3
ENDMDL
MODEL 6
REMARK VINA RESULT:      -5.7      3.212      5.179
REMARK  Name = 
REMARK  4 active torsions:
REMARK  status: ('A' for Active; 'I' for Inactive)
REMARK    1  A    between atoms: C_1  and  C_2
REMARK    2  A    between atoms: C_2  and  O_3
REMARK    3  A    between atoms: O_3  and  C_4
REMARK    4  A    between atoms: C_4  and  C_6
REMARK                            x       y       z     vdW  Elec       q    Type
REMARK                         _______ _______ _______ _____ _____    ______ ____
ROOT
ATOM      1  C   UNL     1       4.000   5.485  18.863  0.00  0.00    +0.000 A 
ATOM      2  C   UNL     1       3.860   5.375  17.486  0.00  0.00    +0.000 A 
ATOM      3  N   UNL     1       5.101   5.080  17.013  0.00  0.00    +0.000 N 
ATOM      4  C   UNL     1       5.584   4.871  15.737  0.00  0.00    +0.000 A 
ATOM      5  C   UNL     1       6.890   4.593  15.594  0.00  0.00    +0.000 A 
ATOM      6  N   UNL     1       7.789   4.510  16.648  0.00  0.00    +0.000 NA
ATOM      7  C   UNL     1       7.326   4.714  17.855  0.00  0.00    +0.000 A 
ATOM      8  C   UNL     1       5.941   5.012  18.093  0.00  0.00    +0.000 A 
ATOM      9  N   UNL     1       5.324   5.251  19.229  0.00  0.00    +0.000 NA
ENDROOT
BRANCH   1  10
ATOM     10  C   UNL     1       2.926   5.866  19.776  0.00  0.00    +0.000 C 
ATOM     11  O   UNL     1       2.431   6.989  19.784  0.00  0.00    +0.000 OA
BRANCH  10  12
ATOM     12  O   UNL     1       2.619   4.882  20.670  0.00  0.00    +0.000 OA
BRANCH  12  14
ATOM     13  C   UNL     1       1.352   2.933  21.222  0.00  0.00    +0.000 C 
ATOM     14  C   UNL     1       1.362   4.235  20.440  0.00  0.00    +0.000 C 
ENDBRANCH  12  14
ENDBRANCH  10  12
ENDBRANCH   1  10
TORSDOF 3
ENDMDL
MODEL 7
REMARK VINA RESULT:      -5.7      1.513      1.917
REMARK  Name = 
REMARK  4 active torsions:
REMARK  status: ('A' for Active; 'I' for Inactive)
REMARK    1  A    between atoms: C_1  and  C_2
REMARK    2  A    between atoms: C_2  and  O_3
REMARK    3  A    between atoms: O_3  and  C_4
REMARK    4  A    between atoms: C_4  and  C_6
REMARK                            x       y       z     vdW  Elec       q    Type
REMARK                         _______ _______ _______ _____ _____    ______ ____
ROOT
ATOM      1  C   UNL     1       5.340   4.336  18.231  0.00  0.00    +0.000 A 
ATOM      2  C   UNL     1       4.104   4.712  17.721  0.00  0.00    +0.000 A 
ATOM      3  N   UNL     1       3.180   4.129  18.532  0.00  0.00    +0.000 N 
ATOM      4  C   UNL     1       1.800   4.128  18.518  0.00  0.00    +0.000 A 
ATOM      5  C   UNL     1       1.159   3.440  19.478  0.00  0.00    +0.000 A 
ATOM      6  N   UNL     1       1.798   2.723  20.480  0.00  0.00    +0.000 NA
ATOM      7  C   UNL     1       3.106   2.723  20.485  0.00  0.00    +0.000 A 
ATOM      8  C   UNL     1       3.865   3.438  19.497  0.00  0.00    +0.000 A 
ATOM      9  N   UNL     1       5.169   3.531  19.356  0.00  0.00    +0.000 NA
ENDROOT
BRANCH   1  10
ATOM     10  C   UNL     1       6.624   4.677  17.624  0.00  0.00    +0.000 C 
ATOM     11  O   UNL     1       7.697   4.449  18.174  0.00  0.00    +0.000 OA
BRANCH  10  12
ATOM     12  O   UNL     1       6.488   5.359  16.450  0.00  0.00    +0.000 OA
BRANCH  12  14
ATOM     13  C   UNL     1       5.865   4.210  14.450  0.00  0.00    +0.000 C 
ATOM     14  C   UNL     1       7.027   4.690  15.303  0.00  0.00    +0.000 C 
ENDBRANCH  12  14
ENDBRANCH  10  12
ENDBRANCH   1  10
TORSDOF 3
ENDMDL
MODEL 8
REMARK VINA RESULT:      -5.7      1.705      2.051
REMARK  Name = 
REMARK  4 active torsions:
REMARK  status: ('A' for Active; 'I' for Inactive)
REMARK    1  A    between atoms: C_1  and  C_2
REMARK    2  A    between atoms: C_2  and  O_3
REMARK    3  A    between atoms: O_3  and  C_4
REMARK    4  A    between atoms: C_4  and  C_6
REMARK                            x       y       z     vdW  Elec       q    Type
REMARK                         _______ _______ _______ _____ _____    ______ ____
ROOT
ATOM      1  C   UNL     1       4.930   4.739  19.202  0.00  0.00    +0.000 A 
ATOM      2  C   UNL     1       3.749   5.272  19.701  0.00  0.00    +0.000 A 
ATOM      3  N   UNL     1       2.820   4.286  19.577  0.00  0.00    +0.000 N 
ATOM      4  C   UNL     1       1.476   4.232  19.885  0.00  0.00    +0.000 A 
ATOM      5  C   UNL     1       0.817   3.087  19.638  0.00  0.00    +0.000 A 
ATOM      6  N   UNL     1       1.401   1.957  19.084  0.00  0.00    +0.000 NA
ATOM      7  C   UNL     1       2.674   2.016  18.789  0.00  0.00    +0.000 A 
ATOM      8  C   UNL     1       3.451   3.201  19.027  0.00  0.00    +0.000 A 
ATOM      9  N   UNL     1       4.722   3.426  18.782  0.00  0.00    +0.000 NA
ENDROOT
BRANCH   1  10
ATOM     10  C   UNL     1       6.183   5.478  19.072  0.00  0.00    +0.000 C 
ATOM     11  O   UNL     1       7.096   5.381  19.885  0.00  0.00    +0.000 OA
BRANCH  10  12
ATOM     12  O   UNL     1       6.174   6.349  18.021  0.00  0.00    +0.000 OA
BRANCH  12  14
ATOM     13  C   UNL     1       7.780   8.074  17.626  0.00  0.00    +0.000 C 
ATOM     14  C   UNL     1       7.460   6.600  17.441  0.00  0.00    +0.000 C 
ENDBRANCH  12  14
ENDBRANCH  10  12
ENDBRANCH   1  10
TORSDOF 3
ENDMDL
MODEL 9
REMARK VINA RESULT:      -5.7      3.103      5.293
REMARK  Name = 
REMARK  4 active torsions:
REMARK  status: ('A' for Active; 'I' for Inactive)
REMARK    1  A    between atoms: C_1  and  C_2
REMARK    2  A    between atoms: C_2  and  O_3
REMARK    3  A    between atoms: O_3  and  C_4
REMARK    4  A    between atoms: C_4  and  C_6
REMARK                            x       y       z     vdW  Elec       q    Type
REMARK                         _______ _______ _______ _____ _____    ______ ____
ROOT
ATOM      1  C   UNL     1       3.293   4.633  17.666  0.00  0.00    +0.000 A 
ATOM      2  C   UNL     1       3.949   3.723  16.848  0.00  0.00    +0.000 A 
ATOM      3  N   UNL     1       5.109   4.332  16.479  0.00  0.00    +0.000 N 
ATOM      4  C   UNL     1       6.152   3.931  15.669  0.00  0.00    +0.000 A 
ATOM      5  C   UNL     1       7.180   4.779  15.497  0.00  0.00    +0.000 A 
ATOM      6  N   UNL     1       7.256   6.037  16.076  0.00  0.00    +0.000 NA
ATOM      7  C   UNL     1       6.262   6.414  16.839  0.00  0.00    +0.000 A 
ATOM      8  C   UNL     1       5.129   5.564  17.078  0.00  0.00    +0.000 A 
ATOM      9  N   UNL     1       4.055   5.792  17.801  0.00  0.00    +0.000 NA
ENDROOT
BRANCH   1  10
ATOM     10  C   UNL     1       1.963   4.426  18.234  0.00  0.00    +0.000 C 
ATOM     11  O   UNL     1       1.040   3.930  17.596  0.00  0.00    +0.000 OA
BRANCH  10  12
ATOM     12  O   UNL     1       1.844   4.934  19.495  0.00  0.00    +0.000 OA
BRANCH  12  14
ATOM     13  C   UNL     1       1.306   3.155  20.997  0.00  0.00    +0.000 C 
ATOM     14  C   UNL     1       2.394   4.107  20.528  0.00  0.00    +0.000 C 
ENDBRANCH  12  14
ENDBRANCH  10  12
ENDBRANCH   1  10
TORSDOF 3
ENDMDL
