MODEL 1
REMARK VINA RESULT:      -8.2      0.000      0.000
REMARK  Name = 
REMARK  4 active torsions:
REMARK  status: ('A' for Active; 'I' for Inactive)
REMARK    1  A    between atoms: C_2  and  C_3
REMARK    2  A    between atoms: C_6  and  O_7
REMARK    3  A    between atoms: O_7  and  C_8
REMARK    4  A    between atoms: C_8  and  C_9
REMARK                            x       y       z     vdW  Elec       q    Type
REMARK                         _______ _______ _______ _____ _____    ______ ____
ROOT
ATOM      1  C   UNL     1       5.600   5.487  18.332  0.00  0.00    +0.000 A 
ATOM      2  C   UNL     1       5.387   6.503  17.389  0.00  0.00    +0.000 A 
ATOM      3  C   UNL     1       6.353   7.478  17.148  0.00  0.00    +0.000 A 
ATOM      4  C   UNL     1       7.541   7.477  17.872  0.00  0.00    +0.000 A 
ATOM      5  C   UNL     1       7.778   6.464  18.801  0.00  0.00    +0.000 A 
ATOM      6  C   UNL     1       6.811   5.480  19.035  0.00  0.00    +0.000 A 
ENDROOT
BRANCH   1   8
ATOM      7  C   UNL     1       4.718   3.389  19.334  0.00  0.00    +0.000 C 
ATOM      8  C   UNL     1       4.567   4.473  18.547  0.00  0.00    +0.000 C 
ATOM      9  C   UNL     1       3.157   4.553  17.967  0.00  0.00    +0.000 C 
ATOM     10  C   UNL     1       2.906   3.228  17.199  0.00  0.00    +0.000 C 
ATOM     11  C   UNL     1       3.133   2.031  18.155  0.00  0.00    +0.000 C 
ATOM     12  N   UNL     1       3.587   2.566  19.477  0.00  0.00    +0.000 N 
ATOM     13  C   UNL     1       2.447   3.341  20.071  0.00  0.00    +0.000 C 
ATOM     14  C   UNL     1       2.178   4.574  19.168  0.00  0.00    +0.000 C 
ENDBRANCH   1   8
BRANCH   4  15
ATOM     15  O   UNL     1       8.529   8.411  17.741  0.00  0.00    +0.000 OA
BRANCH  15  16
ATOM     16  C   UNL     1       8.118   9.756  17.999  0.00  0.00    +0.000 C 
BRANCH  16  17
ATOM     17  C   UNL     1       9.266  10.507  18.616  0.00  0.00    +0.000 A 
ATOM     18  C   UNL     1      10.305  11.008  17.820  0.00  0.00    +0.000 A 
ATOM     19  C   UNL     1      11.353  11.723  18.398  0.00  0.00    +0.000 A 
ATOM     20  C   UNL     1      11.364  11.946  19.775  0.00  0.00    +0.000 A 
ATOM     21  C   UNL     1      10.329  11.464  20.574  0.00  0.00    +0.000 A 
ATOM     22  C   UNL     1       9.282  10.751  19.996  0.00  0.00    +0.000 A 
ENDBRANCH  16  17
ENDBRANCH  15  16
ENDBRANCH   4  15
TORSDOF 4
ENDMDL
MODEL 2
REMARK VINA RESULT:      -8.2      0.153      1.041
REMARK  Name = 
REMARK  4 active torsions:
REMARK  status: ('A' for Active; 'I' for Inactive)
REMARK    1  A    between atoms: C_2  and  C_3
REMARK    2  A    between atoms: C_6  and  O_7
REMARK    3  A    between atoms: O_7  and  C_8
REMARK    4  A    between atoms: C_8  and  C_9
REMARK                            x       y       z     vdW  Elec       q    Type
REMARK                         _______ _______ _______ _____ _____    ______ ____
ROOT
ATOM      1  C   UNL     1       5.583   5.419  18.355  0.00  0.00    +0.000 A 
ATOM      2  C   UNL     1       5.416   6.410  17.378  0.00  0.00    +0.000 A 
ATOM      3  C   UNL     1       6.398   7.373  17.151  0.00  0.00    +0.000 A 
ATOM      4  C   UNL     1       7.555   7.384  17.924  0.00  0.00    +0.000 A 
ATOM      5  C   UNL     1       7.746   6.395  18.887  0.00  0.00    +0.000 A 
ATOM      6  C   UNL     1       6.764   5.423  19.108  0.00  0.00    +0.000 A 
ENDROOT
BRANCH   1   8
ATOM      7  C   UNL     1       4.716   3.243  19.192  0.00  0.00    +0.000 C 
ATOM      8  C   UNL     1       4.535   4.417  18.555  0.00  0.00    +0.000 C 
ATOM      9  C   UNL     1       3.079   4.607  18.133  0.00  0.00    +0.000 C 
ATOM     10  C   UNL     1       2.701   3.391  17.246  0.00  0.00    +0.000 C 
ATOM     11  C   UNL     1       2.971   2.082  18.029  0.00  0.00    +0.000 C 
ATOM     12  N   UNL     1       3.572   2.443  19.352  0.00  0.00    +0.000 N 
ATOM     13  C   UNL     1       2.527   3.174  20.143  0.00  0.00    +0.000 C 
ATOM     14  C   UNL     1       2.223   4.514  19.421  0.00  0.00    +0.000 C 
ENDBRANCH   1   8
BRANCH   4  15
ATOM     15  O   UNL     1       8.554   8.309  17.808  0.00  0.00    +0.000 OA
BRANCH  15  16
ATOM     16  C   UNL     1       8.124   9.668  17.910  0.00  0.00    +0.000 C 
BRANCH  16  17
ATOM     17  C   UNL     1       9.205  10.473  18.578  0.00  0.00    +0.000 A 
ATOM     18  C   UNL     1       9.230  10.625  19.971  0.00  0.00    +0.000 A 
ATOM     19  C   UNL     1      10.249  11.354  20.581  0.00  0.00    +0.000 A 
ATOM     20  C   UNL     1      11.252  11.931  19.803  0.00  0.00    +0.000 A 
ATOM     21  C   UNL     1      11.244  11.777  18.418  0.00  0.00    +0.000 A 
ATOM     22  C   UNL     1      10.227  11.047  17.808  0.00  0.00    +0.000 A 
ENDBRANCH  16  17
ENDBRANCH  15  16
ENDBRANCH   4  15
TORSDOF 4
ENDMDL
MODEL 3
REMARK VINA RESULT:      -8.1      0.745      1.689
REMARK  Name = 
REMARK  4 active torsions:
REMARK  status: ('A' for Active; 'I' for Inactive)
REMARK    1  A    between atoms: C_2  and  C_3
REMARK    2  A    between atoms: C_6  and  O_7
REMARK    3  A    between atoms: O_7  and  C_8
REMARK    4  A    between atoms: C_8  and  C_9
REMARK                            x       y       z     vdW  Elec       q    Type
REMARK                         _______ _______ _______ _____ _____    ______ ____
ROOT
ATOM      1  C   UNL     1       5.492   5.405  18.182  0.00  0.00    +0.000 A 
ATOM      2  C   UNL     1       5.440   6.444  17.242  0.00  0.00    +0.000 A 
ATOM      3  C   UNL     1       6.463   7.386  17.151  0.00  0.00    +0.000 A 
ATOM      4  C   UNL     1       7.544   7.329  18.024  0.00  0.00    +0.000 A 
ATOM      5  C   UNL     1       7.621   6.292  18.953  0.00  0.00    +0.000 A 
ATOM      6  C   UNL     1       6.598   5.341  19.037  0.00  0.00    +0.000 A 
ENDROOT
BRANCH   1   8
ATOM      7  C   UNL     1       3.883   3.806  17.162  0.00  0.00    +0.000 C 
ATOM      8  C   UNL     1       4.405   4.426  18.238  0.00  0.00    +0.000 C 
ATOM      9  C   UNL     1       3.773   3.925  19.535  0.00  0.00    +0.000 C 
ATOM     10  C   UNL     1       2.242   4.149  19.410  0.00  0.00    +0.000 C 
ATOM     11  C   UNL     1       1.723   3.441  18.135  0.00  0.00    +0.000 C 
ATOM     12  N   UNL     1       2.895   2.841  17.422  0.00  0.00    +0.000 N 
ATOM     13  C   UNL     1       3.446   1.748  18.290  0.00  0.00    +0.000 C 
ATOM     14  C   UNL     1       4.005   2.394  19.585  0.00  0.00    +0.000 C 
ENDBRANCH   1   8
BRANCH   4  15
ATOM     15  O   UNL     1       8.573   8.227  18.043  0.00  0.00    +0.000 OA
BRANCH  15  16
ATOM     16  C   UNL     1       8.168   9.598  18.023  0.00  0.00    +0.000 C 
BRANCH  16  17
ATOM     17  C   UNL     1       9.244  10.435  18.660  0.00  0.00    +0.000 A 
ATOM     18  C   UNL     1       9.244  10.673  20.041  0.00  0.00    +0.000 A 
ATOM     19  C   UNL     1      10.258  11.431  20.625  0.00  0.00    +0.000 A 
ATOM     20  C   UNL     1      11.281  11.949  19.831  0.00  0.00    +0.000 A 
ATOM     21  C   UNL     1      11.298  11.707  18.459  0.00  0.00    +0.000 A 
ATOM     22  C   UNL     1      10.286  10.949  17.876  0.00  0.00    +0.000 A 
ENDBRANCH  16  17
ENDBRANCH  15  16
ENDBRANCH   4  15
TORSDOF 4
ENDMDL
MODEL 4
REMARK VINA RESULT:      -8.0      0.727      1.900
REMARK  Name = 
REMARK  4 active torsions:
REMARK  status: ('A' for Active; 'I' for Inactive)
REMARK    1  A    between atoms: C_2  and  C_3
REMARK    2  A    between atoms: C_6  and  O_7
REMARK    3  A    between atoms: O_7  and  C_8
REMARK    4  A    between atoms: C_8  and  C_9
REMARK                            x       y       z     vdW  Elec       q    Type
REMARK                         _______ _______ _______ _____ _____    ______ ____
ROOT
ATOM      1  C   UNL     1       5.595   5.492  18.112  0.00  0.00    +0.000 A 
ATOM      2  C   UNL     1       6.785   5.339  18.838  0.00  0.00    +0.000 A 
ATOM      3  C   UNL     1       7.792   6.301  18.783  0.00  0.00    +0.000 A 
ATOM      4  C   UNL     1       7.644   7.421  17.972  0.00  0.00    +0.000 A 
ATOM      5  C   UNL     1       6.460   7.598  17.256  0.00  0.00    +0.000 A 
ATOM      6  C   UNL     1       5.445   6.636  17.320  0.00  0.00    +0.000 A 
ENDROOT
BRANCH   1   8
ATOM      7  C   UNL     1       4.243   3.606  17.216  0.00  0.00    +0.000 C 
ATOM      8  C   UNL     1       4.555   4.467  18.206  0.00  0.00    +0.000 C 
ATOM      9  C   UNL     1       3.740   4.189  19.467  0.00  0.00    +0.000 C 
ATOM     10  C   UNL     1       2.243   4.270  19.067  0.00  0.00    +0.000 C 
ATOM     11  C   UNL     1       1.969   3.284  17.904  0.00  0.00    +0.000 C 
ATOM     12  N   UNL     1       3.266   2.642  17.519  0.00  0.00    +0.000 N 
ATOM     13  C   UNL     1       3.711   1.789  18.671  0.00  0.00    +0.000 C 
ATOM     14  C   UNL     1       4.023   2.720  19.871  0.00  0.00    +0.000 C 
ENDBRANCH   1   8
BRANCH   4  15
ATOM     15  O   UNL     1       8.588   8.396  17.817  0.00  0.00    +0.000 OA
BRANCH  15  16
ATOM     16  C   UNL     1       8.125   9.723  18.078  0.00  0.00    +0.000 C 
BRANCH  16  17
ATOM     17  C   UNL     1       9.255  10.529  18.657  0.00  0.00    +0.000 A 
ATOM     18  C   UNL     1       9.346  10.748  20.038  0.00  0.00    +0.000 A 
ATOM     19  C   UNL     1      10.410  11.478  20.566  0.00  0.00    +0.000 A 
ATOM     20  C   UNL     1      11.391  11.988  19.717  0.00  0.00    +0.000 A 
ATOM     21  C   UNL     1      11.317  11.766  18.343  0.00  0.00    +0.000 A 
ATOM     22  C   UNL     1      10.256  11.036  17.816  0.00  0.00    +0.000 A 
ENDBRANCH  16  17
ENDBRANCH  15  16
ENDBRANCH   4  15
TORSDOF 4
ENDMDL
MODEL 5
REMARK VINA RESULT:      -8.0      0.540      1.569
REMARK  Name = 
REMARK  4 active torsions:
REMARK  status: ('A' for Active; 'I' for Inactive)
REMARK    1  A    between atoms: C_2  and  C_3
REMARK    2  A    between atoms: C_6  and  O_7
REMARK    3  A    between atoms: O_7  and  C_8
REMARK    4  A    between atoms: C_8  and  C_9
REMARK                            x       y       z     vdW  Elec       q    Type
REMARK                         _______ _______ _______ _____ _____    ______ ____
ROOT
ATOM      1  C   UNL     1       5.486   5.430  18.302  0.00  0.00    +0.000 A 
ATOM      2  C   UNL     1       6.677   5.302  19.030  0.00  0.00    +0.000 A 
ATOM      3  C   UNL     1       7.707   6.232  18.898  0.00  0.00    +0.000 A 
ATOM      4  C   UNL     1       7.579   7.292  18.007  0.00  0.00    +0.000 A 
ATOM      5  C   UNL     1       6.395   7.445  17.287  0.00  0.00    +0.000 A 
ATOM      6  C   UNL     1       5.358   6.516  17.427  0.00  0.00    +0.000 A 
ENDROOT
BRANCH   1   8
ATOM      7  C   UNL     1       4.080   3.891  19.659  0.00  0.00    +0.000 C 
ATOM      8  C   UNL     1       4.422   4.440  18.477  0.00  0.00    +0.000 C 
ATOM      9  C   UNL     1       3.509   3.958  17.351  0.00  0.00    +0.000 C 
ATOM     10  C   UNL     1       3.595   2.409  17.329  0.00  0.00    +0.000 C 
ATOM     11  C   UNL     1       3.227   1.855  18.727  0.00  0.00    +0.000 C 
ATOM     12  N   UNL     1       2.982   3.015  19.641  0.00  0.00    +0.000 N 
ATOM     13  C   UNL     1       1.752   3.726  19.156  0.00  0.00    +0.000 C 
ATOM     14  C   UNL     1       2.060   4.327  17.759  0.00  0.00    +0.000 C 
ENDBRANCH   1   8
BRANCH   4  15
ATOM     15  O   UNL     1       8.546   8.229  17.775  0.00  0.00    +0.000 OA
BRANCH  15  16
ATOM     16  C   UNL     1       8.098   9.584  17.866  0.00  0.00    +0.000 C 
BRANCH  16  17
ATOM     17  C   UNL     1       9.170  10.409  18.524  0.00  0.00    +0.000 A 
ATOM     18  C   UNL     1       9.223  10.536  19.919  0.00  0.00    +0.000 A 
ATOM     19  C   UNL     1      10.233  11.284  20.520  0.00  0.00    +0.000 A 
ATOM     20  C   UNL     1      11.200  11.906  19.730  0.00  0.00    +0.000 A 
ATOM     21  C   UNL     1      11.164  11.776  18.343  0.00  0.00    +0.000 A 
ATOM     22  C   UNL     1      10.156  11.027  17.742  0.00  0.00    +0.000 A 
ENDBRANCH  16  17
ENDBRANCH  15  16
ENDBRANCH   4  15
TORSDOF 4
ENDMDL
MODEL 6
REMARK VINA RESULT:      -7.8      0.742      1.188
REMARK  Name = 
REMARK  4 active torsions:
REMARK  status: ('A' for Active; 'I' for Inactive)
REMARK    1  A    between atoms: C_2  and  C_3
REMARK    2  A    between atoms: C_6  and  O_7
REMARK    3  A    between atoms: O_7  and  C_8
REMARK    4  A    between atoms: C_8  and  C_9
REMARK                            x       y       z     vdW  Elec       q    Type
REMARK                         _______ _______ _______ _____ _____    ______ ____
ROOT
ATOM      1  C   UNL     1       5.307   5.509  18.429  0.00  0.00    +0.000 A 
ATOM      2  C   UNL     1       5.155   6.556  17.509  0.00  0.00    +0.000 A 
ATOM      3  C   UNL     1       6.197   7.444  17.248  0.00  0.00    +0.000 A 
ATOM      4  C   UNL     1       7.404   7.323  17.930  0.00  0.00    +0.000 A 
ATOM      5  C   UNL     1       7.579   6.277  18.835  0.00  0.00    +0.000 A 
ATOM      6  C   UNL     1       6.535   5.380  19.090  0.00  0.00    +0.000 A 
ENDROOT
BRANCH   1   8
ATOM      7  C   UNL     1       3.172   4.832  19.512  0.00  0.00    +0.000 C 
ATOM      8  C   UNL     1       4.194   4.589  18.667  0.00  0.00    +0.000 C 
ATOM      9  C   UNL     1       4.007   3.265  17.928  0.00  0.00    +0.000 C 
ATOM     10  C   UNL     1       3.860   2.160  19.007  0.00  0.00    +0.000 C 
ATOM     11  C   UNL     1       2.695   2.526  19.960  0.00  0.00    +0.000 C 
ATOM     12  N   UNL     1       2.156   3.861  19.550  0.00  0.00    +0.000 N 
ATOM     13  C   UNL     1       1.531   3.704  18.195  0.00  0.00    +0.000 C 
ATOM     14  C   UNL     1       2.652   3.355  17.182  0.00  0.00    +0.000 C 
ENDBRANCH   1   8
BRANCH   4  15
ATOM     15  O   UNL     1       8.468   8.167  17.777  0.00  0.00    +0.000 OA
BRANCH  15  16
ATOM     16  C   UNL     1       8.128   9.555  17.736  0.00  0.00    +0.000 C 
BRANCH  16  17
ATOM     17  C   UNL     1       9.182  10.337  18.471  0.00  0.00    +0.000 A 
ATOM     18  C   UNL     1      10.185  11.021  17.772  0.00  0.00    +0.000 A 
ATOM     19  C   UNL     1      11.144  11.761  18.462  0.00  0.00    +0.000 A 
ATOM     20  C   UNL     1      11.100  11.827  19.855  0.00  0.00    +0.000 A 
ATOM     21  C   UNL     1      10.099  11.161  20.559  0.00  0.00    +0.000 A 
ATOM     22  C   UNL     1       9.141  10.423  19.870  0.00  0.00    +0.000 A 
ENDBRANCH  16  17
ENDBRANCH  15  16
ENDBRANCH   4  15
TORSDOF 4
ENDMDL
MODEL 7
REMARK VINA RESULT:      -7.8      5.466      7.819
REMARK  Name = 
REMARK  4 active torsions:
REMARK  status: ('A' for Active; 'I' for Inactive)
REMARK    1  A    between atoms: C_2  and  C_3
REMARK    2  A    between atoms: C_6  and  O_7
REMARK    3  A    between atoms: O_7  and  C_8
REMARK    4  A    between atoms: C_8  and  C_9
REMARK                            x       y       z     vdW  Elec       q    Type
REMARK                         _______ _______ _______ _____ _____    ______ ____
ROOT
ATOM      1  C   UNL     1       2.336   6.637  19.261  0.00  0.00    +0.000 A 
ATOM      2  C   UNL     1       2.360   7.572  18.217  0.00  0.00    +0.000 A 
ATOM      3  C   UNL     1       1.859   8.861  18.390  0.00  0.00    +0.000 A 
ATOM      4  C   UNL     1       1.289   9.231  19.605  0.00  0.00    +0.000 A 
ATOM      5  C   UNL     1       1.273   8.320  20.660  0.00  0.00    +0.000 A 
ATOM      6  C   UNL     1       1.785   7.029  20.488  0.00  0.00    +0.000 A 
ENDROOT
BRANCH   1   8
ATOM      7  C   UNL     1       4.177   4.966  19.230  0.00  0.00    +0.000 C 
ATOM      8  C   UNL     1       2.884   5.298  19.045  0.00  0.00    +0.000 C 
ATOM      9  C   UNL     1       2.044   4.083  18.655  0.00  0.00    +0.000 C 
ATOM     10  C   UNL     1       2.685   3.479  17.378  0.00  0.00    +0.000 C 
ATOM     11  C   UNL     1       4.175   3.159  17.655  0.00  0.00    +0.000 C 
ATOM     12  N   UNL     1       4.501   3.611  19.045  0.00  0.00    +0.000 N 
ATOM     13  C   UNL     1       3.723   2.751  19.998  0.00  0.00    +0.000 C 
ATOM     14  C   UNL     1       2.213   3.038  19.786  0.00  0.00    +0.000 C 
ENDBRANCH   1   8
BRANCH   4  15
ATOM     15  O   UNL     1       0.734  10.452  19.860  0.00  0.00    +0.000 OA
BRANCH  15  16
ATOM     16  C   UNL     1       0.395  11.209  18.695  0.00  0.00    +0.000 C 
BRANCH  16  17
ATOM     17  C   UNL     1      -1.071  11.035  18.409  0.00  0.00    +0.000 A 
ATOM     18  C   UNL     1      -2.023  11.868  19.013  0.00  0.00    +0.000 A 
ATOM     19  C   UNL     1      -3.378  11.713  18.724  0.00  0.00    +0.000 A 
ATOM     20  C   UNL     1      -3.788  10.729  17.825  0.00  0.00    +0.000 A 
ATOM     21  C   UNL     1      -2.849   9.904  17.209  0.00  0.00    +0.000 A 
ATOM     22  C   UNL     1      -1.495  10.060  17.496  0.00  0.00    +0.000 A 
ENDBRANCH  16  17
ENDBRANCH  15  16
ENDBRANCH   4  15
TORSDOF 4
ENDMDL
MODEL 8
REMARK VINA RESULT:      -7.8      5.371      8.169
REMARK  Name = 
REMARK  4 active torsions:
REMARK  status: ('A' for Active; 'I' for Inactive)
REMARK    1  A    between atoms: C_2  and  C_3
REMARK    2  A    between atoms: C_6  and  O_7
REMARK    3  A    between atoms: O_7  and  C_8
REMARK    4  A    between atoms: C_8  and  C_9
REMARK                            x       y       z     vdW  Elec       q    Type
REMARK                         _______ _______ _______ _____ _____    ______ ____
ROOT
ATOM      1  C   UNL     1       2.628   7.298  18.640  0.00  0.00    +0.000 A 
ATOM      2  C   UNL     1       2.524   8.216  17.586  0.00  0.00    +0.000 A 
ATOM      3  C   UNL     1       1.825   9.412  17.737  0.00  0.00    +0.000 A 
ATOM      4  C   UNL     1       1.184   9.698  18.938  0.00  0.00    +0.000 A 
ATOM      5  C   UNL     1       1.292   8.805  20.003  0.00  0.00    +0.000 A 
ATOM      6  C   UNL     1       2.003   7.608  19.853  0.00  0.00    +0.000 A 
ENDROOT
BRANCH   1   8
ATOM      7  C   UNL     1       2.841   4.825  18.479  0.00  0.00    +0.000 C 
ATOM      8  C   UNL     1       3.383   6.059  18.447  0.00  0.00    +0.000 C 
ATOM      9  C   UNL     1       4.871   6.008  18.107  0.00  0.00    +0.000 C 
ATOM     10  C   UNL     1       5.547   5.095  19.164  0.00  0.00    +0.000 C 
ATOM     11  C   UNL     1       4.849   3.713  19.169  0.00  0.00    +0.000 C 
ATOM     12  N   UNL     1       3.712   3.759  18.196  0.00  0.00    +0.000 N 
ATOM     13  C   UNL     1       4.294   3.908  16.821  0.00  0.00    +0.000 C 
ATOM     14  C   UNL     1       4.996   5.290  16.740  0.00  0.00    +0.000 C 
ENDBRANCH   1   8
BRANCH   4  15
ATOM     15  O   UNL     1       0.440  10.820  19.171  0.00  0.00    +0.000 OA
BRANCH  15  16
ATOM     16  C   UNL     1      -0.888  10.569  19.637  0.00  0.00    +0.000 C 
BRANCH  16  17
ATOM     17  C   UNL     1      -1.841  10.682  18.478  0.00  0.00    +0.000 A 
ATOM     18  C   UNL     1      -1.674   9.893  17.332  0.00  0.00    +0.000 A 
ATOM     19  C   UNL     1      -2.576   9.989  16.274  0.00  0.00    +0.000 A 
ATOM     20  C   UNL     1      -3.653  10.871  16.358  0.00  0.00    +0.000 A 
ATOM     21  C   UNL     1      -3.836  11.651  17.498  0.00  0.00    +0.000 A 
ATOM     22  C   UNL     1      -2.937  11.554  18.556  0.00  0.00    +0.000 A 
ENDBRANCH  16  17
ENDBRANCH  15  16
ENDBRANCH   4  15
TORSDOF 4
ENDMDL
MODEL 9
REMARK VINA RESULT:      -7.7      5.529      7.559
REMARK  Name = 
REMARK  4 active torsions:
REMARK  status: ('A' for Active; 'I' for Inactive)
REMARK    1  A    between atoms: C_2  and  C_3
REMARK    2  A    between atoms: C_6  and  O_7
REMARK    3  A    between atoms: O_7  and  C_8
REMARK    4  A    between atoms: C_8  and  C_9
REMARK                            x       y       z     vdW  Elec       q    Type
REMARK                         _______ _______ _______ _____ _____    ______ ____
ROOT
ATOM      1  C   UNL     1       2.216   6.076  19.421  0.00  0.00    +0.000 A 
ATOM      2  C   UNL     1       2.415   6.977  18.365  0.00  0.00    +0.000 A 
ATOM      3  C   UNL     1       2.076   8.323  18.491  0.00  0.00    +0.000 A 
ATOM      4  C   UNL     1       1.496   8.789  19.667  0.00  0.00    +0.000 A 
ATOM      5  C   UNL     1       1.307   7.911  20.733  0.00  0.00    +0.000 A 
ATOM      6  C   UNL     1       1.657   6.562  20.609  0.00  0.00    +0.000 A 
ENDROOT
BRANCH   1   8
ATOM      7  C   UNL     1       3.676   4.254  18.563  0.00  0.00    +0.000 C 
ATOM      8  C   UNL     1       2.598   4.673  19.255  0.00  0.00    +0.000 C 
ATOM      9  C   UNL     1       1.864   3.505  19.911  0.00  0.00    +0.000 C 
ATOM     10  C   UNL     1       1.489   2.512  18.779  0.00  0.00    +0.000 C 
ATOM     11  C   UNL     1       2.769   2.106  18.008  0.00  0.00    +0.000 C 
ATOM     12  N   UNL     1       3.922   2.870  18.579  0.00  0.00    +0.000 N 
ATOM     13  C   UNL     1       4.134   2.392  19.986  0.00  0.00    +0.000 C 
ATOM     14  C   UNL     1       2.889   2.786  20.824  0.00  0.00    +0.000 C 
ENDBRANCH   1   8
BRANCH   4  15
ATOM     15  O   UNL     1       1.090  10.077  19.872  0.00  0.00    +0.000 OA
BRANCH  15  16
ATOM     16  C   UNL     1       0.844  10.823  18.678  0.00  0.00    +0.000 C 
BRANCH  16  17
ATOM     17  C   UNL     1      -0.637  10.842  18.411  0.00  0.00    +0.000 A 
ATOM     18  C   UNL     1      -1.221   9.914  17.539  0.00  0.00    +0.000 A 
ATOM     19  C   UNL     1      -2.597   9.927  17.317  0.00  0.00    +0.000 A 
ATOM     20  C   UNL     1      -3.397  10.864  17.969  0.00  0.00    +0.000 A 
ATOM     21  C   UNL     1      -2.828  11.784  18.847  0.00  0.00    +0.000 A 
ATOM     22  C   UNL     1      -1.454  11.771  19.071  0.00  0.00    +0.000 A 
ENDBRANCH  16  17
ENDBRANCH  15  16
ENDBRANCH   4  15
TORSDOF 4
ENDMDL
