MODEL 1
REMARK VINA RESULT:      -8.4      0.000      0.000
REMARK  Name = 
REMARK  5 active torsions:
REMARK  status: ('A' for Active; 'I' for Inactive)
REMARK    1  A    between atoms: N_1  and  C_2
REMARK    2  A    between atoms: C_2  and  C_3
REMARK    3  A    between atoms: C_2  and  C_12
REMARK    4  A    between atoms: C_3  and  C_4
REMARK    5  A    between atoms: C_15  and  C_16
REMARK                            x       y       z     vdW  Elec       q    Type
REMARK                         _______ _______ _______ _____ _____    ______ ____
ROOT
ATOM      1  C   UNL     1       0.480  10.742  18.800  0.00  0.00    +0.000 C 
ENDROOT
BRANCH   1   2
ATOM      2  C   UNL     1       1.203   9.401  18.945  0.00  0.00    +0.000 A 
ATOM      3  C   UNL     1       1.883   8.820  17.865  0.00  0.00    +0.000 A 
ATOM      4  C   UNL     1       2.510   7.574  17.977  0.00  0.00    +0.000 A 
ATOM      5  C   UNL     1       2.551   6.876  19.192  0.00  0.00    +0.000 A 
ATOM      6  C   UNL     1       1.944   7.503  20.290  0.00  0.00    +0.000 A 
ATOM      7  C   UNL     1       1.270   8.725  20.169  0.00  0.00    +0.000 A 
BRANCH   5   8
ATOM      8  C   UNL     1       3.270   5.582  19.311  0.00  0.00    +0.000 A 
ATOM      9  C   UNL     1       4.630   5.523  18.938  0.00  0.00    +0.000 A 
ATOM     10  C   UNL     1       5.347   4.343  19.078  0.00  0.00    +0.000 A 
ATOM     11  N   UNL     1       4.825   3.212  19.580  0.00  0.00    +0.000 NA
ATOM     12  C   UNL     1       3.518   3.262  19.924  0.00  0.00    +0.000 A 
ATOM     13  C   UNL     1       2.705   4.385  19.790  0.00  0.00    +0.000 A 
ATOM     14 CL   UNL     1       1.031   4.176  20.171  0.00  0.00    +0.000 Cl
ENDBRANCH   5   8
ENDBRANCH   1   2
BRANCH   1  15
ATOM     15  N   UNL     1       1.156  11.826  19.534  0.00  0.00    +0.000 NA
ATOM     16  H   UNL     1       2.131  11.879  19.252  0.00  0.00    +0.000 HD
ATOM     17  H   UNL     1       1.137  11.620  20.531  0.00  0.00    +0.000 HD
ENDBRANCH   1  15
BRANCH   1  18
ATOM     18  C   UNL     1      -0.993  10.667  19.289  0.00  0.00    +0.000 C 
BRANCH  18  19
ATOM     19  C   UNL     1      -2.048  10.714  18.216  0.00  0.00    +0.000 A 
ATOM     20  C   UNL     1      -1.873  10.009  17.019  0.00  0.00    +0.000 A 
ATOM     21  C   UNL     1      -2.829  10.109  16.016  0.00  0.00    +0.000 A 
ATOM     22  F   UNL     1      -2.649   9.448  14.867  0.00  0.00    +0.000 F 
ATOM     23  C   UNL     1      -3.963  10.900  16.181  0.00  0.00    +0.000 A 
ATOM     24  C   UNL     1      -4.143  11.603  17.370  0.00  0.00    +0.000 A 
ATOM     25  C   UNL     1      -3.188  11.512  18.374  0.00  0.00    +0.000 A 
ATOM     26  F   UNL     1      -3.358  12.225  19.494  0.00  0.00    +0.000 F 
ENDBRANCH  18  19
ENDBRANCH   1  18
TORSDOF 5
ENDMDL
MODEL 2
REMARK VINA RESULT:      -8.1      3.474      7.722
REMARK  Name = 
REMARK  5 active torsions:
REMARK  status: ('A' for Active; 'I' for Inactive)
REMARK    1  A    between atoms: N_1  and  C_2
REMARK    2  A    between atoms: C_2  and  C_3
REMARK    3  A    between atoms: C_2  and  C_12
REMARK    4  A    between atoms: C_3  and  C_4
REMARK    5  A    between atoms: C_15  and  C_16
REMARK                            x       y       z     vdW  Elec       q    Type
REMARK                         _______ _______ _______ _____ _____    ______ ____
ROOT
ATOM      1  C   UNL     1       4.145   6.318  18.059  0.00  0.00    +0.000 C 
ENDROOT
BRANCH   1   2
ATOM      2  C   UNL     1       3.074   7.335  18.461  0.00  0.00    +0.000 A 
ATOM      3  C   UNL     1       2.660   8.344  17.579  0.00  0.00    +0.000 A 
ATOM      4  C   UNL     1       1.713   9.302  17.954  0.00  0.00    +0.000 A 
ATOM      5  C   UNL     1       1.075   9.261  19.203  0.00  0.00    +0.000 A 
ATOM      6  C   UNL     1       1.429   8.198  20.046  0.00  0.00    +0.000 A 
ATOM      7  C   UNL     1       2.416   7.267  19.695  0.00  0.00    +0.000 A 
BRANCH   5   8
ATOM      8  C   UNL     1       0.028  10.250  19.564  0.00  0.00    +0.000 A 
ATOM      9  C   UNL     1       0.129  10.928  20.798  0.00  0.00    +0.000 A 
ATOM     10  C   UNL     1      -0.805  11.891  21.150  0.00  0.00    +0.000 A 
ATOM     11  N   UNL     1      -1.830  12.255  20.361  0.00  0.00    +0.000 NA
ATOM     12  C   UNL     1      -1.937  11.596  19.184  0.00  0.00    +0.000 A 
ATOM     13  C   UNL     1      -1.073  10.591  18.756  0.00  0.00    +0.000 A 
ATOM     14 CL   UNL     1      -1.483   9.800  17.275  0.00  0.00    +0.000 Cl
ENDBRANCH   5   8
ENDBRANCH   1   2
BRANCH   1  15
ATOM     15  N   UNL     1       5.060   6.843  17.031  0.00  0.00    +0.000 NA
ATOM     16  H   UNL     1       4.602   6.835  16.124  0.00  0.00    +0.000 HD
ATOM     17  H   UNL     1       5.876   6.237  16.966  0.00  0.00    +0.000 HD
ENDBRANCH   1  15
BRANCH   1  18
ATOM     18  C   UNL     1       3.526   4.995  17.532  0.00  0.00    +0.000 C 
BRANCH  18  19
ATOM     19  C   UNL     1       2.775   4.168  18.542  0.00  0.00    +0.000 A 
ATOM     20  C   UNL     1       3.438   3.631  19.652  0.00  0.00    +0.000 A 
ATOM     21  C   UNL     1       2.744   2.822  20.542  0.00  0.00    +0.000 A 
ATOM     22  F   UNL     1       3.386   2.296  21.592  0.00  0.00    +0.000 F 
ATOM     23  C   UNL     1       1.395   2.535  20.351  0.00  0.00    +0.000 A 
ATOM     24  C   UNL     1       0.729   3.067  19.249  0.00  0.00    +0.000 A 
ATOM     25  C   UNL     1       1.420   3.872  18.352  0.00  0.00    +0.000 A 
ATOM     26  F   UNL     1       0.774   4.342  17.277  0.00  0.00    +0.000 F 
ENDBRANCH  18  19
ENDBRANCH   1  18
TORSDOF 5
ENDMDL
MODEL 3
REMARK VINA RESULT:      -8.1      3.478      7.722
REMARK  Name = 
REMARK  5 active torsions:
REMARK  status: ('A' for Active; 'I' for Inactive)
REMARK    1  A    between atoms: N_1  and  C_2
REMARK    2  A    between atoms: C_2  and  C_3
REMARK    3  A    between atoms: C_2  and  C_12
REMARK    4  A    between atoms: C_3  and  C_4
REMARK    5  A    between atoms: C_15  and  C_16
REMARK                            x       y       z     vdW  Elec       q    Type
REMARK                         _______ _______ _______ _____ _____    ______ ____
ROOT
ATOM      1  C   UNL     1       4.259   6.042  17.793  0.00  0.00    +0.000 C 
ENDROOT
BRANCH   1   2
ATOM      2  C   UNL     1       3.241   7.076  18.281  0.00  0.00    +0.000 A 
ATOM      3  C   UNL     1       2.685   7.001  19.566  0.00  0.00    +0.000 A 
ATOM      4  C   UNL     1       1.722   7.918  20.003  0.00  0.00    +0.000 A 
ATOM      5  C   UNL     1       1.318   8.999  19.207  0.00  0.00    +0.000 A 
ATOM      6  C   UNL     1       1.943   9.119  17.957  0.00  0.00    +0.000 A 
ATOM      7  C   UNL     1       2.867   8.173  17.494  0.00  0.00    +0.000 A 
BRANCH   5   8
ATOM      8  C   UNL     1       0.339   9.998  19.707  0.00  0.00    +0.000 A 
ATOM      9  C   UNL     1       0.522  10.544  20.995  0.00  0.00    +0.000 A 
ATOM     10  C   UNL     1      -0.346  11.513  21.479  0.00  0.00    +0.000 A 
ATOM     11  N   UNL     1      -1.379  12.002  20.773  0.00  0.00    +0.000 NA
ATOM     12  C   UNL     1      -1.566  11.469  19.545  0.00  0.00    +0.000 A 
ATOM     13  C   UNL     1      -0.773  10.470  18.984  0.00  0.00    +0.000 A 
ATOM     14 CL   UNL     1      -1.281   9.850  17.452  0.00  0.00    +0.000 Cl
ENDBRANCH   5   8
ENDBRANCH   1   2
BRANCH   1  15
ATOM     15  N   UNL     1       5.031   6.517  16.633  0.00  0.00    +0.000 NA
ATOM     16  H   UNL     1       5.084   5.786  15.929  0.00  0.00    +0.000 HD
ATOM     17  H   UNL     1       5.983   6.729  16.926  0.00  0.00    +0.000 HD
ENDBRANCH   1  15
BRANCH   1  18
ATOM     18  C   UNL     1       3.585   4.695  17.412  0.00  0.00    +0.000 C 
BRANCH  18  19
ATOM     19  C   UNL     1       2.820   4.005  18.510  0.00  0.00    +0.000 A 
ATOM     20  C   UNL     1       3.494   3.458  19.608  0.00  0.00    +0.000 A 
ATOM     21  C   UNL     1       2.780   2.773  20.583  0.00  0.00    +0.000 A 
ATOM     22  F   UNL     1       3.431   2.238  21.622  0.00  0.00    +0.000 F 
ATOM     23  C   UNL     1       1.400   2.621  20.488  0.00  0.00    +0.000 A 
ATOM     24  C   UNL     1       0.722   3.163  19.397  0.00  0.00    +0.000 A 
ATOM     25  C   UNL     1       1.432   3.844  18.416  0.00  0.00    +0.000 A 
ATOM     26  F   UNL     1       0.770   4.323  17.356  0.00  0.00    +0.000 F 
ENDBRANCH  18  19
ENDBRANCH   1  18
TORSDOF 5
ENDMDL
MODEL 4
REMARK VINA RESULT:      -8.0      1.168      1.497
REMARK  Name = 
REMARK  5 active torsions:
REMARK  status: ('A' for Active; 'I' for Inactive)
REMARK    1  A    between atoms: N_1  and  C_2
REMARK    2  A    between atoms: C_2  and  C_3
REMARK    3  A    between atoms: C_2  and  C_12
REMARK    4  A    between atoms: C_3  and  C_4
REMARK    5  A    between atoms: C_15  and  C_16
REMARK                            x       y       z     vdW  Elec       q    Type
REMARK                         _______ _______ _______ _____ _____    ______ ____
ROOT
ATOM      1  C   UNL     1       0.330  10.647  18.781  0.00  0.00    +0.000 C 
ENDROOT
BRANCH   1   2
ATOM      2  C   UNL     1       1.118   9.342  18.919  0.00  0.00    +0.000 A 
ATOM      3  C   UNL     1       1.780   8.772  17.822  0.00  0.00    +0.000 A 
ATOM      4  C   UNL     1       2.467   7.557  17.931  0.00  0.00    +0.000 A 
ATOM      5  C   UNL     1       2.589   6.886  19.156  0.00  0.00    +0.000 A 
ATOM      6  C   UNL     1       2.000   7.507  20.267  0.00  0.00    +0.000 A 
ATOM      7  C   UNL     1       1.266   8.695  20.152  0.00  0.00    +0.000 A 
BRANCH   5   8
ATOM      8  C   UNL     1       3.371   5.628  19.268  0.00  0.00    +0.000 A 
ATOM      9  C   UNL     1       2.854   4.573  20.050  0.00  0.00    +0.000 A 
ATOM     10  C   UNL     1       3.534   3.367  20.141  0.00  0.00    +0.000 A 
ATOM     11  N   UNL     1       4.687   3.114  19.498  0.00  0.00    +0.000 NA
ATOM     12  C   UNL     1       5.191   4.129  18.760  0.00  0.00    +0.000 A 
ATOM     13  C   UNL     1       4.604   5.386  18.633  0.00  0.00    +0.000 A 
ATOM     14 CL   UNL     1       5.498   6.569  17.744  0.00  0.00    +0.000 Cl
ENDBRANCH   5   8
ENDBRANCH   1   2
BRANCH   1  15
ATOM     15  N   UNL     1       0.907  11.740  19.582  0.00  0.00    +0.000 NA
ATOM     16  H   UNL     1       0.479  12.624  19.322  0.00  0.00    +0.000 HD
ATOM     17  H   UNL     1       1.903  11.813  19.384  0.00  0.00    +0.000 HD
ENDBRANCH   1  15
BRANCH   1  18
ATOM     18  C   UNL     1      -1.159  10.476  19.190  0.00  0.00    +0.000 C 
BRANCH  18  19
ATOM     19  C   UNL     1      -2.169  10.609  18.082  0.00  0.00    +0.000 A 
ATOM     20  C   UNL     1      -1.940  10.008  16.839  0.00  0.00    +0.000 A 
ATOM     21  C   UNL     1      -2.854  10.190  15.808  0.00  0.00    +0.000 A 
ATOM     22  F   UNL     1      -2.622   9.628  14.616  0.00  0.00    +0.000 F 
ATOM     23  C   UNL     1      -3.998  10.960  15.991  0.00  0.00    +0.000 A 
ATOM     24  C   UNL     1      -4.233  11.560  17.226  0.00  0.00    +0.000 A 
ATOM     25  C   UNL     1      -3.320  11.388  18.258  0.00  0.00    +0.000 A 
ATOM     26  F   UNL     1      -3.541  12.004  19.426  0.00  0.00    +0.000 F 
ENDBRANCH  18  19
ENDBRANCH   1  18
TORSDOF 5
ENDMDL
MODEL 5
REMARK VINA RESULT:      -8.0      3.927      8.391
REMARK  Name = 
REMARK  5 active torsions:
REMARK  status: ('A' for Active; 'I' for Inactive)
REMARK    1  A    between atoms: N_1  and  C_2
REMARK    2  A    between atoms: C_2  and  C_3
REMARK    3  A    between atoms: C_2  and  C_12
REMARK    4  A    between atoms: C_3  and  C_4
REMARK    5  A    between atoms: C_15  and  C_16
REMARK                            x       y       z     vdW  Elec       q    Type
REMARK                         _______ _______ _______ _____ _____    ______ ____
ROOT
ATOM      1  C   UNL     1       2.927   5.510  19.291  0.00  0.00    +0.000 C 
ENDROOT
BRANCH   1   2
ATOM      2  C   UNL     1       2.356   6.925  19.175  0.00  0.00    +0.000 A 
ATOM      3  C   UNL     1       2.333   7.604  17.948  0.00  0.00    +0.000 A 
ATOM      4  C   UNL     1       1.852   8.913  17.842  0.00  0.00    +0.000 A 
ATOM      5  C   UNL     1       1.301   9.588  18.942  0.00  0.00    +0.000 A 
ATOM      6  C   UNL     1       1.246   8.872  20.146  0.00  0.00    +0.000 A 
ATOM      7  C   UNL     1       1.775   7.580  20.268  0.00  0.00    +0.000 A 
BRANCH   5   8
ATOM      8  C   UNL     1       0.740  10.956  18.802  0.00  0.00    +0.000 A 
ATOM      9  C   UNL     1       1.595  12.064  18.980  0.00  0.00    +0.000 A 
ATOM     10  C   UNL     1       1.117  13.356  18.813  0.00  0.00    +0.000 A 
ATOM     11  N   UNL     1      -0.148  13.639  18.460  0.00  0.00    +0.000 NA
ATOM     12  C   UNL     1      -0.973  12.579  18.303  0.00  0.00    +0.000 A 
ATOM     13  C   UNL     1      -0.600  11.249  18.482  0.00  0.00    +0.000 A 
ATOM     14 CL   UNL     1      -1.858  10.070  18.356  0.00  0.00    +0.000 Cl
ENDBRANCH   5   8
ENDBRANCH   1   2
BRANCH   1  15
ATOM     15  N   UNL     1       2.282   4.730  20.360  0.00  0.00    +0.000 NA
ATOM     16  H   UNL     1       2.684   4.977  21.260  0.00  0.00    +0.000 HD
ATOM     17  H   UNL     1       2.460   3.739  20.208  0.00  0.00    +0.000 HD
ENDBRANCH   1  15
BRANCH   1  18
ATOM     18  C   UNL     1       4.459   5.519  19.549  0.00  0.00    +0.000 C 
BRANCH  18  19
ATOM     19  C   UNL     1       5.331   5.190  18.367  0.00  0.00    +0.000 A 
ATOM     20  C   UNL     1       4.757   4.850  17.136  0.00  0.00    +0.000 A 
ATOM     21  C   UNL     1       5.575   4.492  16.072  0.00  0.00    +0.000 A 
ATOM     22  F   UNL     1       5.021   4.150  14.902  0.00  0.00    +0.000 F 
ATOM     23  C   UNL     1       6.960   4.468  16.206  0.00  0.00    +0.000 A 
ATOM     24  C   UNL     1       7.538   4.807  17.428  0.00  0.00    +0.000 A 
ATOM     25  C   UNL     1       6.725   5.159  18.498  0.00  0.00    +0.000 A 
ATOM     26  F   UNL     1       7.295   5.443  19.676  0.00  0.00    +0.000 F 
ENDBRANCH  18  19
ENDBRANCH   1  18
TORSDOF 5
ENDMDL
MODEL 6
REMARK VINA RESULT:      -7.9      1.557      1.601
REMARK  Name = 
REMARK  5 active torsions:
REMARK  status: ('A' for Active; 'I' for Inactive)
REMARK    1  A    between atoms: N_1  and  C_2
REMARK    2  A    between atoms: C_2  and  C_3
REMARK    3  A    between atoms: C_2  and  C_12
REMARK    4  A    between atoms: C_3  and  C_4
REMARK    5  A    between atoms: C_15  and  C_16
REMARK                            x       y       z     vdW  Elec       q    Type
REMARK                         _______ _______ _______ _____ _____    ______ ____
ROOT
ATOM      1  C   UNL     1       0.452  10.471  20.014  0.00  0.00    +0.000 C 
ENDROOT
BRANCH   1   2
ATOM      2  C   UNL     1       1.267   9.307  19.444  0.00  0.00    +0.000 A 
ATOM      3  C   UNL     1       1.788   9.351  18.143  0.00  0.00    +0.000 A 
ATOM      4  C   UNL     1       2.497   8.274  17.600  0.00  0.00    +0.000 A 
ATOM      5  C   UNL     1       2.785   7.126  18.352  0.00  0.00    +0.000 A 
ATOM      6  C   UNL     1       2.337   7.125  19.680  0.00  0.00    +0.000 A 
ATOM      7  C   UNL     1       1.580   8.178  20.211  0.00  0.00    +0.000 A 
BRANCH   5   8
ATOM      8  C   UNL     1       3.590   6.016  17.781  0.00  0.00    +0.000 A 
ATOM      9  C   UNL     1       4.938   6.257  17.443  0.00  0.00    +0.000 A 
ATOM     10  C   UNL     1       5.734   5.233  16.950  0.00  0.00    +0.000 A 
ATOM     11  N   UNL     1       5.301   3.972  16.782  0.00  0.00    +0.000 NA
ATOM     12  C   UNL     1       4.005   3.742  17.091  0.00  0.00    +0.000 A 
ATOM     13  C   UNL     1       3.117   4.708  17.559  0.00  0.00    +0.000 A 
ATOM     14 CL   UNL     1       1.473   4.213  17.762  0.00  0.00    +0.000 Cl
ENDBRANCH   5   8
ENDBRANCH   1   2
BRANCH   1  15
ATOM     15  N   UNL     1      -0.697  10.013  20.814  0.00  0.00    +0.000 NA
ATOM     16  H   UNL     1      -1.315   9.447  20.240  0.00  0.00    +0.000 HD
ATOM     17  H   UNL     1      -1.230  10.821  21.131  0.00  0.00    +0.000 HD
ENDBRANCH   1  15
BRANCH   1  18
ATOM     18  C   UNL     1      -0.075  11.416  18.899  0.00  0.00    +0.000 C 
BRANCH  18  19
ATOM     19  C   UNL     1      -1.464  11.130  18.392  0.00  0.00    +0.000 A 
ATOM     20  C   UNL     1      -1.665  10.206  17.361  0.00  0.00    +0.000 A 
ATOM     21  C   UNL     1      -2.946   9.998  16.864  0.00  0.00    +0.000 A 
ATOM     22  F   UNL     1      -3.132   9.126  15.866  0.00  0.00    +0.000 F 
ATOM     23  C   UNL     1      -4.037  10.693  17.378  0.00  0.00    +0.000 A 
ATOM     24  C   UNL     1      -3.844  11.614  18.406  0.00  0.00    +0.000 A 
ATOM     25  C   UNL     1      -2.564  11.831  18.902  0.00  0.00    +0.000 A 
ATOM     26  F   UNL     1      -2.391  12.748  19.861  0.00  0.00    +0.000 F 
ENDBRANCH  18  19
ENDBRANCH   1  18
TORSDOF 5
ENDMDL
MODEL 7
REMARK VINA RESULT:      -7.9      1.180      1.519
REMARK  Name = 
REMARK  5 active torsions:
REMARK  status: ('A' for Active; 'I' for Inactive)
REMARK    1  A    between atoms: N_1  and  C_2
REMARK    2  A    between atoms: C_2  and  C_3
REMARK    3  A    between atoms: C_2  and  C_12
REMARK    4  A    between atoms: C_3  and  C_4
REMARK    5  A    between atoms: C_15  and  C_16
REMARK                            x       y       z     vdW  Elec       q    Type
REMARK                         _______ _______ _______ _____ _____    ______ ____
ROOT
ATOM      1  C   UNL     1       0.387  10.744  19.441  0.00  0.00    +0.000 C 
ENDROOT
BRANCH   1   2
ATOM      2  C   UNL     1       1.229   9.524  19.057  0.00  0.00    +0.000 A 
ATOM      3  C   UNL     1       1.404   8.452  19.943  0.00  0.00    +0.000 A 
ATOM      4  C   UNL     1       2.207   7.354  19.616  0.00  0.00    +0.000 A 
ATOM      5  C   UNL     1       2.817   7.235  18.359  0.00  0.00    +0.000 A 
ATOM      6  C   UNL     1       2.566   8.268  17.445  0.00  0.00    +0.000 A 
ATOM      7  C   UNL     1       1.807   9.395  17.788  0.00  0.00    +0.000 A 
BRANCH   5   8
ATOM      8  C   UNL     1       3.618   6.035  18.004  0.00  0.00    +0.000 A 
ATOM      9  C   UNL     1       5.022   6.153  17.922  0.00  0.00    +0.000 A 
ATOM     10  C   UNL     1       5.806   5.044  17.638  0.00  0.00    +0.000 A 
ATOM     11  N   UNL     1       5.307   3.812  17.446  0.00  0.00    +0.000 NA
ATOM     12  C   UNL     1       3.961   3.699  17.510  0.00  0.00    +0.000 A 
ATOM     13  C   UNL     1       3.086   4.756  17.754  0.00  0.00    +0.000 A 
ATOM     14 CL   UNL     1       1.397   4.398  17.658  0.00  0.00    +0.000 Cl
ENDBRANCH   5   8
ENDBRANCH   1   2
BRANCH   1  15
ATOM     15  N   UNL     1       0.896  11.420  20.646  0.00  0.00    +0.000 NA
ATOM     16  H   UNL     1       0.177  11.434  21.364  0.00  0.00    +0.000 HD
ATOM     17  H   UNL     1       1.120  12.387  20.420  0.00  0.00    +0.000 HD
ENDBRANCH   1  15
BRANCH   1  18
ATOM     18  C   UNL     1      -1.102  10.373  19.681  0.00  0.00    +0.000 C 
BRANCH  18  19
ATOM     19  C   UNL     1      -2.027  10.559  18.508  0.00  0.00    +0.000 A 
ATOM     20  C   UNL     1      -1.795   9.878  17.307  0.00  0.00    +0.000 A 
ATOM     21  C   UNL     1      -2.624  10.105  16.216  0.00  0.00    +0.000 A 
ATOM     22  F   UNL     1      -2.388   9.464  15.065  0.00  0.00    +0.000 F 
ATOM     23  C   UNL     1      -3.686  11.002  16.295  0.00  0.00    +0.000 A 
ATOM     24  C   UNL     1      -3.922  11.683  17.487  0.00  0.00    +0.000 A 
ATOM     25  C   UNL     1      -3.094  11.464  18.580  0.00  0.00    +0.000 A 
ATOM     26  F   UNL     1      -3.312  12.157  19.704  0.00  0.00    +0.000 F 
ENDBRANCH  18  19
ENDBRANCH   1  18
TORSDOF 5
ENDMDL
MODEL 8
REMARK VINA RESULT:      -7.8      3.868      8.285
REMARK  Name = 
REMARK  5 active torsions:
REMARK  status: ('A' for Active; 'I' for Inactive)
REMARK    1  A    between atoms: N_1  and  C_2
REMARK    2  A    between atoms: C_2  and  C_3
REMARK    3  A    between atoms: C_2  and  C_12
REMARK    4  A    between atoms: C_3  and  C_4
REMARK    5  A    between atoms: C_15  and  C_16
REMARK                            x       y       z     vdW  Elec       q    Type
REMARK                         _______ _______ _______ _____ _____    ______ ____
ROOT
ATOM      1  C   UNL     1       3.455   6.467  18.274  0.00  0.00    +0.000 C 
ENDROOT
BRANCH   1   2
ATOM      2  C   UNL     1       2.516   7.619  18.640  0.00  0.00    +0.000 A 
ATOM      3  C   UNL     1       1.981   7.741  19.931  0.00  0.00    +0.000 A 
ATOM      4  C   UNL     1       1.089   8.767  20.261  0.00  0.00    +0.000 A 
ATOM      5  C   UNL     1       0.740   9.766  19.341  0.00  0.00    +0.000 A 
ATOM      6  C   UNL     1       1.347   9.689  18.079  0.00  0.00    +0.000 A 
ATOM      7  C   UNL     1       2.199   8.633  17.728  0.00  0.00    +0.000 A 
BRANCH   5   8
ATOM      8  C   UNL     1      -0.162  10.883  19.724  0.00  0.00    +0.000 A 
ATOM      9  C   UNL     1       0.271  11.801  20.705  0.00  0.00    +0.000 A 
ATOM     10  C   UNL     1      -0.525  12.882  21.056  0.00  0.00    +0.000 A 
ATOM     11  N   UNL     1      -1.718  13.139  20.493  0.00  0.00    +0.000 NA
ATOM     12  C   UNL     1      -2.141  12.252  19.564  0.00  0.00    +0.000 A 
ATOM     13  C   UNL     1      -1.433  11.119  19.168  0.00  0.00    +0.000 A 
ATOM     14 CL   UNL     1      -2.231  10.059  18.059  0.00  0.00    +0.000 Cl
ENDBRANCH   5   8
ENDBRANCH   1   2
BRANCH   1  15
ATOM     15  N   UNL     1       4.265   6.760  17.080  0.00  0.00    +0.000 NA
ATOM     16  H   UNL     1       4.780   5.931  16.799  0.00  0.00    +0.000 HD
ATOM     17  H   UNL     1       4.947   7.482  17.305  0.00  0.00    +0.000 HD
ENDBRANCH   1  15
BRANCH   1  18
ATOM     18  C   UNL     1       2.683   5.142  18.027  0.00  0.00    +0.000 C 
BRANCH  18  19
ATOM     19  C   UNL     1       2.791   4.101  19.110  0.00  0.00    +0.000 A 
ATOM     20  C   UNL     1       1.727   3.886  19.993  0.00  0.00    +0.000 A 
ATOM     21  C   UNL     1       1.864   2.964  21.023  0.00  0.00    +0.000 A 
ATOM     22  F   UNL     1       0.851   2.774  21.876  0.00  0.00    +0.000 F 
ATOM     23  C   UNL     1       3.045   2.247  21.193  0.00  0.00    +0.000 A 
ATOM     24  C   UNL     1       4.108   2.456  20.316  0.00  0.00    +0.000 A 
ATOM     25  C   UNL     1       3.978   3.381  19.288  0.00  0.00    +0.000 A 
ATOM     26  F   UNL     1       5.023   3.598  18.480  0.00  0.00    +0.000 F 
ENDBRANCH  18  19
ENDBRANCH   1  18
TORSDOF 5
ENDMDL
MODEL 9
REMARK VINA RESULT:      -7.8      1.667      2.380
REMARK  Name = 
REMARK  5 active torsions:
REMARK  status: ('A' for Active; 'I' for Inactive)
REMARK    1  A    between atoms: N_1  and  C_2
REMARK    2  A    between atoms: C_2  and  C_3
REMARK    3  A    between atoms: C_2  and  C_12
REMARK    4  A    between atoms: C_3  and  C_4
REMARK    5  A    between atoms: C_15  and  C_16
REMARK                            x       y       z     vdW  Elec       q    Type
REMARK                         _______ _______ _______ _____ _____    ______ ____
ROOT
ATOM      1  C   UNL     1       0.457  10.521  19.959  0.00  0.00    +0.000 C 
ENDROOT
BRANCH   1   2
ATOM      2  C   UNL     1       1.269   9.343  19.415  0.00  0.00    +0.000 A 
ATOM      3  C   UNL     1       1.822   9.373  18.126  0.00  0.00    +0.000 A 
ATOM      4  C   UNL     1       2.528   8.283  17.606  0.00  0.00    +0.000 A 
ATOM      5  C   UNL     1       2.781   7.135  18.370  0.00  0.00    +0.000 A 
ATOM      6  C   UNL     1       2.302   7.147  19.688  0.00  0.00    +0.000 A 
ATOM      7  C   UNL     1       1.548   8.214  20.195  0.00  0.00    +0.000 A 
BRANCH   5   8
ATOM      8  C   UNL     1       3.584   6.010  17.825  0.00  0.00    +0.000 A 
ATOM      9  C   UNL     1       4.948   6.225  17.536  0.00  0.00    +0.000 A 
ATOM     10  C   UNL     1       5.741   5.186  17.068  0.00  0.00    +0.000 A 
ATOM     11  N   UNL     1       5.289   3.935  16.880  0.00  0.00    +0.000 NA
ATOM     12  C   UNL     1       3.978   3.731  17.142  0.00  0.00    +0.000 A 
ATOM     13  C   UNL     1       3.093   4.713  17.580  0.00  0.00    +0.000 A 
ATOM     14 CL   UNL     1       1.433   4.250  17.722  0.00  0.00    +0.000 Cl
ENDBRANCH   5   8
ENDBRANCH   1   2
BRANCH   1  15
ATOM     15  N   UNL     1      -0.665  10.085  20.807  0.00  0.00    +0.000 NA
ATOM     16  H   UNL     1      -1.517  10.036  20.256  0.00  0.00    +0.000 HD
ATOM     17  H   UNL     1      -0.817  10.773  21.543  0.00  0.00    +0.000 HD
ENDBRANCH   1  15
BRANCH   1  18
ATOM     18  C   UNL     1      -0.109  11.415  18.822  0.00  0.00    +0.000 C 
BRANCH  18  19
ATOM     19  C   UNL     1      -1.556  11.198  18.468  0.00  0.00    +0.000 A 
ATOM     20  C   UNL     1      -2.553  11.994  19.044  0.00  0.00    +0.000 A 
ATOM     21  C   UNL     1      -3.888  11.742  18.752  0.00  0.00    +0.000 A 
ATOM     22  F   UNL     1      -4.838  12.495  19.319  0.00  0.00    +0.000 F 
ATOM     23  C   UNL     1      -4.253  10.710  17.893  0.00  0.00    +0.000 A 
ATOM     24  C   UNL     1      -3.265   9.914  17.316  0.00  0.00    +0.000 A 
ATOM     25  C   UNL     1      -1.929  10.157  17.609  0.00  0.00    +0.000 A 
ATOM     26  F   UNL     1      -0.997   9.358  17.077  0.00  0.00    +0.000 F 
ENDBRANCH  18  19
ENDBRANCH   1  18
TORSDOF 5
ENDMDL
