MODEL 1
REMARK VINA RESULT:      -7.1      0.000      0.000
REMARK  Name = 
REMARK  2 active torsions:
REMARK  status: ('A' for Active; 'I' for Inactive)
REMARK    1  A    between atoms: C_2  and  C_3
REMARK    2  A    between atoms: C_6  and  N_7
REMARK                            x       y       z     vdW  Elec       q    Type
REMARK                         _______ _______ _______ _____ _____    ______ ____
ROOT
ATOM      1  C   UNL     1       2.565   7.069  18.737  0.00  0.00    +0.000 A 
ATOM      2  C   UNL     1       2.133   6.955  20.058  0.00  0.00    +0.000 A 
ATOM      3  C   UNL     1       1.508   8.032  20.683  0.00  0.00    +0.000 A 
ATOM      4  C   UNL     1       1.176   9.184  19.957  0.00  0.00    +0.000 A 
ATOM      5  C   UNL     1       1.460   9.224  18.583  0.00  0.00    +0.000 A 
ATOM      6  C   UNL     1       2.168   8.174  17.979  0.00  0.00    +0.000 A 
ENDROOT
BRANCH   1   8
ATOM      7  O   UNL     1       4.666   6.318  18.108  0.00  0.00    +0.000 OA
ATOM      8  C   UNL     1       3.466   6.063  18.117  0.00  0.00    +0.000 C 
ATOM      9  N   UNL     1       2.930   4.856  17.630  0.00  0.00    +0.000 N 
ATOM     10  C   UNL     1       1.530   4.419  17.680  0.00  0.00    +0.000 C 
ATOM     11  C   UNL     1       1.364   3.129  18.468  0.00  0.00    +0.000 C 
ATOM     12  C   UNL     1       2.296   2.044  17.951  0.00  0.00    +0.000 C 
ATOM     13  C   UNL     1       3.738   2.547  17.893  0.00  0.00    +0.000 C 
ATOM     14  C   UNL     1       3.849   3.851  17.101  0.00  0.00    +0.000 C 
ENDBRANCH   1   8
BRANCH   4  15
ATOM     15  N   UNL     1       0.556  10.288  20.616  0.00  0.00    +0.000 N 
ATOM     16  C   UNL     1       0.509  11.595  20.160  0.00  0.00    +0.000 A 
ATOM     17  C   UNL     1      -0.159  12.377  21.073  0.00  0.00    +0.000 A 
ATOM     18  C   UNL     1      -0.556  11.535  22.127  0.00  0.00    +0.000 A 
ATOM     19  C   UNL     1      -0.123  10.262  21.820  0.00  0.00    +0.000 A 
ENDBRANCH   4  15
TORSDOF 2
ENDMDL
MODEL 2
REMARK VINA RESULT:      -7.1      0.861      1.564
REMARK  Name = 
REMARK  2 active torsions:
REMARK  status: ('A' for Active; 'I' for Inactive)
REMARK    1  A    between atoms: C_2  and  C_3
REMARK    2  A    between atoms: C_6  and  N_7
REMARK                            x       y       z     vdW  Elec       q    Type
REMARK                         _______ _______ _______ _____ _____    ______ ____
ROOT
ATOM      1  C   UNL     1       2.960   7.029  18.524  0.00  0.00    +0.000 A 
ATOM      2  C   UNL     1       2.695   8.113  17.688  0.00  0.00    +0.000 A 
ATOM      3  C   UNL     1       1.765   9.079  18.069  0.00  0.00    +0.000 A 
ATOM      4  C   UNL     1       1.197   9.055  19.350  0.00  0.00    +0.000 A 
ATOM      5  C   UNL     1       1.599   8.055  20.251  0.00  0.00    +0.000 A 
ATOM      6  C   UNL     1       2.466   7.037  19.832  0.00  0.00    +0.000 A 
ENDROOT
BRANCH   1   8
ATOM      7  O   UNL     1       4.951   5.929  18.079  0.00  0.00    +0.000 OA
ATOM      8  C   UNL     1       3.727   5.846  18.055  0.00  0.00    +0.000 C 
ATOM      9  N   UNL     1       3.041   4.680  17.669  0.00  0.00    +0.000 N 
ATOM     10  C   UNL     1       1.591   4.451  17.694  0.00  0.00    +0.000 C 
ATOM     11  C   UNL     1       1.215   3.289  18.601  0.00  0.00    +0.000 C 
ATOM     12  C   UNL     1       1.998   2.036  18.245  0.00  0.00    +0.000 C 
ATOM     13  C   UNL     1       3.498   2.324  18.206  0.00  0.00    +0.000 C 
ATOM     14  C   UNL     1       3.822   3.506  17.291  0.00  0.00    +0.000 C 
ENDBRANCH   1   8
BRANCH   4  15
ATOM     15  N   UNL     1       0.229  10.037  19.719  0.00  0.00    +0.000 N 
ATOM     16  C   UNL     1       0.033  10.562  20.986  0.00  0.00    +0.000 A 
ATOM     17  C   UNL     1      -0.998  11.470  20.954  0.00  0.00    +0.000 A 
ATOM     18  C   UNL     1      -1.455  11.530  19.625  0.00  0.00    +0.000 A 
ATOM     19  C   UNL     1      -0.682  10.659  18.886  0.00  0.00    +0.000 A 
ENDBRANCH   4  15
TORSDOF 2
ENDMDL
MODEL 3
REMARK VINA RESULT:      -6.8      4.066      7.534
REMARK  Name = 
REMARK  2 active torsions:
REMARK  status: ('A' for Active; 'I' for Inactive)
REMARK    1  A    between atoms: C_2  and  C_3
REMARK    2  A    between atoms: C_6  and  N_7
REMARK                            x       y       z     vdW  Elec       q    Type
REMARK                         _______ _______ _______ _____ _____    ______ ____
ROOT
ATOM      1  C   UNL     1       4.283   5.381  17.606  0.00  0.00    +0.000 A 
ATOM      2  C   UNL     1       4.684   4.076  17.323  0.00  0.00    +0.000 A 
ATOM      3  C   UNL     1       5.285   3.779  16.102  0.00  0.00    +0.000 A 
ATOM      4  C   UNL     1       5.626   4.803  15.207  0.00  0.00    +0.000 A 
ATOM      5  C   UNL     1       5.374   6.135  15.574  0.00  0.00    +0.000 A 
ATOM      6  C   UNL     1       4.690   6.420  16.764  0.00  0.00    +0.000 A 
ENDROOT
BRANCH   1   8
ATOM      7  O   UNL     1       2.927   6.827  18.807  0.00  0.00    +0.000 OA
ATOM      8  C   UNL     1       3.406   5.698  18.762  0.00  0.00    +0.000 C 
ATOM      9  N   UNL     1       3.113   4.699  19.709  0.00  0.00    +0.000 N 
ATOM     10  C   UNL     1       3.558   3.300  19.693  0.00  0.00    +0.000 C 
ATOM     11  C   UNL     1       2.386   2.331  19.642  0.00  0.00    +0.000 C 
ATOM     12  C   UNL     1       1.388   2.614  20.753  0.00  0.00    +0.000 C 
ATOM     13  C   UNL     1       0.970   4.084  20.748  0.00  0.00    +0.000 C 
ATOM     14  C   UNL     1       2.183   5.015  20.789  0.00  0.00    +0.000 C 
ENDBRANCH   1   8
BRANCH   4  15
ATOM     15  N   UNL     1       6.221   4.482  13.950  0.00  0.00    +0.000 N 
ATOM     16  C   UNL     1       7.348   5.072  13.400  0.00  0.00    +0.000 A 
ATOM     17  C   UNL     1       7.608   4.512  12.171  0.00  0.00    +0.000 A 
ATOM     18  C   UNL     1       6.625   3.531  11.949  0.00  0.00    +0.000 A 
ATOM     19  C   UNL     1       5.799   3.519  13.053  0.00  0.00    +0.000 A 
ENDBRANCH   4  15
TORSDOF 2
ENDMDL
MODEL 4
REMARK VINA RESULT:      -6.8      1.634      2.759
REMARK  Name = 
REMARK  2 active torsions:
REMARK  status: ('A' for Active; 'I' for Inactive)
REMARK    1  A    between atoms: C_2  and  C_3
REMARK    2  A    between atoms: C_6  and  N_7
REMARK                            x       y       z     vdW  Elec       q    Type
REMARK                         _______ _______ _______ _____ _____    ______ ____
ROOT
ATOM      1  C   UNL     1       2.503   6.371  18.725  0.00  0.00    +0.000 A 
ATOM      2  C   UNL     1       2.394   7.654  18.190  0.00  0.00    +0.000 A 
ATOM      3  C   UNL     1       1.764   8.663  18.915  0.00  0.00    +0.000 A 
ATOM      4  C   UNL     1       1.364   8.445  20.240  0.00  0.00    +0.000 A 
ATOM      5  C   UNL     1       1.632   7.200  20.833  0.00  0.00    +0.000 A 
ATOM      6  C   UNL     1       2.186   6.162  20.070  0.00  0.00    +0.000 A 
ENDROOT
BRANCH   1   8
ATOM      7  O   UNL     1       2.025   4.488  17.462  0.00  0.00    +0.000 OA
ATOM      8  C   UNL     1       2.917   5.208  17.898  0.00  0.00    +0.000 C 
ATOM      9  N   UNL     1       4.279   5.015  17.601  0.00  0.00    +0.000 N 
ATOM     10  C   UNL     1       5.406   5.869  17.995  0.00  0.00    +0.000 C 
ATOM     11  C   UNL     1       6.149   6.422  16.789  0.00  0.00    +0.000 C 
ATOM     12  C   UNL     1       6.563   5.310  15.839  0.00  0.00    +0.000 C 
ATOM     13  C   UNL     1       5.367   4.433  15.473  0.00  0.00    +0.000 C 
ATOM     14  C   UNL     1       4.648   3.911  16.719  0.00  0.00    +0.000 C 
ENDBRANCH   1   8
BRANCH   4  15
ATOM     15  N   UNL     1       0.700   9.480  20.964  0.00  0.00    +0.000 N 
ATOM     16  C   UNL     1       0.578  10.805  20.578  0.00  0.00    +0.000 A 
ATOM     17  C   UNL     1      -0.114  11.503  21.539  0.00  0.00    +0.000 A 
ATOM     18  C   UNL     1      -0.450  10.588  22.553  0.00  0.00    +0.000 A 
ATOM     19  C   UNL     1       0.043   9.357  22.174  0.00  0.00    +0.000 A 
ENDBRANCH   4  15
TORSDOF 2
ENDMDL
MODEL 5
REMARK VINA RESULT:      -6.8      1.758      2.399
REMARK  Name = 
REMARK  2 active torsions:
REMARK  status: ('A' for Active; 'I' for Inactive)
REMARK    1  A    between atoms: C_2  and  C_3
REMARK    2  A    between atoms: C_6  and  N_7
REMARK                            x       y       z     vdW  Elec       q    Type
REMARK                         _______ _______ _______ _____ _____    ______ ____
ROOT
ATOM      1  C   UNL     1       2.840   7.059  19.053  0.00  0.00    +0.000 A 
ATOM      2  C   UNL     1       2.835   7.788  17.865  0.00  0.00    +0.000 A 
ATOM      3  C   UNL     1       1.941   8.843  17.696  0.00  0.00    +0.000 A 
ATOM      4  C   UNL     1       1.142   9.278  18.763  0.00  0.00    +0.000 A 
ATOM      5  C   UNL     1       1.277   8.648  20.011  0.00  0.00    +0.000 A 
ATOM      6  C   UNL     1       2.112   7.531  20.149  0.00  0.00    +0.000 A 
ENDROOT
BRANCH   1   8
ATOM      7  O   UNL     1       4.792   5.834  19.302  0.00  0.00    +0.000 OA
ATOM      8  C   UNL     1       3.573   5.772  19.181  0.00  0.00    +0.000 C 
ATOM      9  N   UNL     1       2.854   4.563  19.221  0.00  0.00    +0.000 N 
ATOM     10  C   UNL     1       1.396   4.393  19.180  0.00  0.00    +0.000 C 
ATOM     11  C   UNL     1       0.869   3.703  20.428  0.00  0.00    +0.000 C 
ATOM     12  C   UNL     1       1.603   2.397  20.688  0.00  0.00    +0.000 C 
ATOM     13  C   UNL     1       3.115   2.615  20.700  0.00  0.00    +0.000 C 
ATOM     14  C   UNL     1       3.593   3.321  19.430  0.00  0.00    +0.000 C 
ENDBRANCH   1   8
BRANCH   4  15
ATOM     15  N   UNL     1       0.215  10.346  18.569  0.00  0.00    +0.000 N 
ATOM     16  C   UNL     1      -1.054  10.243  18.025  0.00  0.00    +0.000 A 
ATOM     17  C   UNL     1      -1.641  11.486  17.986  0.00  0.00    +0.000 A 
ATOM     18  C   UNL     1      -0.720  12.395  18.536  0.00  0.00    +0.000 A 
ATOM     19  C   UNL     1       0.399  11.675  18.899  0.00  0.00    +0.000 A 
ENDBRANCH   4  15
TORSDOF 2
ENDMDL
MODEL 6
REMARK VINA RESULT:      -6.8      1.522      2.796
REMARK  Name = 
REMARK  2 active torsions:
REMARK  status: ('A' for Active; 'I' for Inactive)
REMARK    1  A    between atoms: C_2  and  C_3
REMARK    2  A    between atoms: C_6  and  N_7
REMARK                            x       y       z     vdW  Elec       q    Type
REMARK                         _______ _______ _______ _____ _____    ______ ____
ROOT
ATOM      1  C   UNL     1       2.495   6.641  18.536  0.00  0.00    +0.000 A 
ATOM      2  C   UNL     1       2.325   7.815  17.803  0.00  0.00    +0.000 A 
ATOM      3  C   UNL     1       1.709   8.920  18.385  0.00  0.00    +0.000 A 
ATOM      4  C   UNL     1       1.386   8.920  19.749  0.00  0.00    +0.000 A 
ATOM      5  C   UNL     1       1.718   7.796  20.524  0.00  0.00    +0.000 A 
ATOM      6  C   UNL     1       2.256   6.654  19.914  0.00  0.00    +0.000 A 
ENDROOT
BRANCH   1   8
ATOM      7  O   UNL     1       1.992   4.612  17.536  0.00  0.00    +0.000 OA
ATOM      8  C   UNL     1       2.894   5.364  17.891  0.00  0.00    +0.000 C 
ATOM      9  N   UNL     1       4.256   5.095  17.661  0.00  0.00    +0.000 N 
ATOM     10  C   UNL     1       5.398   5.967  17.963  0.00  0.00    +0.000 C 
ATOM     11  C   UNL     1       6.185   6.326  16.712  0.00  0.00    +0.000 C 
ATOM     12  C   UNL     1       6.588   5.082  15.938  0.00  0.00    +0.000 C 
ATOM     13  C   UNL     1       5.376   4.193  15.666  0.00  0.00    +0.000 C 
ATOM     14  C   UNL     1       4.613   3.870  16.952  0.00  0.00    +0.000 C 
ENDBRANCH   1   8
BRANCH   4  15
ATOM     15  N   UNL     1       0.735  10.050  20.328  0.00  0.00    +0.000 N 
ATOM     16  C   UNL     1      -0.215  10.024  21.337  0.00  0.00    +0.000 A 
ATOM     17  C   UNL     1      -0.623  11.306  21.619  0.00  0.00    +0.000 A 
ATOM     18  C   UNL     1       0.102  12.166  20.773  0.00  0.00    +0.000 A 
ATOM     19  C   UNL     1       0.936  11.379  20.006  0.00  0.00    +0.000 A 
ENDBRANCH   4  15
TORSDOF 2
ENDMDL
MODEL 7
REMARK VINA RESULT:      -6.7      4.632      7.620
REMARK  Name = 
REMARK  2 active torsions:
REMARK  status: ('A' for Active; 'I' for Inactive)
REMARK    1  A    between atoms: C_2  and  C_3
REMARK    2  A    between atoms: C_6  and  N_7
REMARK                            x       y       z     vdW  Elec       q    Type
REMARK                         _______ _______ _______ _____ _____    ______ ____
ROOT
ATOM      1  C   UNL     1       5.063   4.960  17.855  0.00  0.00    +0.000 A 
ATOM      2  C   UNL     1       6.249   4.262  17.629  0.00  0.00    +0.000 A 
ATOM      3  C   UNL     1       6.734   4.110  16.332  0.00  0.00    +0.000 A 
ATOM      4  C   UNL     1       6.124   4.776  15.260  0.00  0.00    +0.000 A 
ATOM      5  C   UNL     1       5.030   5.617  15.520  0.00  0.00    +0.000 A 
ATOM      6  C   UNL     1       4.493   5.695  16.812  0.00  0.00    +0.000 A 
ENDROOT
BRANCH   1   8
ATOM      7  O   UNL     1       4.589   5.842  19.945  0.00  0.00    +0.000 OA
ATOM      8  C   UNL     1       4.368   4.920  19.167  0.00  0.00    +0.000 C 
ATOM      9  N   UNL     1       3.454   3.884  19.439  0.00  0.00    +0.000 N 
ATOM     10  C   UNL     1       3.052   2.794  18.543  0.00  0.00    +0.000 C 
ATOM     11  C   UNL     1       1.559   2.815  18.255  0.00  0.00    +0.000 C 
ATOM     12  C   UNL     1       0.750   2.842  19.542  0.00  0.00    +0.000 C 
ATOM     13  C   UNL     1       1.216   3.975  20.455  0.00  0.00    +0.000 C 
ATOM     14  C   UNL     1       2.724   3.915  20.703  0.00  0.00    +0.000 C 
ENDBRANCH   1   8
BRANCH   4  15
ATOM     15  N   UNL     1       6.618   4.594  13.933  0.00  0.00    +0.000 N 
ATOM     16  C   UNL     1       7.587   5.359  13.305  0.00  0.00    +0.000 A 
ATOM     17  C   UNL     1       7.787   4.892  12.028  0.00  0.00    +0.000 A 
ATOM     18  C   UNL     1       6.929   3.791  11.852  0.00  0.00    +0.000 A 
ATOM     19  C   UNL     1       6.237   3.618  13.032  0.00  0.00    +0.000 A 
ENDBRANCH   4  15
TORSDOF 2
ENDMDL
MODEL 8
REMARK VINA RESULT:      -6.7      1.905      3.133
REMARK  Name = 
REMARK  2 active torsions:
REMARK  status: ('A' for Active; 'I' for Inactive)
REMARK    1  A    between atoms: C_2  and  C_3
REMARK    2  A    between atoms: C_6  and  N_7
REMARK                            x       y       z     vdW  Elec       q    Type
REMARK                         _______ _______ _______ _____ _____    ______ ____
ROOT
ATOM      1  C   UNL     1       2.900   5.859  18.549  0.00  0.00    +0.000 A 
ATOM      2  C   UNL     1       2.829   7.167  18.071  0.00  0.00    +0.000 A 
ATOM      3  C   UNL     1       2.142   8.139  18.795  0.00  0.00    +0.000 A 
ATOM      4  C   UNL     1       1.643   7.856  20.073  0.00  0.00    +0.000 A 
ATOM      5  C   UNL     1       1.868   6.584  20.622  0.00  0.00    +0.000 A 
ATOM      6  C   UNL     1       2.482   5.584  19.855  0.00  0.00    +0.000 A 
ENDROOT
BRANCH   1   8
ATOM      7  O   UNL     1       2.530   3.976  17.251  0.00  0.00    +0.000 OA
ATOM      8  C   UNL     1       3.379   4.738  17.700  0.00  0.00    +0.000 C 
ATOM      9  N   UNL     1       4.750   4.629  17.399  0.00  0.00    +0.000 N 
ATOM     10  C   UNL     1       5.826   5.540  17.809  0.00  0.00    +0.000 C 
ATOM     11  C   UNL     1       6.534   6.158  16.614  0.00  0.00    +0.000 C 
ATOM     12  C   UNL     1       7.011   5.090  15.643  0.00  0.00    +0.000 C 
ATOM     13  C   UNL     1       5.867   4.152  15.260  0.00  0.00    +0.000 C 
ATOM     14  C   UNL     1       5.181   3.566  16.496  0.00  0.00    +0.000 C 
ENDBRANCH   1   8
BRANCH   4  15
ATOM     15  N   UNL     1       0.922   8.855  20.794  0.00  0.00    +0.000 N 
ATOM     16  C   UNL     1       0.934   9.048  22.166  0.00  0.00    +0.000 A 
ATOM     17  C   UNL     1       0.104  10.095  22.491  0.00  0.00    +0.000 A 
ATOM     18  C   UNL     1      -0.435  10.584  21.288  0.00  0.00    +0.000 A 
ATOM     19  C   UNL     1       0.090   9.824  20.264  0.00  0.00    +0.000 A 
ENDBRANCH   4  15
TORSDOF 2
ENDMDL
MODEL 9
REMARK VINA RESULT:      -6.7      4.690      7.782
REMARK  Name = 
REMARK  2 active torsions:
REMARK  status: ('A' for Active; 'I' for Inactive)
REMARK    1  A    between atoms: C_2  and  C_3
REMARK    2  A    between atoms: C_6  and  N_7
REMARK                            x       y       z     vdW  Elec       q    Type
REMARK                         _______ _______ _______ _____ _____    ______ ____
ROOT
ATOM      1  C   UNL     1       5.023   4.346  17.847  0.00  0.00    +0.000 A 
ATOM      2  C   UNL     1       4.259   3.997  16.734  0.00  0.00    +0.000 A 
ATOM      3  C   UNL     1       4.808   4.079  15.456  0.00  0.00    +0.000 A 
ATOM      4  C   UNL     1       6.168   4.369  15.281  0.00  0.00    +0.000 A 
ATOM      5  C   UNL     1       6.973   4.550  16.418  0.00  0.00    +0.000 A 
ATOM      6  C   UNL     1       6.397   4.554  17.696  0.00  0.00    +0.000 A 
ENDROOT
BRANCH   1   8
ATOM      7  O   UNL     1       4.774   5.513  19.833  0.00  0.00    +0.000 OA
ATOM      8  C   UNL     1       4.413   4.535  19.188  0.00  0.00    +0.000 C 
ATOM      9  N   UNL     1       3.422   3.640  19.635  0.00  0.00    +0.000 N 
ATOM     10  C   UNL     1       2.858   2.500  18.903  0.00  0.00    +0.000 C 
ATOM     11  C   UNL     1       1.358   2.645  18.694  0.00  0.00    +0.000 C 
ATOM     12  C   UNL     1       0.641   2.908  20.008  0.00  0.00    +0.000 C 
ATOM     13  C   UNL     1       1.274   4.086  20.748  0.00  0.00    +0.000 C 
ATOM     14  C   UNL     1       2.782   3.897  20.922  0.00  0.00    +0.000 C 
ENDBRANCH   1   8
BRANCH   4  15
ATOM     15  N   UNL     1       6.713   4.472  13.966  0.00  0.00    +0.000 N 
ATOM     16  C   UNL     1       6.377   3.687  12.875  0.00  0.00    +0.000 A 
ATOM     17  C   UNL     1       7.123   4.072  11.785  0.00  0.00    +0.000 A 
ATOM     18  C   UNL     1       7.940   5.139  12.199  0.00  0.00    +0.000 A 
ATOM     19  C   UNL     1       7.662   5.376  13.529  0.00  0.00    +0.000 A 
ENDBRANCH   4  15
TORSDOF 2
ENDMDL
