MODEL 1
REMARK VINA RESULT:      -8.6      0.000      0.000
REMARK  Name = 
REMARK  6 active torsions:
REMARK  status: ('A' for Active; 'I' for Inactive)
REMARK    1  A    between atoms: C_1  and  C_2
REMARK    2  A    between atoms: C_2  and  O_3
REMARK    3  A    between atoms: O_3  and  C_4
REMARK    4  A    between atoms: C_4  and  C_6
REMARK    5  A    between atoms: C_13  and  C_14
REMARK    6  A    between atoms: C_17  and  C_18
REMARK                            x       y       z     vdW  Elec       q    Type
REMARK                         _______ _______ _______ _____ _____    ______ ____
ROOT
ATOM      1  C   UNL     1       6.513   5.369  17.805  0.00  0.00    +0.000 A 
ATOM      2  N   UNL     1       7.056   4.642  18.854  0.00  0.00    +0.000 NA
ATOM      3  C   UNL     1       6.034   4.251  19.577  0.00  0.00    +0.000 A 
ATOM      4  N   UNL     1       4.836   4.701  19.080  0.00  0.00    +0.000 N 
ATOM      5  C   UNL     1       5.131   5.416  17.937  0.00  0.00    +0.000 A 
ATOM      6  C   UNL     1       4.066   5.959  17.065  0.00  0.00    +0.000 C 
ATOM      7  N   UNL     1       3.335   6.977  17.790  0.00  0.00    +0.000 NA
ATOM      8  C   UNL     1       2.627   6.665  18.823  0.00  0.00    +0.000 C 
ATOM      9  C   UNL     1       2.459   5.275  19.359  0.00  0.00    +0.000 A 
ATOM     10  C   UNL     1       1.175   4.888  19.782  0.00  0.00    +0.000 A 
ATOM     11  C   UNL     1       0.982   3.687  20.464  0.00  0.00    +0.000 A 
ATOM     12  C   UNL     1       2.066   2.853  20.721  0.00  0.00    +0.000 A 
ATOM     13  C   UNL     1       3.344   3.205  20.281  0.00  0.00    +0.000 A 
ATOM     14  C   UNL     1       3.544   4.407  19.580  0.00  0.00    +0.000 A 
ENDROOT
BRANCH   8  15
ATOM     15  C   UNL     1       1.974   7.798  19.558  0.00  0.00    +0.000 A 
ATOM     16  C   UNL     1       1.750   7.684  20.934  0.00  0.00    +0.000 A 
ATOM     17  C   UNL     1       1.067   8.692  21.620  0.00  0.00    +0.000 A 
ATOM     18  C   UNL     1       0.593   9.819  20.936  0.00  0.00    +0.000 A 
ATOM     19  C   UNL     1      -0.195  10.879  21.644  0.00  0.00    +0.000 C 
ATOM     20  C   UNL     1       0.835   9.937  19.562  0.00  0.00    +0.000 A 
ATOM     21  C   UNL     1       1.510   8.929  18.874  0.00  0.00    +0.000 A 
ENDBRANCH   8  15
BRANCH   1  22
ATOM     22  C   UNL     1       7.320   5.872  16.692  0.00  0.00    +0.000 C 
ATOM     23  O   UNL     1       7.636   7.049  16.547  0.00  0.00    +0.000 OA
BRANCH  22  24
ATOM     24  O   UNL     1       7.559   4.899  15.762  0.00  0.00    +0.000 OA
BRANCH  24  26
ATOM     25  C   UNL     1       5.990   3.830  14.306  0.00  0.00    +0.000 C 
ATOM     26  C   UNL     1       6.863   5.056  14.522  0.00  0.00    +0.000 C 
ENDBRANCH  24  26
ENDBRANCH  22  24
ENDBRANCH   1  22
TORSDOF 4
ENDMDL
MODEL 2
REMARK VINA RESULT:      -8.4      1.124      2.154
REMARK  Name = 
REMARK  6 active torsions:
REMARK  status: ('A' for Active; 'I' for Inactive)
REMARK    1  A    between atoms: C_1  and  C_2
REMARK    2  A    between atoms: C_2  and  O_3
REMARK    3  A    between atoms: O_3  and  C_4
REMARK    4  A    between atoms: C_4  and  C_6
REMARK    5  A    between atoms: C_13  and  C_14
REMARK    6  A    between atoms: C_17  and  C_18
REMARK                            x       y       z     vdW  Elec       q    Type
REMARK                         _______ _______ _______ _____ _____    ______ ____
ROOT
ATOM      1  C   UNL     1       6.429   5.963  17.902  0.00  0.00    +0.000 A 
ATOM      2  N   UNL     1       7.021   5.221  18.912  0.00  0.00    +0.000 NA
ATOM      3  C   UNL     1       6.028   4.716  19.605  0.00  0.00    +0.000 A 
ATOM      4  N   UNL     1       4.801   5.105  19.124  0.00  0.00    +0.000 N 
ATOM      5  C   UNL     1       5.047   5.902  18.026  0.00  0.00    +0.000 A 
ATOM      6  C   UNL     1       3.948   6.415  17.178  0.00  0.00    +0.000 C 
ATOM      7  N   UNL     1       3.142   7.335  17.954  0.00  0.00    +0.000 NA
ATOM      8  C   UNL     1       2.456   6.914  18.962  0.00  0.00    +0.000 C 
ATOM      9  C   UNL     1       2.389   5.486  19.419  0.00  0.00    +0.000 A 
ATOM     10  C   UNL     1       1.135   4.984  19.810  0.00  0.00    +0.000 A 
ATOM     11  C   UNL     1       1.028   3.736  20.422  0.00  0.00    +0.000 A 
ATOM     12  C   UNL     1       2.170   2.970  20.640  0.00  0.00    +0.000 A 
ATOM     13  C   UNL     1       3.419   3.438  20.229  0.00  0.00    +0.000 A 
ATOM     14  C   UNL     1       3.533   4.689  19.598  0.00  0.00    +0.000 A 
ENDROOT
BRANCH   8  15
ATOM     15  C   UNL     1       1.719   7.952  19.755  0.00  0.00    +0.000 A 
ATOM     16  C   UNL     1       1.252   9.103  19.111  0.00  0.00    +0.000 A 
ATOM     17  C   UNL     1       0.638  10.120  19.848  0.00  0.00    +0.000 A 
ATOM     18  C   UNL     1       0.495  10.001  21.236  0.00  0.00    +0.000 A 
ATOM     19  C   UNL     1      -0.104  11.109  22.049  0.00  0.00    +0.000 C 
ATOM     20  C   UNL     1       0.948   8.840  21.874  0.00  0.00    +0.000 A 
ATOM     21  C   UNL     1       1.567   7.827  21.142  0.00  0.00    +0.000 A 
ENDBRANCH   8  15
BRANCH   1  22
ATOM     22  C   UNL     1       7.201   6.586  16.824  0.00  0.00    +0.000 C 
ATOM     23  O   UNL     1       7.707   5.967  15.893  0.00  0.00    +0.000 OA
BRANCH  22  24
ATOM     24  O   UNL     1       7.407   7.918  17.056  0.00  0.00    +0.000 OA
BRANCH  24  26
ATOM     25  C   UNL     1       8.549   9.708  18.158  0.00  0.00    +0.000 C 
ATOM     26  C   UNL     1       8.240   8.220  18.179  0.00  0.00    +0.000 C 
ENDBRANCH  24  26
ENDBRANCH  22  24
ENDBRANCH   1  22
TORSDOF 4
ENDMDL
MODEL 3
REMARK VINA RESULT:      -8.3      0.857      1.693
REMARK  Name = 
REMARK  6 active torsions:
REMARK  status: ('A' for Active; 'I' for Inactive)
REMARK    1  A    between atoms: C_1  and  C_2
REMARK    2  A    between atoms: C_2  and  O_3
REMARK    3  A    between atoms: O_3  and  C_4
REMARK    4  A    between atoms: C_4  and  C_6
REMARK    5  A    between atoms: C_13  and  C_14
REMARK    6  A    between atoms: C_17  and  C_18
REMARK                            x       y       z     vdW  Elec       q    Type
REMARK                         _______ _______ _______ _____ _____    ______ ____
ROOT
ATOM      1  C   UNL     1       6.458   5.434  17.593  0.00  0.00    +0.000 A 
ATOM      2  N   UNL     1       7.082   4.735  18.613  0.00  0.00    +0.000 NA
ATOM      3  C   UNL     1       6.118   4.331  19.405  0.00  0.00    +0.000 A 
ATOM      4  N   UNL     1       4.880   4.747  18.979  0.00  0.00    +0.000 N 
ATOM      5  C   UNL     1       5.086   5.452  17.811  0.00  0.00    +0.000 A 
ATOM      6  C   UNL     1       3.956   5.959  17.001  0.00  0.00    +0.000 C 
ATOM      7  N   UNL     1       3.249   6.971  17.759  0.00  0.00    +0.000 NA
ATOM      8  C   UNL     1       2.615   6.657  18.838  0.00  0.00    +0.000 C 
ATOM      9  C   UNL     1       2.514   5.271  19.401  0.00  0.00    +0.000 A 
ATOM     10  C   UNL     1       1.268   4.861  19.909  0.00  0.00    +0.000 A 
ATOM     11  C   UNL     1       1.146   3.666  20.617  0.00  0.00    +0.000 A 
ATOM     12  C   UNL     1       2.264   2.860  20.815  0.00  0.00    +0.000 A 
ATOM     13  C   UNL     1       3.502   3.235  20.290  0.00  0.00    +0.000 A 
ATOM     14  C   UNL     1       3.630   4.431  19.563  0.00  0.00    +0.000 A 
ENDROOT
BRANCH   8  15
ATOM     15  C   UNL     1       1.983   7.785  19.598  0.00  0.00    +0.000 A 
ATOM     16  C   UNL     1       1.765   7.648  20.973  0.00  0.00    +0.000 A 
ATOM     17  C   UNL     1       1.101   8.652  21.683  0.00  0.00    +0.000 A 
ATOM     18  C   UNL     1       0.641   9.799  21.024  0.00  0.00    +0.000 A 
ATOM     19  C   UNL     1      -0.127  10.857  21.757  0.00  0.00    +0.000 C 
ATOM     20  C   UNL     1       0.878   9.941  19.651  0.00  0.00    +0.000 A 
ATOM     21  C   UNL     1       1.533   8.936  18.939  0.00  0.00    +0.000 A 
ENDBRANCH   8  15
BRANCH   1  22
ATOM     22  C   UNL     1       7.181   5.940  16.424  0.00  0.00    +0.000 C 
ATOM     23  O   UNL     1       7.209   5.375  15.334  0.00  0.00    +0.000 OA
BRANCH  22  24
ATOM     24  O   UNL     1       7.934   7.038  16.733  0.00  0.00    +0.000 OA
BRANCH  24  26
ATOM     25  C   UNL     1       8.285   8.967  18.103  0.00  0.00    +0.000 C 
ATOM     26  C   UNL     1       7.248   8.063  17.457  0.00  0.00    +0.000 C 
ENDBRANCH  24  26
ENDBRANCH  22  24
ENDBRANCH   1  22
TORSDOF 4
ENDMDL
MODEL 4
REMARK VINA RESULT:      -7.3      1.206      1.335
REMARK  Name = 
REMARK  6 active torsions:
REMARK  status: ('A' for Active; 'I' for Inactive)
REMARK    1  A    between atoms: C_1  and  C_2
REMARK    2  A    between atoms: C_2  and  O_3
REMARK    3  A    between atoms: O_3  and  C_4
REMARK    4  A    between atoms: C_4  and  C_6
REMARK    5  A    between atoms: C_13  and  C_14
REMARK    6  A    between atoms: C_17  and  C_18
REMARK                            x       y       z     vdW  Elec       q    Type
REMARK                         _______ _______ _______ _____ _____    ______ ____
ROOT
ATOM      1  C   UNL     1       5.948   6.056  18.062  0.00  0.00    +0.000 A 
ATOM      2  N   UNL     1       6.697   5.235  18.891  0.00  0.00    +0.000 NA
ATOM      3  C   UNL     1       5.825   4.583  19.622  0.00  0.00    +0.000 A 
ATOM      4  N   UNL     1       4.530   4.945  19.341  0.00  0.00    +0.000 N 
ATOM      5  C   UNL     1       4.597   5.888  18.335  0.00  0.00    +0.000 A 
ATOM      6  C   UNL     1       3.377   6.426  17.693  0.00  0.00    +0.000 C 
ATOM      7  N   UNL     1       2.626   7.187  18.671  0.00  0.00    +0.000 NA
ATOM      8  C   UNL     1       2.092   6.599  19.688  0.00  0.00    +0.000 C 
ATOM      9  C   UNL     1       2.155   5.125  19.958  0.00  0.00    +0.000 A 
ATOM     10  C   UNL     1       0.986   4.495  20.421  0.00  0.00    +0.000 A 
ATOM     11  C   UNL     1       1.020   3.177  20.873  0.00  0.00    +0.000 A 
ATOM     12  C   UNL     1       2.218   2.468  20.856  0.00  0.00    +0.000 A 
ATOM     13  C   UNL     1       3.381   3.066  20.369  0.00  0.00    +0.000 A 
ATOM     14  C   UNL     1       3.352   4.391  19.899  0.00  0.00    +0.000 A 
ENDROOT
BRANCH   8  15
ATOM     15  C   UNL     1       1.405   7.480  20.689  0.00  0.00    +0.000 A 
ATOM     16  C   UNL     1       0.008   7.477  20.761  0.00  0.00    +0.000 A 
ATOM     17  C   UNL     1      -0.652   8.353  21.628  0.00  0.00    +0.000 A 
ATOM     18  C   UNL     1       0.076   9.245  22.423  0.00  0.00    +0.000 A 
ATOM     19  C   UNL     1      -0.618  10.233  23.312  0.00  0.00    +0.000 C 
ATOM     20  C   UNL     1       1.475   9.232  22.362  0.00  0.00    +0.000 A 
ATOM     21  C   UNL     1       2.136   8.365  21.492  0.00  0.00    +0.000 A 
ENDBRANCH   8  15
BRANCH   1  22
ATOM     22  C   UNL     1       6.549   6.858  16.993  0.00  0.00    +0.000 C 
ATOM     23  O   UNL     1       7.153   7.910  17.178  0.00  0.00    +0.000 OA
BRANCH  22  24
ATOM     24  O   UNL     1       6.234   6.367  15.757  0.00  0.00    +0.000 OA
BRANCH  24  26
ATOM     25  C   UNL     1       5.776   4.199  14.856  0.00  0.00    +0.000 C 
ATOM     26  C   UNL     1       6.845   5.118  15.422  0.00  0.00    +0.000 C 
ENDBRANCH  24  26
ENDBRANCH  22  24
ENDBRANCH   1  22
TORSDOF 4
ENDMDL
MODEL 5
REMARK VINA RESULT:      -7.0      5.722      9.872
REMARK  Name = 
REMARK  6 active torsions:
REMARK  status: ('A' for Active; 'I' for Inactive)
REMARK    1  A    between atoms: C_1  and  C_2
REMARK    2  A    between atoms: C_2  and  O_3
REMARK    3  A    between atoms: O_3  and  C_4
REMARK    4  A    between atoms: C_4  and  C_6
REMARK    5  A    between atoms: C_13  and  C_14
REMARK    6  A    between atoms: C_17  and  C_18
REMARK                            x       y       z     vdW  Elec       q    Type
REMARK                         _______ _______ _______ _____ _____    ______ ____
ROOT
ATOM      1  C   UNL     1      -3.930  11.932  18.980  0.00  0.00    +0.000 A 
ATOM      2  N   UNL     1      -4.084  12.537  20.217  0.00  0.00    +0.000 NA
ATOM      3  C   UNL     1      -2.876  12.887  20.591  0.00  0.00    +0.000 A 
ATOM      4  N   UNL     1      -1.918  12.522  19.677  0.00  0.00    +0.000 N 
ATOM      5  C   UNL     1      -2.585  11.913  18.634  0.00  0.00    +0.000 A 
ATOM      6  C   UNL     1      -1.879  11.489  17.404  0.00  0.00    +0.000 C 
ATOM      7  N   UNL     1      -0.951  10.427  17.736  0.00  0.00    +0.000 NA
ATOM      8  C   UNL     1       0.065  10.659  18.496  0.00  0.00    +0.000 C 
ATOM      9  C   UNL     1       0.411  11.996  19.082  0.00  0.00    +0.000 A 
ATOM     10  C   UNL     1       1.764  12.378  19.085  0.00  0.00    +0.000 A 
ATOM     11  C   UNL     1       2.182  13.512  19.780  0.00  0.00    +0.000 A 
ATOM     12  C   UNL     1       1.251  14.285  20.470  0.00  0.00    +0.000 A 
ATOM     13  C   UNL     1      -0.101  13.939  20.451  0.00  0.00    +0.000 A 
ATOM     14  C   UNL     1      -0.532  12.805  19.741  0.00  0.00    +0.000 A 
ENDROOT
BRANCH   8  15
ATOM     15  C   UNL     1       0.923   9.481  18.850  0.00  0.00    +0.000 A 
ATOM     16  C   UNL     1       1.652   8.836  17.846  0.00  0.00    +0.000 A 
ATOM     17  C   UNL     1       2.389   7.686  18.141  0.00  0.00    +0.000 A 
ATOM     18  C   UNL     1       2.398   7.164  19.440  0.00  0.00    +0.000 A 
ATOM     19  C   UNL     1       3.132   5.897  19.761  0.00  0.00    +0.000 C 
ATOM     20  C   UNL     1       1.682   7.823  20.447  0.00  0.00    +0.000 A 
ATOM     21  C   UNL     1       0.939   8.966  20.153  0.00  0.00    +0.000 A 
ENDBRANCH   8  15
BRANCH   1  22
ATOM     22  C   UNL     1      -5.067  11.514  18.157  0.00  0.00    +0.000 C 
ATOM     23  O   UNL     1      -5.577  12.210  17.284  0.00  0.00    +0.000 OA
BRANCH  22  24
ATOM     24  O   UNL     1      -5.580  10.318  18.575  0.00  0.00    +0.000 OA
BRANCH  24  26
ATOM     25  C   UNL     1      -7.191   9.021  19.776  0.00  0.00    +0.000 C 
ATOM     26  C   UNL     1      -6.863  10.389  19.202  0.00  0.00    +0.000 C 
ENDBRANCH  24  26
ENDBRANCH  22  24
ENDBRANCH   1  22
TORSDOF 4
ENDMDL
MODEL 6
REMARK VINA RESULT:      -6.9      3.076      6.502
REMARK  Name = 
REMARK  6 active torsions:
REMARK  status: ('A' for Active; 'I' for Inactive)
REMARK    1  A    between atoms: C_1  and  C_2
REMARK    2  A    between atoms: C_2  and  O_3
REMARK    3  A    between atoms: O_3  and  C_4
REMARK    4  A    between atoms: C_4  and  C_6
REMARK    5  A    between atoms: C_13  and  C_14
REMARK    6  A    between atoms: C_17  and  C_18
REMARK                            x       y       z     vdW  Elec       q    Type
REMARK                         _______ _______ _______ _____ _____    ______ ____
ROOT
ATOM      1  C   UNL     1       2.525   3.401  18.677  0.00  0.00    +0.000 A 
ATOM      2  N   UNL     1       1.684   3.634  17.600  0.00  0.00    +0.000 NA
ATOM      3  C   UNL     1       2.474   3.919  16.592  0.00  0.00    +0.000 A 
ATOM      4  N   UNL     1       3.801   3.914  16.947  0.00  0.00    +0.000 N 
ATOM      5  C   UNL     1       3.846   3.576  18.285  0.00  0.00    +0.000 A 
ATOM      6  C   UNL     1       5.130   3.361  18.987  0.00  0.00    +0.000 C 
ATOM      7  N   UNL     1       5.854   4.615  19.042  0.00  0.00    +0.000 NA
ATOM      8  C   UNL     1       6.292   5.166  17.961  0.00  0.00    +0.000 C 
ATOM      9  C   UNL     1       6.137   4.594  16.583  0.00  0.00    +0.000 A 
ATOM     10  C   UNL     1       7.240   4.674  15.714  0.00  0.00    +0.000 A 
ATOM     11  C   UNL     1       7.110   4.340  14.367  0.00  0.00    +0.000 A 
ATOM     12  C   UNL     1       5.882   3.910  13.874  0.00  0.00    +0.000 A 
ATOM     13  C   UNL     1       4.784   3.793  14.728  0.00  0.00    +0.000 A 
ATOM     14  C   UNL     1       4.910   4.115  16.090  0.00  0.00    +0.000 A 
ENDROOT
BRANCH   8  15
ATOM     15  C   UNL     1       6.956   6.503  18.109  0.00  0.00    +0.000 A 
ATOM     16  C   UNL     1       6.516   7.578  17.330  0.00  0.00    +0.000 A 
ATOM     17  C   UNL     1       7.177   8.807  17.392  0.00  0.00    +0.000 A 
ATOM     18  C   UNL     1       8.289   8.972  18.225  0.00  0.00    +0.000 A 
ATOM     19  C   UNL     1       9.048  10.265  18.258  0.00  0.00    +0.000 C 
ATOM     20  C   UNL     1       8.716   7.899  19.017  0.00  0.00    +0.000 A 
ATOM     21  C   UNL     1       8.063   6.668  18.951  0.00  0.00    +0.000 A 
ENDBRANCH   8  15
BRANCH   1  22
ATOM     22  C   UNL     1       2.036   2.921  19.971  0.00  0.00    +0.000 C 
ATOM     23  O   UNL     1       2.112   1.754  20.346  0.00  0.00    +0.000 OA
BRANCH  22  24
ATOM     24  O   UNL     1       1.362   3.897  20.650  0.00  0.00    +0.000 OA
BRANCH  24  26
ATOM     25  C   UNL     1       1.654   6.270  20.588  0.00  0.00    +0.000 C 
ATOM     26  C   UNL     1       2.174   4.960  21.156  0.00  0.00    +0.000 C 
ENDBRANCH  24  26
ENDBRANCH  22  24
ENDBRANCH   1  22
TORSDOF 4
ENDMDL
MODEL 7
REMARK VINA RESULT:      -6.8      1.541      2.130
REMARK  Name = 
REMARK  6 active torsions:
REMARK  status: ('A' for Active; 'I' for Inactive)
REMARK    1  A    between atoms: C_1  and  C_2
REMARK    2  A    between atoms: C_2  and  O_3
REMARK    3  A    between atoms: O_3  and  C_4
REMARK    4  A    between atoms: C_4  and  C_6
REMARK    5  A    between atoms: C_13  and  C_14
REMARK    6  A    between atoms: C_17  and  C_18
REMARK                            x       y       z     vdW  Elec       q    Type
REMARK                         _______ _______ _______ _____ _____    ______ ____
ROOT
ATOM      1  C   UNL     1       5.836   5.945  17.949  0.00  0.00    +0.000 A 
ATOM      2  N   UNL     1       6.623   5.162  18.779  0.00  0.00    +0.000 NA
ATOM      3  C   UNL     1       5.785   4.527  19.563  0.00  0.00    +0.000 A 
ATOM      4  N   UNL     1       4.477   4.865  19.316  0.00  0.00    +0.000 N 
ATOM      5  C   UNL     1       4.497   5.772  18.276  0.00  0.00    +0.000 A 
ATOM      6  C   UNL     1       3.249   6.275  17.660  0.00  0.00    +0.000 C 
ATOM      7  N   UNL     1       2.524   7.061  18.637  0.00  0.00    +0.000 NA
ATOM      8  C   UNL     1       2.033   6.504  19.692  0.00  0.00    +0.000 C 
ATOM      9  C   UNL     1       2.123   5.041  20.011  0.00  0.00    +0.000 A 
ATOM     10  C   UNL     1       0.979   4.415  20.537  0.00  0.00    +0.000 A 
ATOM     11  C   UNL     1       1.045   3.114  21.033  0.00  0.00    +0.000 A 
ATOM     12  C   UNL     1       2.250   2.418  20.998  0.00  0.00    +0.000 A 
ATOM     13  C   UNL     1       3.388   3.011  20.449  0.00  0.00    +0.000 A 
ATOM     14  C   UNL     1       3.327   4.318  19.934  0.00  0.00    +0.000 A 
ENDROOT
BRANCH   8  15
ATOM     15  C   UNL     1       1.371   7.412  20.686  0.00  0.00    +0.000 A 
ATOM     16  C   UNL     1      -0.025   7.464  20.745  0.00  0.00    +0.000 A 
ATOM     17  C   UNL     1      -0.659   8.365  21.604  0.00  0.00    +0.000 A 
ATOM     18  C   UNL     1       0.096   9.229  22.407  0.00  0.00    +0.000 A 
ATOM     19  C   UNL     1      -0.567  10.244  23.288  0.00  0.00    +0.000 C 
ATOM     20  C   UNL     1       1.494   9.161  22.359  0.00  0.00    +0.000 A 
ATOM     21  C   UNL     1       2.129   8.268  21.495  0.00  0.00    +0.000 A 
ENDBRANCH   8  15
BRANCH   1  22
ATOM     22  C   UNL     1       6.388   6.716  16.833  0.00  0.00    +0.000 C 
ATOM     23  O   UNL     1       5.767   6.988  15.810  0.00  0.00    +0.000 OA
BRANCH  22  24
ATOM     24  O   UNL     1       7.720   6.972  17.007  0.00  0.00    +0.000 OA
BRANCH  24  26
ATOM     25  C   UNL     1       8.114   9.212  17.746  0.00  0.00    +0.000 C 
ATOM     26  C   UNL     1       8.045   7.752  18.161  0.00  0.00    +0.000 C 
ENDBRANCH  24  26
ENDBRANCH  22  24
ENDBRANCH   1  22
TORSDOF 4
ENDMDL
MODEL 8
REMARK VINA RESULT:      -6.6      5.867     10.182
REMARK  Name = 
REMARK  6 active torsions:
REMARK  status: ('A' for Active; 'I' for Inactive)
REMARK    1  A    between atoms: C_1  and  C_2
REMARK    2  A    between atoms: C_2  and  O_3
REMARK    3  A    between atoms: O_3  and  C_4
REMARK    4  A    between atoms: C_4  and  C_6
REMARK    5  A    between atoms: C_13  and  C_14
REMARK    6  A    between atoms: C_17  and  C_18
REMARK                            x       y       z     vdW  Elec       q    Type
REMARK                         _______ _______ _______ _____ _____    ______ ____
ROOT
ATOM      1  C   UNL     1      -3.884  12.074  19.249  0.00  0.00    +0.000 A 
ATOM      2  N   UNL     1      -3.905  12.773  20.446  0.00  0.00    +0.000 NA
ATOM      3  C   UNL     1      -2.661  13.122  20.671  0.00  0.00    +0.000 A 
ATOM      4  N   UNL     1      -1.804  12.670  19.697  0.00  0.00    +0.000 N 
ATOM      5  C   UNL     1      -2.581  12.000  18.774  0.00  0.00    +0.000 A 
ATOM      6  C   UNL     1      -2.008  11.470  17.517  0.00  0.00    +0.000 C 
ATOM      7  N   UNL     1      -1.067  10.416  17.835  0.00  0.00    +0.000 NA
ATOM      8  C   UNL     1       0.023  10.681  18.471  0.00  0.00    +0.000 C 
ATOM      9  C   UNL     1       0.445  12.050  18.917  0.00  0.00    +0.000 A 
ATOM     10  C   UNL     1       1.797  12.401  18.757  0.00  0.00    +0.000 A 
ATOM     11  C   UNL     1       2.299  13.574  19.319  0.00  0.00    +0.000 A 
ATOM     12  C   UNL     1       1.454  14.416  20.036  0.00  0.00    +0.000 A 
ATOM     13  C   UNL     1       0.101  14.100  20.178  0.00  0.00    +0.000 A 
ATOM     14  C   UNL     1      -0.415  12.926  19.602  0.00  0.00    +0.000 A 
ENDROOT
BRANCH   8  15
ATOM     15  C   UNL     1       0.895   9.513  18.827  0.00  0.00    +0.000 A 
ATOM     16  C   UNL     1       1.604   8.853  17.818  0.00  0.00    +0.000 A 
ATOM     17  C   UNL     1       2.353   7.712  18.118  0.00  0.00    +0.000 A 
ATOM     18  C   UNL     1       2.394   7.215  19.426  0.00  0.00    +0.000 A 
ATOM     19  C   UNL     1       3.142   5.957  19.753  0.00  0.00    +0.000 C 
ATOM     20  C   UNL     1       1.698   7.889  20.437  0.00  0.00    +0.000 A 
ATOM     21  C   UNL     1       0.943   9.024  20.138  0.00  0.00    +0.000 A 
ENDBRANCH   8  15
BRANCH   1  22
ATOM     22  C   UNL     1      -5.105  11.623  18.577  0.00  0.00    +0.000 C 
ATOM     23  O   UNL     1      -5.281  10.480  18.165  0.00  0.00    +0.000 OA
BRANCH  22  24
ATOM     24  O   UNL     1      -5.963  12.660  18.340  0.00  0.00    +0.000 OA
BRANCH  24  26
ATOM     25  C   UNL     1      -7.872  13.889  19.093  0.00  0.00    +0.000 C 
ATOM     26  C   UNL     1      -7.273  12.506  18.895  0.00  0.00    +0.000 C 
ENDBRANCH  24  26
ENDBRANCH  22  24
ENDBRANCH   1  22
TORSDOF 4
ENDMDL
MODEL 9
REMARK VINA RESULT:      -6.6      5.884     10.213
REMARK  Name = 
REMARK  6 active torsions:
REMARK  status: ('A' for Active; 'I' for Inactive)
REMARK    1  A    between atoms: C_1  and  C_2
REMARK    2  A    between atoms: C_2  and  O_3
REMARK    3  A    between atoms: O_3  and  C_4
REMARK    4  A    between atoms: C_4  and  C_6
REMARK    5  A    between atoms: C_13  and  C_14
REMARK    6  A    between atoms: C_17  and  C_18
REMARK                            x       y       z     vdW  Elec       q    Type
REMARK                         _______ _______ _______ _____ _____    ______ ____
ROOT
ATOM      1  C   UNL     1      -3.800  12.514  20.635  0.00  0.00    +0.000 A 
ATOM      2  N   UNL     1      -3.644  12.923  21.950  0.00  0.00    +0.000 NA
ATOM      3  C   UNL     1      -2.358  13.129  22.105  0.00  0.00    +0.000 A 
ATOM      4  N   UNL     1      -1.642  12.853  20.966  0.00  0.00    +0.000 N 
ATOM      5  C   UNL     1      -2.559  12.463  20.013  0.00  0.00    +0.000 A 
ATOM      6  C   UNL     1      -2.157  12.195  18.614  0.00  0.00    +0.000 C 
ATOM      7  N   UNL     1      -1.289  11.035  18.586  0.00  0.00    +0.000 NA
ATOM      8  C   UNL     1      -0.124  11.076  19.139  0.00  0.00    +0.000 C 
ATOM      9  C   UNL     1       0.459  12.277  19.823  0.00  0.00    +0.000 A 
ATOM     10  C   UNL     1       1.817  12.564  19.594  0.00  0.00    +0.000 A 
ATOM     11  C   UNL     1       2.472  13.543  20.338  0.00  0.00    +0.000 A 
ATOM     12  C   UNL     1       1.778  14.256  21.313  0.00  0.00    +0.000 A 
ATOM     13  C   UNL     1       0.422  14.007  21.532  0.00  0.00    +0.000 A 
ATOM     14  C   UNL     1      -0.250  13.031  20.775  0.00  0.00    +0.000 A 
ENDROOT
BRANCH   8  15
ATOM     15  C   UNL     1       0.669   9.803  19.132  0.00  0.00    +0.000 A 
ATOM     16  C   UNL     1       0.866   9.111  20.332  0.00  0.00    +0.000 A 
ATOM     17  C   UNL     1       1.672   7.970  20.360  0.00  0.00    +0.000 A 
ATOM     18  C   UNL     1       2.296   7.514  19.192  0.00  0.00    +0.000 A 
ATOM     19  C   UNL     1       3.213   6.328  19.217  0.00  0.00    +0.000 C 
ATOM     20  C   UNL     1       2.081   8.199  17.990  0.00  0.00    +0.000 A 
ATOM     21  C   UNL     1       1.283   9.343  17.961  0.00  0.00    +0.000 A 
ENDBRANCH   8  15
BRANCH   1  22
ATOM     22  C   UNL     1      -5.114  12.309  20.021  0.00  0.00    +0.000 C 
ATOM     23  O   UNL     1      -5.431  12.735  18.916  0.00  0.00    +0.000 OA
BRANCH  22  24
ATOM     24  O   UNL     1      -5.985  11.707  20.886  0.00  0.00    +0.000 OA
BRANCH  24  26
ATOM     25  C   UNL     1      -7.436   9.896  20.305  0.00  0.00    +0.000 C 
ATOM     26  C   UNL     1      -7.274  11.407  20.343  0.00  0.00    +0.000 C 
ENDBRANCH  24  26
ENDBRANCH  22  24
ENDBRANCH   1  22
TORSDOF 4
ENDMDL
