MODEL 1
REMARK VINA RESULT:      -8.1      0.000      0.000
REMARK  Name = 
REMARK  8 active torsions:
REMARK  status: ('A' for Active; 'I' for Inactive)
REMARK    1  A    between atoms: C_1  and  O_2
REMARK    2  A    between atoms: O_2  and  C_3
REMARK    3  A    between atoms: C_6  and  C_7
REMARK    4  A    between atoms: C_7  and  C_9
REMARK    5  A    between atoms: C_9  and  N_10
REMARK    6  A    between atoms: C_12  and  C_13
REMARK    7  A    between atoms: C_24  and  O_25
REMARK    8  A    between atoms: O_25  and  C_26
REMARK                            x       y       z     vdW  Elec       q    Type
REMARK                         _______ _______ _______ _____ _____    ______ ____
ROOT
ATOM      1  N   UNL     1       3.592   4.072  19.693  0.00  0.00    +0.000 N 
ATOM      2  N   UNL     1       3.307   5.370  19.311  0.00  0.00    +0.000 NA
ATOM      3  C   UNL     1       2.244   5.927  19.804  0.00  0.00    +0.000 A 
ATOM      4  C   UNL     1       1.292   5.248  20.711  0.00  0.00    +0.000 A 
ATOM      5  C   UNL     1       1.615   4.016  21.106  0.00  0.00    +0.000 A 
ATOM      6  C   UNL     1       2.850   3.365  20.629  0.00  0.00    +0.000 A 
ATOM      7  O   UNL     1       3.157   2.269  21.094  0.00  0.00    +0.000 OA
ENDROOT
BRANCH   3   8
ATOM      8  C   UNL     1       1.945   7.348  19.474  0.00  0.00    +0.000 A 
ATOM      9  C   UNL     1       2.324   7.859  18.226  0.00  0.00    +0.000 A 
ATOM     10  C   UNL     1       2.101   9.206  17.923  0.00  0.00    +0.000 A 
ATOM     11  C   UNL     1       1.510  10.042  18.871  0.00  0.00    +0.000 A 
ATOM     12 CL   UNL     1       1.257  11.704  18.511  0.00  0.00    +0.000 Cl
ATOM     13  C   UNL     1       1.135   9.543  20.117  0.00  0.00    +0.000 A 
ATOM     14  C   UNL     1       1.355   8.197  20.421  0.00  0.00    +0.000 A 
ENDBRANCH   3   8
BRANCH   1  15
ATOM     15  C   UNL     1       4.878   3.539  19.263  0.00  0.00    +0.000 C 
BRANCH  15  16
ATOM     16  C   UNL     1       5.915   4.575  18.808  0.00  0.00    +0.000 C 
ATOM     17  O   UNL     1       6.528   5.287  19.598  0.00  0.00    +0.000 OA
BRANCH  16  21
ATOM     18  C   UNL     1       6.698   4.666  14.549  0.00  0.00    +0.000 A 
ATOM     19  C   UNL     1       5.778   3.773  15.088  0.00  0.00    +0.000 A 
ATOM     20  C   UNL     1       5.552   3.735  16.466  0.00  0.00    +0.000 A 
ATOM     21  C   UNL     1       6.230   4.612  17.332  0.00  0.00    +0.000 A 
ATOM     22  C   UNL     1       7.184   5.499  16.795  0.00  0.00    +0.000 A 
ATOM     23  C   UNL     1       7.407   5.511  15.403  0.00  0.00    +0.000 A 
BRANCH  18  25
ATOM     24  C   UNL     1       6.321   3.456  12.534  0.00  0.00    +0.000 C 
ATOM     25  O   UNL     1       6.813   4.621  13.186  0.00  0.00    +0.000 OA
ENDBRANCH  18  25
BRANCH  22  26
ATOM     26  O   UNL     1       7.833   6.342  17.657  0.00  0.00    +0.000 OA
ATOM     27  C   UNL     1       7.640   7.742  17.503  0.00  0.00    +0.000 C 
ENDBRANCH  22  26
ENDBRANCH  16  21
ENDBRANCH  15  16
ENDBRANCH   1  15
TORSDOF 6
ENDMDL
MODEL 2
REMARK VINA RESULT:      -7.9      0.650      1.150
REMARK  Name = 
REMARK  8 active torsions:
REMARK  status: ('A' for Active; 'I' for Inactive)
REMARK    1  A    between atoms: C_1  and  O_2
REMARK    2  A    between atoms: O_2  and  C_3
REMARK    3  A    between atoms: C_6  and  C_7
REMARK    4  A    between atoms: C_7  and  C_9
REMARK    5  A    between atoms: C_9  and  N_10
REMARK    6  A    between atoms: C_12  and  C_13
REMARK    7  A    between atoms: C_24  and  O_25
REMARK    8  A    between atoms: O_25  and  C_26
REMARK                            x       y       z     vdW  Elec       q    Type
REMARK                         _______ _______ _______ _____ _____    ______ ____
ROOT
ATOM      1  N   UNL     1       3.379   4.143  19.353  0.00  0.00    +0.000 N 
ATOM      2  N   UNL     1       3.089   5.450  19.008  0.00  0.00    +0.000 NA
ATOM      3  C   UNL     1       2.249   6.101  19.752  0.00  0.00    +0.000 A 
ATOM      4  C   UNL     1       1.546   5.521  20.918  0.00  0.00    +0.000 A 
ATOM      5  C   UNL     1       1.880   4.277  21.262  0.00  0.00    +0.000 A 
ATOM      6  C   UNL     1       2.883   3.519  20.489  0.00  0.00    +0.000 A 
ATOM      7  O   UNL     1       3.231   2.413  20.899  0.00  0.00    +0.000 OA
ENDROOT
BRANCH   3   8
ATOM      8  C   UNL     1       1.969   7.533  19.456  0.00  0.00    +0.000 A 
ATOM      9  C   UNL     1       1.360   8.331  20.433  0.00  0.00    +0.000 A 
ATOM     10  C   UNL     1       1.040   9.663  20.149  0.00  0.00    +0.000 A 
ATOM     11  C   UNL     1       1.318  10.191  18.888  0.00  0.00    +0.000 A 
ATOM     12 CL   UNL     1       0.902  11.821  18.528  0.00  0.00    +0.000 Cl
ATOM     13  C   UNL     1       1.918   9.402  17.909  0.00  0.00    +0.000 A 
ATOM     14  C   UNL     1       2.241   8.071  18.190  0.00  0.00    +0.000 A 
ENDBRANCH   3   8
BRANCH   1  15
ATOM     15  C   UNL     1       4.452   3.500  18.606  0.00  0.00    +0.000 C 
BRANCH  15  16
ATOM     16  C   UNL     1       5.707   4.350  18.370  0.00  0.00    +0.000 C 
ATOM     17  O   UNL     1       6.362   4.831  19.289  0.00  0.00    +0.000 OA
BRANCH  16  21
ATOM     18  C   UNL     1       6.918   4.736  14.229  0.00  0.00    +0.000 A 
ATOM     19  C   UNL     1       5.926   3.835  14.603  0.00  0.00    +0.000 A 
ATOM     20  C   UNL     1       5.562   3.701  15.945  0.00  0.00    +0.000 A 
ATOM     21  C   UNL     1       6.170   4.487  16.940  0.00  0.00    +0.000 A 
ATOM     22  C   UNL     1       7.195   5.381  16.569  0.00  0.00    +0.000 A 
ATOM     23  C   UNL     1       7.557   5.491  15.212  0.00  0.00    +0.000 A 
BRANCH  18  25
ATOM     24  C   UNL     1       8.126   5.744  12.444  0.00  0.00    +0.000 C 
ATOM     25  O   UNL     1       7.168   4.790  12.884  0.00  0.00    +0.000 OA
ENDBRANCH  18  25
BRANCH  22  26
ATOM     26  O   UNL     1       7.774   6.136  17.554  0.00  0.00    +0.000 OA
ATOM     27  C   UNL     1       7.596   7.546  17.517  0.00  0.00    +0.000 C 
ENDBRANCH  22  26
ENDBRANCH  16  21
ENDBRANCH  15  16
ENDBRANCH   1  15
TORSDOF 6
ENDMDL
MODEL 3
REMARK VINA RESULT:      -7.8      1.756      3.327
REMARK  Name = 
REMARK  8 active torsions:
REMARK  status: ('A' for Active; 'I' for Inactive)
REMARK    1  A    between atoms: C_1  and  O_2
REMARK    2  A    between atoms: O_2  and  C_3
REMARK    3  A    between atoms: C_6  and  C_7
REMARK    4  A    between atoms: C_7  and  C_9
REMARK    5  A    between atoms: C_9  and  N_10
REMARK    6  A    between atoms: C_12  and  C_13
REMARK    7  A    between atoms: C_24  and  O_25
REMARK    8  A    between atoms: O_25  and  C_26
REMARK                            x       y       z     vdW  Elec       q    Type
REMARK                         _______ _______ _______ _____ _____    ______ ____
ROOT
ATOM      1  N   UNL     1       4.010   4.435  19.634  0.00  0.00    +0.000 N 
ATOM      2  N   UNL     1       3.624   5.734  19.355  0.00  0.00    +0.000 NA
ATOM      3  C   UNL     1       2.439   6.107  19.725  0.00  0.00    +0.000 A 
ATOM      4  C   UNL     1       1.455   5.221  20.385  0.00  0.00    +0.000 A 
ATOM      5  C   UNL     1       1.866   3.990  20.691  0.00  0.00    +0.000 A 
ATOM      6  C   UNL     1       3.231   3.540  20.354  0.00  0.00    +0.000 A 
ATOM      7  O   UNL     1       3.599   2.433  20.740  0.00  0.00    +0.000 OA
ENDROOT
BRANCH   3   8
ATOM      8  C   UNL     1       2.017   7.518  19.508  0.00  0.00    +0.000 A 
ATOM      9  C   UNL     1       1.340   8.199  20.529  0.00  0.00    +0.000 A 
ATOM     10  C   UNL     1       0.889   9.506  20.319  0.00  0.00    +0.000 A 
ATOM     11  C   UNL     1       1.103  10.126  19.087  0.00  0.00    +0.000 A 
ATOM     12 CL   UNL     1       0.527  11.724  18.819  0.00  0.00    +0.000 Cl
ATOM     13  C   UNL     1       1.771   9.454  18.065  0.00  0.00    +0.000 A 
ATOM     14  C   UNL     1       2.225   8.148  18.273  0.00  0.00    +0.000 A 
ENDBRANCH   3   8
BRANCH   1  15
ATOM     15  C   UNL     1       5.402   4.101  19.365  0.00  0.00    +0.000 C 
BRANCH  15  16
ATOM     16  C   UNL     1       5.953   4.566  18.011  0.00  0.00    +0.000 C 
ATOM     17  O   UNL     1       5.803   3.920  16.979  0.00  0.00    +0.000 OA
BRANCH  16  21
ATOM     18  C   UNL     1       7.950   8.409  17.922  0.00  0.00    +0.000 A 
ATOM     19  C   UNL     1       8.430   7.372  18.715  0.00  0.00    +0.000 A 
ATOM     20  C   UNL     1       7.763   6.145  18.755  0.00  0.00    +0.000 A 
ATOM     21  C   UNL     1       6.610   5.925  17.980  0.00  0.00    +0.000 A 
ATOM     22  C   UNL     1       6.104   6.982  17.196  0.00  0.00    +0.000 A 
ATOM     23  C   UNL     1       6.784   8.216  17.181  0.00  0.00    +0.000 A 
BRANCH  18  25
ATOM     24  C   UNL     1       9.178   9.980  19.223  0.00  0.00    +0.000 C 
ATOM     25  O   UNL     1       8.703   9.552  17.952  0.00  0.00    +0.000 OA
ENDBRANCH  18  25
BRANCH  22  26
ATOM     26  O   UNL     1       4.980   6.746  16.451  0.00  0.00    +0.000 OA
ATOM     27  C   UNL     1       5.130   6.536  15.053  0.00  0.00    +0.000 C 
ENDBRANCH  22  26
ENDBRANCH  16  21
ENDBRANCH  15  16
ENDBRANCH   1  15
TORSDOF 6
ENDMDL
MODEL 4
REMARK VINA RESULT:      -7.7      1.432      2.955
REMARK  Name = 
REMARK  8 active torsions:
REMARK  status: ('A' for Active; 'I' for Inactive)
REMARK    1  A    between atoms: C_1  and  O_2
REMARK    2  A    between atoms: O_2  and  C_3
REMARK    3  A    between atoms: C_6  and  C_7
REMARK    4  A    between atoms: C_7  and  C_9
REMARK    5  A    between atoms: C_9  and  N_10
REMARK    6  A    between atoms: C_12  and  C_13
REMARK    7  A    between atoms: C_24  and  O_25
REMARK    8  A    between atoms: O_25  and  C_26
REMARK                            x       y       z     vdW  Elec       q    Type
REMARK                         _______ _______ _______ _____ _____    ______ ____
ROOT
ATOM      1  N   UNL     1       2.275   4.358  18.570  0.00  0.00    +0.000 N 
ATOM      2  N   UNL     1       2.104   5.715  18.368  0.00  0.00    +0.000 NA
ATOM      3  C   UNL     1       1.884   6.459  19.407  0.00  0.00    +0.000 A 
ATOM      4  C   UNL     1       1.759   5.945  20.788  0.00  0.00    +0.000 A 
ATOM      5  C   UNL     1       1.980   4.642  20.966  0.00  0.00    +0.000 A 
ATOM      6  C   UNL     1       2.303   3.764  19.825  0.00  0.00    +0.000 A 
ATOM      7  O   UNL     1       2.594   2.591  20.046  0.00  0.00    +0.000 OA
ENDROOT
BRANCH   3   8
ATOM      8  C   UNL     1       1.769   7.934  19.236  0.00  0.00    +0.000 A 
ATOM      9  C   UNL     1       1.184   8.700  20.253  0.00  0.00    +0.000 A 
ATOM     10  C   UNL     1       1.018  10.079  20.083  0.00  0.00    +0.000 A 
ATOM     11  C   UNL     1       1.424  10.687  18.895  0.00  0.00    +0.000 A 
ATOM     12 CL   UNL     1       1.198  12.377  18.675  0.00  0.00    +0.000 Cl
ATOM     13  C   UNL     1       2.002   9.930  17.877  0.00  0.00    +0.000 A 
ATOM     14  C   UNL     1       2.171   8.553  18.045  0.00  0.00    +0.000 A 
ENDBRANCH   3   8
BRANCH   1  15
ATOM     15  C   UNL     1       2.693   3.578  17.412  0.00  0.00    +0.000 C 
BRANCH  15  16
ATOM     16  C   UNL     1       4.175   3.186  17.367  0.00  0.00    +0.000 C 
ATOM     17  O   UNL     1       4.553   2.020  17.418  0.00  0.00    +0.000 OA
BRANCH  16  21
ATOM     18  C   UNL     1       7.069   6.368  16.851  0.00  0.00    +0.000 A 
ATOM     19  C   UNL     1       6.542   6.076  18.105  0.00  0.00    +0.000 A 
ATOM     20  C   UNL     1       5.591   5.065  18.255  0.00  0.00    +0.000 A 
ATOM     21  C   UNL     1       5.164   4.307  17.150  0.00  0.00    +0.000 A 
ATOM     22  C   UNL     1       5.673   4.616  15.873  0.00  0.00    +0.000 A 
ATOM     23  C   UNL     1       6.621   5.650  15.742  0.00  0.00    +0.000 A 
BRANCH  18  25
ATOM     24  C   UNL     1       7.879   8.385  17.819  0.00  0.00    +0.000 C 
ATOM     25  O   UNL     1       8.008   7.364  16.838  0.00  0.00    +0.000 OA
ENDBRANCH  18  25
BRANCH  22  26
ATOM     26  O   UNL     1       5.242   3.866  14.811  0.00  0.00    +0.000 OA
ATOM     27  C   UNL     1       6.014   3.881  13.618  0.00  0.00    +0.000 C 
ENDBRANCH  22  26
ENDBRANCH  16  21
ENDBRANCH  15  16
ENDBRANCH   1  15
TORSDOF 6
ENDMDL
MODEL 5
REMARK VINA RESULT:      -7.7      1.494      2.931
REMARK  Name = 
REMARK  8 active torsions:
REMARK  status: ('A' for Active; 'I' for Inactive)
REMARK    1  A    between atoms: C_1  and  O_2
REMARK    2  A    between atoms: O_2  and  C_3
REMARK    3  A    between atoms: C_6  and  C_7
REMARK    4  A    between atoms: C_7  and  C_9
REMARK    5  A    between atoms: C_9  and  N_10
REMARK    6  A    between atoms: C_12  and  C_13
REMARK    7  A    between atoms: C_24  and  O_25
REMARK    8  A    between atoms: O_25  and  C_26
REMARK                            x       y       z     vdW  Elec       q    Type
REMARK                         _______ _______ _______ _____ _____    ______ ____
ROOT
ATOM      1  N   UNL     1       2.378   4.529  18.500  0.00  0.00    +0.000 N 
ATOM      2  N   UNL     1       2.150   5.875  18.282  0.00  0.00    +0.000 NA
ATOM      3  C   UNL     1       1.901   6.622  19.313  0.00  0.00    +0.000 A 
ATOM      4  C   UNL     1       1.800   6.119  20.700  0.00  0.00    +0.000 A 
ATOM      5  C   UNL     1       2.076   4.829  20.893  0.00  0.00    +0.000 A 
ATOM      6  C   UNL     1       2.433   3.952  19.761  0.00  0.00    +0.000 A 
ATOM      7  O   UNL     1       2.774   2.795  19.996  0.00  0.00    +0.000 OA
ENDROOT
BRANCH   3   8
ATOM      8  C   UNL     1       1.723   8.088  19.125  0.00  0.00    +0.000 A 
ATOM      9  C   UNL     1       2.228   8.700  17.970  0.00  0.00    +0.000 A 
ATOM     10  C   UNL     1       2.118  10.085  17.807  0.00  0.00    +0.000 A 
ATOM     11  C   UNL     1       1.516  10.857  18.801  0.00  0.00    +0.000 A 
ATOM     12 CL   UNL     1       1.402  12.562  18.613  0.00  0.00    +0.000 Cl
ATOM     13  C   UNL     1       1.016  10.256  19.955  0.00  0.00    +0.000 A 
ATOM     14  C   UNL     1       1.123   8.873  20.120  0.00  0.00    +0.000 A 
ENDBRANCH   3   8
BRANCH   1  15
ATOM     15  C   UNL     1       2.825   3.753  17.350  0.00  0.00    +0.000 C 
BRANCH  15  16
ATOM     16  C   UNL     1       4.304   3.343  17.352  0.00  0.00    +0.000 C 
ATOM     17  O   UNL     1       4.672   2.198  17.111  0.00  0.00    +0.000 OA
BRANCH  16  21
ATOM     18  C   UNL     1       7.254   6.437  18.049  0.00  0.00    +0.000 A 
ATOM     19  C   UNL     1       6.770   5.662  19.097  0.00  0.00    +0.000 A 
ATOM     20  C   UNL     1       5.799   4.684  18.864  0.00  0.00    +0.000 A 
ATOM     21  C   UNL     1       5.311   4.448  17.567  0.00  0.00    +0.000 A 
ATOM     22  C   UNL     1       5.777   5.249  16.506  0.00  0.00    +0.000 A 
ATOM     23  C   UNL     1       6.746   6.239  16.765  0.00  0.00    +0.000 A 
BRANCH  18  25
ATOM     24  C   UNL     1       8.122   8.642  17.826  0.00  0.00    +0.000 C 
ATOM     25  O   UNL     1       8.217   7.345  18.401  0.00  0.00    +0.000 OA
ENDBRANCH  18  25
BRANCH  22  26
ATOM     26  O   UNL     1       5.287   5.002  15.252  0.00  0.00    +0.000 OA
ATOM     27  C   UNL     1       6.088   4.248  14.351  0.00  0.00    +0.000 C 
ENDBRANCH  22  26
ENDBRANCH  16  21
ENDBRANCH  15  16
ENDBRANCH   1  15
TORSDOF 6
ENDMDL
MODEL 6
REMARK VINA RESULT:      -7.6      1.181      1.345
REMARK  Name = 
REMARK  8 active torsions:
REMARK  status: ('A' for Active; 'I' for Inactive)
REMARK    1  A    between atoms: C_1  and  O_2
REMARK    2  A    between atoms: O_2  and  C_3
REMARK    3  A    between atoms: C_6  and  C_7
REMARK    4  A    between atoms: C_7  and  C_9
REMARK    5  A    between atoms: C_9  and  N_10
REMARK    6  A    between atoms: C_12  and  C_13
REMARK    7  A    between atoms: C_24  and  O_25
REMARK    8  A    between atoms: O_25  and  C_26
REMARK                            x       y       z     vdW  Elec       q    Type
REMARK                         _______ _______ _______ _____ _____    ______ ____
ROOT
ATOM      1  N   UNL     1       3.456   4.859  19.593  0.00  0.00    +0.000 N 
ATOM      2  N   UNL     1       3.136   6.163  19.264  0.00  0.00    +0.000 NA
ATOM      3  C   UNL     1       2.047   6.664  19.760  0.00  0.00    +0.000 A 
ATOM      4  C   UNL     1       1.101   5.915  20.616  0.00  0.00    +0.000 A 
ATOM      5  C   UNL     1       1.455   4.677  20.962  0.00  0.00    +0.000 A 
ATOM      6  C   UNL     1       2.720   4.087  20.481  0.00  0.00    +0.000 A 
ATOM      7  O   UNL     1       3.053   2.982  20.903  0.00  0.00    +0.000 OA
ENDROOT
BRANCH   3   8
ATOM      8  C   UNL     1       1.709   8.088  19.488  0.00  0.00    +0.000 A 
ATOM      9  C   UNL     1       2.054   8.653  18.253  0.00  0.00    +0.000 A 
ATOM     10  C   UNL     1       1.794  10.005  18.005  0.00  0.00    +0.000 A 
ATOM     11  C   UNL     1       1.200  10.791  18.992  0.00  0.00    +0.000 A 
ATOM     12 CL   UNL     1       0.901  12.459  18.698  0.00  0.00    +0.000 Cl
ATOM     13  C   UNL     1       0.858  10.238  20.225  0.00  0.00    +0.000 A 
ATOM     14  C   UNL     1       1.116   8.887  20.475  0.00  0.00    +0.000 A 
ENDBRANCH   3   8
BRANCH   1  15
ATOM     15  C   UNL     1       4.767   4.386  19.167  0.00  0.00    +0.000 C 
BRANCH  15  16
ATOM     16  C   UNL     1       4.784   3.502  17.913  0.00  0.00    +0.000 C 
ATOM     17  O   UNL     1       4.109   2.482  17.814  0.00  0.00    +0.000 OA
BRANCH  16  21
ATOM     18  C   UNL     1       7.028   4.990  14.520  0.00  0.00    +0.000 A 
ATOM     19  C   UNL     1       5.733   4.504  14.364  0.00  0.00    +0.000 A 
ATOM     20  C   UNL     1       5.029   4.003  15.462  0.00  0.00    +0.000 A 
ATOM     21  C   UNL     1       5.602   4.001  16.746  0.00  0.00    +0.000 A 
ATOM     22  C   UNL     1       6.923   4.466  16.904  0.00  0.00    +0.000 A 
ATOM     23  C   UNL     1       7.621   4.954  15.782  0.00  0.00    +0.000 A 
BRANCH  18  25
ATOM     24  C   UNL     1       7.444   4.694  12.195  0.00  0.00    +0.000 C 
ATOM     25  O   UNL     1       7.603   5.473  13.375  0.00  0.00    +0.000 OA
ENDBRANCH  18  25
BRANCH  22  26
ATOM     26  O   UNL     1       7.461   4.453  18.164  0.00  0.00    +0.000 OA
ATOM     27  C   UNL     1       7.835   5.693  18.749  0.00  0.00    +0.000 C 
ENDBRANCH  22  26
ENDBRANCH  16  21
ENDBRANCH  15  16
ENDBRANCH   1  15
TORSDOF 6
ENDMDL
MODEL 7
REMARK VINA RESULT:      -7.5      1.761      2.960
REMARK  Name = 
REMARK  8 active torsions:
REMARK  status: ('A' for Active; 'I' for Inactive)
REMARK    1  A    between atoms: C_1  and  O_2
REMARK    2  A    between atoms: O_2  and  C_3
REMARK    3  A    between atoms: C_6  and  C_7
REMARK    4  A    between atoms: C_7  and  C_9
REMARK    5  A    between atoms: C_9  and  N_10
REMARK    6  A    between atoms: C_12  and  C_13
REMARK    7  A    between atoms: C_24  and  O_25
REMARK    8  A    between atoms: O_25  and  C_26
REMARK                            x       y       z     vdW  Elec       q    Type
REMARK                         _______ _______ _______ _____ _____    ______ ____
ROOT
ATOM      1  N   UNL     1       3.565   3.990  19.640  0.00  0.00    +0.000 N 
ATOM      2  N   UNL     1       3.267   5.281  19.244  0.00  0.00    +0.000 NA
ATOM      3  C   UNL     1       2.248   5.864  19.795  0.00  0.00    +0.000 A 
ATOM      4  C   UNL     1       1.357   5.222  20.785  0.00  0.00    +0.000 A 
ATOM      5  C   UNL     1       1.693   3.998  21.191  0.00  0.00    +0.000 A 
ATOM      6  C   UNL     1       2.884   3.318  20.646  0.00  0.00    +0.000 A 
ATOM      7  O   UNL     1       3.212   2.231  21.119  0.00  0.00    +0.000 OA
ENDROOT
BRANCH   3   8
ATOM      8  C   UNL     1       1.942   7.279  19.447  0.00  0.00    +0.000 A 
ATOM      9  C   UNL     1       2.368   7.792  18.215  0.00  0.00    +0.000 A 
ATOM     10  C   UNL     1       2.136   9.135  17.899  0.00  0.00    +0.000 A 
ATOM     11  C   UNL     1       1.492   9.965  18.817  0.00  0.00    +0.000 A 
ATOM     12 CL   UNL     1       1.230  11.622  18.440  0.00  0.00    +0.000 Cl
ATOM     13  C   UNL     1       1.071   9.463  20.047  0.00  0.00    +0.000 A 
ATOM     14  C   UNL     1       1.299   8.122  20.365  0.00  0.00    +0.000 A 
ENDBRANCH   3   8
BRANCH   1  15
ATOM     15  C   UNL     1       4.812   3.429  19.136  0.00  0.00    +0.000 C 
BRANCH  15  16
ATOM     16  C   UNL     1       5.353   4.053  17.844  0.00  0.00    +0.000 C 
ATOM     17  O   UNL     1       5.047   3.639  16.730  0.00  0.00    +0.000 OA
BRANCH  16  21
ATOM     18  C   UNL     1       7.918   7.515  18.291  0.00  0.00    +0.000 A 
ATOM     19  C   UNL     1       8.130   6.365  19.045  0.00  0.00    +0.000 A 
ATOM     20  C   UNL     1       7.281   5.264  18.910  0.00  0.00    +0.000 A 
ATOM     21  C   UNL     1       6.212   5.286  17.997  0.00  0.00    +0.000 A 
ATOM     22  C   UNL     1       5.976   6.458  17.251  0.00  0.00    +0.000 A 
ATOM     23  C   UNL     1       6.836   7.562  17.413  0.00  0.00    +0.000 A 
BRANCH  18  25
ATOM     24  C   UNL     1       8.445   9.830  18.114  0.00  0.00    +0.000 C 
ATOM     25  O   UNL     1       8.830   8.515  18.498  0.00  0.00    +0.000 OA
ENDBRANCH  18  25
BRANCH  22  26
ATOM     26  O   UNL     1       4.929   6.457  16.368  0.00  0.00    +0.000 OA
ATOM     27  C   UNL     1       5.186   6.811  15.016  0.00  0.00    +0.000 C 
ENDBRANCH  22  26
ENDBRANCH  16  21
ENDBRANCH  15  16
ENDBRANCH   1  15
TORSDOF 6
ENDMDL
MODEL 8
REMARK VINA RESULT:      -7.5      6.245     10.042
REMARK  Name = 
REMARK  8 active torsions:
REMARK  status: ('A' for Active; 'I' for Inactive)
REMARK    1  A    between atoms: C_1  and  O_2
REMARK    2  A    between atoms: O_2  and  C_3
REMARK    3  A    between atoms: C_6  and  C_7
REMARK    4  A    between atoms: C_7  and  C_9
REMARK    5  A    between atoms: C_9  and  N_10
REMARK    6  A    between atoms: C_12  and  C_13
REMARK    7  A    between atoms: C_24  and  O_25
REMARK    8  A    between atoms: O_25  and  C_26
REMARK                            x       y       z     vdW  Elec       q    Type
REMARK                         _______ _______ _______ _____ _____    ______ ____
ROOT
ATOM      1  N   UNL     1      -0.362  11.546  21.261  0.00  0.00    +0.000 N 
ATOM      2  N   UNL     1       0.385  10.723  20.438  0.00  0.00    +0.000 NA
ATOM      3  C   UNL     1       0.652   9.526  20.860  0.00  0.00    +0.000 A 
ATOM      4  C   UNL     1       0.251   9.000  22.182  0.00  0.00    +0.000 A 
ATOM      5  C   UNL     1      -0.512   9.791  22.937  0.00  0.00    +0.000 A 
ATOM      6  C   UNL     1      -0.902  11.136  22.472  0.00  0.00    +0.000 A 
ATOM      7  O   UNL     1      -1.685  11.793  23.156  0.00  0.00    +0.000 OA
ENDROOT
BRANCH   3   8
ATOM      8  C   UNL     1       1.390   8.587  19.969  0.00  0.00    +0.000 A 
ATOM      9  C   UNL     1       1.802   7.345  20.470  0.00  0.00    +0.000 A 
ATOM     10  C   UNL     1       2.544   6.476  19.663  0.00  0.00    +0.000 A 
ATOM     11  C   UNL     1       2.883   6.854  18.364  0.00  0.00    +0.000 A 
ATOM     12 CL   UNL     1       3.816   5.798  17.379  0.00  0.00    +0.000 Cl
ATOM     13  C   UNL     1       2.481   8.090  17.860  0.00  0.00    +0.000 A 
ATOM     14  C   UNL     1       1.738   8.959  18.663  0.00  0.00    +0.000 A 
ENDBRANCH   3   8
BRANCH   1  15
ATOM     15  C   UNL     1      -0.792  12.815  20.690  0.00  0.00    +0.000 C 
BRANCH  15  16
ATOM     16  C   UNL     1      -1.396  12.745  19.281  0.00  0.00    +0.000 C 
ATOM     17  O   UNL     1      -0.743  12.982  18.270  0.00  0.00    +0.000 OA
BRANCH  16  21
ATOM     18  C   UNL     1      -5.531  11.481  19.022  0.00  0.00    +0.000 A 
ATOM     19  C   UNL     1      -5.108  12.342  20.030  0.00  0.00    +0.000 A 
ATOM     20  C   UNL     1      -3.766  12.722  20.118  0.00  0.00    +0.000 A 
ATOM     21  C   UNL     1      -2.824  12.264  19.181  0.00  0.00    +0.000 A 
ATOM     22  C   UNL     1      -3.241  11.370  18.175  0.00  0.00    +0.000 A 
ATOM     23  C   UNL     1      -4.596  10.987  18.112  0.00  0.00    +0.000 A 
BRANCH  18  25
ATOM     24  C   UNL     1      -7.474  10.964  20.295  0.00  0.00    +0.000 C 
ATOM     25  O   UNL     1      -6.871  11.201  19.029  0.00  0.00    +0.000 OA
ENDBRANCH  18  25
BRANCH  22  26
ATOM     26  O   UNL     1      -2.306  10.936  17.274  0.00  0.00    +0.000 OA
ATOM     27  C   UNL     1      -2.685  10.826  15.908  0.00  0.00    +0.000 C 
ENDBRANCH  22  26
ENDBRANCH  16  21
ENDBRANCH  15  16
ENDBRANCH   1  15
TORSDOF 6
ENDMDL
MODEL 9
REMARK VINA RESULT:      -7.5      1.754      3.111
REMARK  Name = 
REMARK  8 active torsions:
REMARK  status: ('A' for Active; 'I' for Inactive)
REMARK    1  A    between atoms: C_1  and  O_2
REMARK    2  A    between atoms: O_2  and  C_3
REMARK    3  A    between atoms: C_6  and  C_7
REMARK    4  A    between atoms: C_7  and  C_9
REMARK    5  A    between atoms: C_9  and  N_10
REMARK    6  A    between atoms: C_12  and  C_13
REMARK    7  A    between atoms: C_24  and  O_25
REMARK    8  A    between atoms: O_25  and  C_26
REMARK                            x       y       z     vdW  Elec       q    Type
REMARK                         _______ _______ _______ _____ _____    ______ ____
ROOT
ATOM      1  N   UNL     1       3.941   4.351  19.465  0.00  0.00    +0.000 N 
ATOM      2  N   UNL     1       3.530   5.639  19.174  0.00  0.00    +0.000 NA
ATOM      3  C   UNL     1       2.395   6.037  19.658  0.00  0.00    +0.000 A 
ATOM      4  C   UNL     1       1.490   5.188  20.463  0.00  0.00    +0.000 A 
ATOM      5  C   UNL     1       1.929   3.968  20.775  0.00  0.00    +0.000 A 
ATOM      6  C   UNL     1       3.246   3.494  20.306  0.00  0.00    +0.000 A 
ATOM      7  O   UNL     1       3.652   2.401  20.698  0.00  0.00    +0.000 OA
ENDROOT
BRANCH   3   8
ATOM      8  C   UNL     1       1.955   7.441  19.428  0.00  0.00    +0.000 A 
ATOM      9  C   UNL     1       2.143   8.022  18.167  0.00  0.00    +0.000 A 
ATOM     10  C   UNL     1       1.786   9.357  17.952  0.00  0.00    +0.000 A 
ATOM     11  C   UNL     1       1.256  10.112  18.998  0.00  0.00    +0.000 A 
ATOM     12 CL   UNL     1       0.840  11.761  18.742  0.00  0.00    +0.000 Cl
ATOM     13  C   UNL     1       1.072   9.543  20.257  0.00  0.00    +0.000 A 
ATOM     14  C   UNL     1       1.425   8.209  20.474  0.00  0.00    +0.000 A 
ENDBRANCH   3   8
BRANCH   1  15
ATOM     15  C   UNL     1       5.293   3.994  19.055  0.00  0.00    +0.000 C 
BRANCH  15  16
ATOM     16  C   UNL     1       5.765   4.582  17.719  0.00  0.00    +0.000 C 
ATOM     17  O   UNL     1       5.493   4.069  16.638  0.00  0.00    +0.000 OA
BRANCH  16  21
ATOM     18  C   UNL     1       7.777   8.414  17.908  0.00  0.00    +0.000 A 
ATOM     19  C   UNL     1       6.635   8.243  17.132  0.00  0.00    +0.000 A 
ATOM     20  C   UNL     1       6.010   6.996  17.059  0.00  0.00    +0.000 A 
ATOM     21  C   UNL     1       6.505   5.897  17.784  0.00  0.00    +0.000 A 
ATOM     22  C   UNL     1       7.677   6.057  18.549  0.00  0.00    +0.000 A 
ATOM     23  C   UNL     1       8.301   7.320  18.598  0.00  0.00    +0.000 A 
BRANCH  18  25
ATOM     24  C   UNL     1       9.216  10.004  18.941  0.00  0.00    +0.000 C 
ATOM     25  O   UNL     1       8.283   9.685  17.915  0.00  0.00    +0.000 OA
ENDBRANCH  18  25
BRANCH  22  26
ATOM     26  O   UNL     1       8.142   4.974  19.246  0.00  0.00    +0.000 OA
ATOM     27  C   UNL     1       8.544   5.162  20.596  0.00  0.00    +0.000 C 
ENDBRANCH  22  26
ENDBRANCH  16  21
ENDBRANCH  15  16
ENDBRANCH   1  15
TORSDOF 6
ENDMDL
