MODEL 1
REMARK VINA RESULT:      -7.8      0.000      0.000
REMARK  Name = 
REMARK  5 active torsions:
REMARK  status: ('A' for Active; 'I' for Inactive)
REMARK    1  A    between atoms: C_1  and  C_2
REMARK    2  A    between atoms: N_4  and  C_5
REMARK    3  A    between atoms: C_5  and  C_6
REMARK    4  A    between atoms: C_9  and  N_10
REMARK    5  A    between atoms: N_17  and  C_18
REMARK                            x       y       z     vdW  Elec       q    Type
REMARK                         _______ _______ _______ _____ _____    ______ ____
ROOT
ATOM      1  C   UNL     1       2.402   7.714  18.074  0.00  0.00    +0.000 C 
ATOM      2  C   UNL     1       3.499   6.785  17.655  0.00  0.00    +0.000 A 
ATOM      3  N   UNL     1       4.431   7.127  16.809  0.00  0.00    +0.000 NA
ATOM      4  N   UNL     1       5.277   6.037  16.795  0.00  0.00    +0.000 N 
ATOM      5  C   UNL     1       4.826   5.052  17.687  0.00  0.00    +0.000 A 
ATOM      6  O   UNL     1       5.365   3.980  17.922  0.00  0.00    +0.000 OA
ATOM      7  N   UNL     1       3.647   5.556  18.197  0.00  0.00    +0.000 N 
ENDROOT
BRANCH   7   8
ATOM      8  C   UNL     1       2.727   4.848  18.981  0.00  0.00    +0.000 A 
ATOM      9  C   UNL     1       2.708   5.047  20.370  0.00  0.00    +0.000 A 
ATOM     10  C   UNL     1       1.832   4.324  21.181  0.00  0.00    +0.000 A 
ATOM     11  C   UNL     1       0.990   3.376  20.607  0.00  0.00    +0.000 A 
ATOM     12  C   UNL     1       1.005   3.188  19.229  0.00  0.00    +0.000 A 
ATOM     13  F   UNL     1       0.211   2.254  18.688  0.00  0.00    +0.000 F 
ATOM     14  C   UNL     1       1.846   3.934  18.405  0.00  0.00    +0.000 A 
ENDBRANCH   7   8
BRANCH   4  15
ATOM     15  C   UNL     1       6.502   6.006  16.037  0.00  0.00    +0.000 C 
BRANCH  15  16
ATOM     16  C   UNL     1       6.432   5.154  14.790  0.00  0.00    +0.000 A 
ATOM     17  C   UNL     1       7.522   5.088  13.905  0.00  0.00    +0.000 A 
ATOM     18  C   UNL     1       7.506   4.214  12.815  0.00  0.00    +0.000 A 
ATOM     19  C   UNL     1       6.380   3.406  12.595  0.00  0.00    +0.000 A 
ATOM     20  C   UNL     1       5.264   3.502  13.435  0.00  0.00    +0.000 A 
ATOM     21  C   UNL     1       5.291   4.378  14.523  0.00  0.00    +0.000 A 
BRANCH  19  22
ATOM     22  N   UNL     1       6.383   2.435  11.493  0.00  0.00    +0.000 N 
ATOM     23  O   UNL     1       5.290   1.987  11.115  0.00  0.00    +0.000 OA
ATOM     24  O   UNL     1       7.477   2.126  10.999  0.00  0.00    +0.000 OA
ENDBRANCH  19  22
ENDBRANCH  15  16
ENDBRANCH   4  15
TORSDOF 4
ENDMDL
MODEL 2
REMARK VINA RESULT:      -7.5      0.967      1.355
REMARK  Name = 
REMARK  5 active torsions:
REMARK  status: ('A' for Active; 'I' for Inactive)
REMARK    1  A    between atoms: C_1  and  C_2
REMARK    2  A    between atoms: N_4  and  C_5
REMARK    3  A    between atoms: C_5  and  C_6
REMARK    4  A    between atoms: C_9  and  N_10
REMARK    5  A    between atoms: N_17  and  C_18
REMARK                            x       y       z     vdW  Elec       q    Type
REMARK                         _______ _______ _______ _____ _____    ______ ____
ROOT
ATOM      1  C   UNL     1       2.365   7.586  18.258  0.00  0.00    +0.000 C 
ATOM      2  C   UNL     1       3.478   6.705  17.784  0.00  0.00    +0.000 A 
ATOM      3  N   UNL     1       4.375   7.098  16.921  0.00  0.00    +0.000 NA
ATOM      4  N   UNL     1       5.254   6.037  16.854  0.00  0.00    +0.000 N 
ATOM      5  C   UNL     1       4.860   5.016  17.732  0.00  0.00    +0.000 A 
ATOM      6  O   UNL     1       5.441   3.956  17.925  0.00  0.00    +0.000 OA
ATOM      7  N   UNL     1       3.681   5.468  18.289  0.00  0.00    +0.000 N 
ENDROOT
BRANCH   7   8
ATOM      8  C   UNL     1       2.808   4.710  19.080  0.00  0.00    +0.000 A 
ATOM      9  C   UNL     1       1.658   4.154  18.500  0.00  0.00    +0.000 A 
ATOM     10  C   UNL     1       0.748   3.431  19.273  0.00  0.00    +0.000 A 
ATOM     11  C   UNL     1       0.973   3.286  20.639  0.00  0.00    +0.000 A 
ATOM     12  C   UNL     1       2.119   3.831  21.209  0.00  0.00    +0.000 A 
ATOM     13  F   UNL     1       2.313   3.709  22.529  0.00  0.00    +0.000 F 
ATOM     14  C   UNL     1       3.055   4.518  20.439  0.00  0.00    +0.000 A 
ENDBRANCH   7   8
BRANCH   4  15
ATOM     15  C   UNL     1       6.457   6.065  16.062  0.00  0.00    +0.000 C 
BRANCH  15  16
ATOM     16  C   UNL     1       6.395   5.205  14.819  0.00  0.00    +0.000 A 
ATOM     17  C   UNL     1       7.505   5.101  13.964  0.00  0.00    +0.000 A 
ATOM     18  C   UNL     1       7.492   4.220  12.881  0.00  0.00    +0.000 A 
ATOM     19  C   UNL     1       6.350   3.442  12.637  0.00  0.00    +0.000 A 
ATOM     20  C   UNL     1       5.216   3.576  13.447  0.00  0.00    +0.000 A 
ATOM     21  C   UNL     1       5.239   4.459  14.528  0.00  0.00    +0.000 A 
BRANCH  19  22
ATOM     22  N   UNL     1       6.354   2.462  11.543  0.00  0.00    +0.000 N 
ATOM     23  O   UNL     1       5.262   2.008  11.170  0.00  0.00    +0.000 OA
ATOM     24  O   UNL     1       7.448   2.152  11.050  0.00  0.00    +0.000 OA
ENDBRANCH  19  22
ENDBRANCH  15  16
ENDBRANCH   4  15
TORSDOF 4
ENDMDL
MODEL 3
REMARK VINA RESULT:      -7.4      4.907      6.746
REMARK  Name = 
REMARK  5 active torsions:
REMARK  status: ('A' for Active; 'I' for Inactive)
REMARK    1  A    between atoms: C_1  and  C_2
REMARK    2  A    between atoms: N_4  and  C_5
REMARK    3  A    between atoms: C_5  and  C_6
REMARK    4  A    between atoms: C_9  and  N_10
REMARK    5  A    between atoms: N_17  and  C_18
REMARK                            x       y       z     vdW  Elec       q    Type
REMARK                         _______ _______ _______ _____ _____    ______ ____
ROOT
ATOM      1  C   UNL     1       0.560   8.203  21.587  0.00  0.00    +0.000 C 
ATOM      2  C   UNL     1       1.294   8.421  20.300  0.00  0.00    +0.000 A 
ATOM      3  N   UNL     1       2.152   7.563  19.821  0.00  0.00    +0.000 NA
ATOM      4  N   UNL     1       2.499   8.094  18.596  0.00  0.00    +0.000 N 
ATOM      5  C   UNL     1       1.790   9.280  18.356  0.00  0.00    +0.000 A 
ATOM      6  O   UNL     1       1.854   9.977  17.353  0.00  0.00    +0.000 OA
ATOM      7  N   UNL     1       1.048   9.483  19.502  0.00  0.00    +0.000 N 
ENDROOT
BRANCH   7   8
ATOM      8  C   UNL     1       0.329  10.643  19.815  0.00  0.00    +0.000 A 
ATOM      9  C   UNL     1       0.932  11.638  20.601  0.00  0.00    +0.000 A 
ATOM     10  C   UNL     1       0.225  12.784  20.965  0.00  0.00    +0.000 A 
ATOM     11  C   UNL     1      -1.100  12.928  20.566  0.00  0.00    +0.000 A 
ATOM     12  C   UNL     1      -1.692  11.945  19.779  0.00  0.00    +0.000 A 
ATOM     13  F   UNL     1      -2.977  12.079  19.423  0.00  0.00    +0.000 F 
ATOM     14  C   UNL     1      -0.983  10.816  19.376  0.00  0.00    +0.000 A 
ENDBRANCH   7   8
BRANCH   4  15
ATOM     15  C   UNL     1       3.385   7.428  17.676  0.00  0.00    +0.000 C 
BRANCH  15  16
ATOM     16  C   UNL     1       3.661   5.982  18.026  0.00  0.00    +0.000 A 
ATOM     17  C   UNL     1       4.863   5.614  18.653  0.00  0.00    +0.000 A 
ATOM     18  C   UNL     1       5.073   4.302  19.082  0.00  0.00    +0.000 A 
ATOM     19  C   UNL     1       4.076   3.338  18.868  0.00  0.00    +0.000 A 
ATOM     20  C   UNL     1       2.896   3.677  18.194  0.00  0.00    +0.000 A 
ATOM     21  C   UNL     1       2.696   4.993  17.771  0.00  0.00    +0.000 A 
BRANCH  19  22
ATOM     22  N   UNL     1       4.258   1.973  19.378  0.00  0.00    +0.000 N 
ATOM     23  O   UNL     1       4.909   1.830  20.424  0.00  0.00    +0.000 OA
ATOM     24  O   UNL     1       3.744   1.044  18.739  0.00  0.00    +0.000 OA
ENDBRANCH  19  22
ENDBRANCH  15  16
ENDBRANCH   4  15
TORSDOF 4
ENDMDL
MODEL 4
REMARK VINA RESULT:      -7.4      5.545      8.841
REMARK  Name = 
REMARK  5 active torsions:
REMARK  status: ('A' for Active; 'I' for Inactive)
REMARK    1  A    between atoms: C_1  and  C_2
REMARK    2  A    between atoms: N_4  and  C_5
REMARK    3  A    between atoms: C_5  and  C_6
REMARK    4  A    between atoms: C_9  and  N_10
REMARK    5  A    between atoms: N_17  and  C_18
REMARK                            x       y       z     vdW  Elec       q    Type
REMARK                         _______ _______ _______ _____ _____    ______ ____
ROOT
ATOM      1  C   UNL     1       1.929   6.097  21.077  0.00  0.00    +0.000 C 
ATOM      2  C   UNL     1       1.852   7.176  20.042  0.00  0.00    +0.000 A 
ATOM      3  N   UNL     1       1.305   8.338  20.271  0.00  0.00    +0.000 NA
ATOM      4  N   UNL     1       1.545   9.047  19.112  0.00  0.00    +0.000 N 
ATOM      5  C   UNL     1       2.279   8.271  18.203  0.00  0.00    +0.000 A 
ATOM      6  O   UNL     1       2.670   8.618  17.097  0.00  0.00    +0.000 OA
ATOM      7  N   UNL     1       2.425   7.048  18.825  0.00  0.00    +0.000 N 
ENDROOT
BRANCH   7   8
ATOM      8  C   UNL     1       2.919   5.881  18.228  0.00  0.00    +0.000 A 
ATOM      9  C   UNL     1       2.026   4.869  17.846  0.00  0.00    +0.000 A 
ATOM     10  C   UNL     1       2.493   3.678  17.289  0.00  0.00    +0.000 A 
ATOM     11  C   UNL     1       3.863   3.484  17.138  0.00  0.00    +0.000 A 
ATOM     12  C   UNL     1       4.746   4.493  17.508  0.00  0.00    +0.000 A 
ATOM     13  F   UNL     1       6.064   4.286  17.384  0.00  0.00    +0.000 F 
ATOM     14  C   UNL     1       4.288   5.702  18.027  0.00  0.00    +0.000 A 
ENDBRANCH   7   8
BRANCH   4  15
ATOM     15  C   UNL     1       1.171  10.429  18.947  0.00  0.00    +0.000 C 
BRANCH  15  16
ATOM     16  C   UNL     1      -0.309  10.642  18.719  0.00  0.00    +0.000 A 
ATOM     17  C   UNL     1      -1.020  11.591  19.473  0.00  0.00    +0.000 A 
ATOM     18  C   UNL     1      -2.358  11.873  19.187  0.00  0.00    +0.000 A 
ATOM     19  C   UNL     1      -3.001  11.187  18.145  0.00  0.00    +0.000 A 
ATOM     20  C   UNL     1      -2.322  10.199  17.423  0.00  0.00    +0.000 A 
ATOM     21  C   UNL     1      -0.984   9.925  17.716  0.00  0.00    +0.000 A 
BRANCH  19  22
ATOM     22  N   UNL     1      -4.386  11.527  17.793  0.00  0.00    +0.000 N 
ATOM     23  O   UNL     1      -4.632  11.787  16.605  0.00  0.00    +0.000 OA
ATOM     24  O   UNL     1      -5.230  11.526  18.700  0.00  0.00    +0.000 OA
ENDBRANCH  19  22
ENDBRANCH  15  16
ENDBRANCH   4  15
TORSDOF 4
ENDMDL
MODEL 5
REMARK VINA RESULT:      -7.3      0.576      1.298
REMARK  Name = 
REMARK  5 active torsions:
REMARK  status: ('A' for Active; 'I' for Inactive)
REMARK    1  A    between atoms: C_1  and  C_2
REMARK    2  A    between atoms: N_4  and  C_5
REMARK    3  A    between atoms: C_5  and  C_6
REMARK    4  A    between atoms: C_9  and  N_10
REMARK    5  A    between atoms: N_17  and  C_18
REMARK                            x       y       z     vdW  Elec       q    Type
REMARK                         _______ _______ _______ _____ _____    ______ ____
ROOT
ATOM      1  C   UNL     1       2.179   7.566  18.901  0.00  0.00    +0.000 C 
ATOM      2  C   UNL     1       3.271   6.734  18.303  0.00  0.00    +0.000 A 
ATOM      3  N   UNL     1       4.127   7.205  17.439  0.00  0.00    +0.000 NA
ATOM      4  N   UNL     1       5.003   6.158  17.240  0.00  0.00    +0.000 N 
ATOM      5  C   UNL     1       4.650   5.063  18.042  0.00  0.00    +0.000 A 
ATOM      6  O   UNL     1       5.239   3.993  18.115  0.00  0.00    +0.000 OA
ATOM      7  N   UNL     1       3.497   5.459  18.688  0.00  0.00    +0.000 N 
ENDROOT
BRANCH   7   8
ATOM      8  C   UNL     1       2.661   4.631  19.449  0.00  0.00    +0.000 A 
ATOM      9  C   UNL     1       2.865   4.530  20.833  0.00  0.00    +0.000 A 
ATOM     10  C   UNL     1       2.075   3.681  21.609  0.00  0.00    +0.000 A 
ATOM     11  C   UNL     1       1.094   2.906  20.996  0.00  0.00    +0.000 A 
ATOM     12  C   UNL     1       0.889   3.016  19.625  0.00  0.00    +0.000 A 
ATOM     13  F   UNL     1      -0.039   2.246  19.040  0.00  0.00    +0.000 F 
ATOM     14  C   UNL     1       1.643   3.891  18.847  0.00  0.00    +0.000 A 
ENDBRANCH   7   8
BRANCH   4  15
ATOM     15  C   UNL     1       6.169   6.262  16.400  0.00  0.00    +0.000 C 
BRANCH  15  16
ATOM     16  C   UNL     1       6.194   5.270  15.258  0.00  0.00    +0.000 A 
ATOM     17  C   UNL     1       5.008   4.663  14.812  0.00  0.00    +0.000 A 
ATOM     18  C   UNL     1       5.008   3.836  13.686  0.00  0.00    +0.000 A 
ATOM     19  C   UNL     1       6.212   3.599  13.004  0.00  0.00    +0.000 A 
ATOM     20  C   UNL     1       7.410   4.152  13.470  0.00  0.00    +0.000 A 
ATOM     21  C   UNL     1       7.399   4.977  14.597  0.00  0.00    +0.000 A 
BRANCH  19  22
ATOM     22  N   UNL     1       6.209   2.789  11.779  0.00  0.00    +0.000 N 
ATOM     23  O   UNL     1       7.297   2.587  11.218  0.00  0.00    +0.000 OA
ATOM     24  O   UNL     1       5.122   2.347  11.381  0.00  0.00    +0.000 OA
ENDBRANCH  19  22
ENDBRANCH  15  16
ENDBRANCH   4  15
TORSDOF 4
ENDMDL
MODEL 6
REMARK VINA RESULT:      -7.3      2.385      3.632
REMARK  Name = 
REMARK  5 active torsions:
REMARK  status: ('A' for Active; 'I' for Inactive)
REMARK    1  A    between atoms: C_1  and  C_2
REMARK    2  A    between atoms: N_4  and  C_5
REMARK    3  A    between atoms: C_5  and  C_6
REMARK    4  A    between atoms: C_9  and  N_10
REMARK    5  A    between atoms: N_17  and  C_18
REMARK                            x       y       z     vdW  Elec       q    Type
REMARK                         _______ _______ _______ _____ _____    ______ ____
ROOT
ATOM      1  C   UNL     1       1.511   4.864  20.081  0.00  0.00    +0.000 C 
ATOM      2  C   UNL     1       2.803   5.266  19.439  0.00  0.00    +0.000 A 
ATOM      3  N   UNL     1       3.805   4.443  19.291  0.00  0.00    +0.000 NA
ATOM      4  N   UNL     1       4.726   5.175  18.571  0.00  0.00    +0.000 N 
ATOM      5  C   UNL     1       4.219   6.449  18.273  0.00  0.00    +0.000 A 
ATOM      6  O   UNL     1       4.780   7.325  17.629  0.00  0.00    +0.000 OA
ATOM      7  N   UNL     1       2.984   6.486  18.888  0.00  0.00    +0.000 N 
ENDROOT
BRANCH   7   8
ATOM      8  C   UNL     1       2.179   7.623  19.037  0.00  0.00    +0.000 A 
ATOM      9  C   UNL     1       1.846   8.386  17.908  0.00  0.00    +0.000 A 
ATOM     10  C   UNL     1       1.082   9.547  18.032  0.00  0.00    +0.000 A 
ATOM     11  C   UNL     1       0.672   9.965  19.295  0.00  0.00    +0.000 A 
ATOM     12  C   UNL     1       0.995   9.201  20.411  0.00  0.00    +0.000 A 
ATOM     13  F   UNL     1       0.619   9.626  21.625  0.00  0.00    +0.000 F 
ATOM     14  C   UNL     1       1.722   8.018  20.294  0.00  0.00    +0.000 A 
ENDBRANCH   7   8
BRANCH   4  15
ATOM     15  C   UNL     1       5.978   4.627  18.115  0.00  0.00    +0.000 C 
BRANCH  15  16
ATOM     16  C   UNL     1       6.081   4.499  16.611  0.00  0.00    +0.000 A 
ATOM     17  C   UNL     1       7.216   4.967  15.928  0.00  0.00    +0.000 A 
ATOM     18  C   UNL     1       7.366   4.748  14.557  0.00  0.00    +0.000 A 
ATOM     19  C   UNL     1       6.362   4.064  13.853  0.00  0.00    +0.000 A 
ATOM     20  C   UNL     1       5.201   3.641  14.510  0.00  0.00    +0.000 A 
ATOM     21  C   UNL     1       5.061   3.865  15.881  0.00  0.00    +0.000 A 
BRANCH  19  22
ATOM     22  N   UNL     1       6.545   3.767  12.427  0.00  0.00    +0.000 N 
ATOM     23  O   UNL     1       5.858   2.859  11.934  0.00  0.00    +0.000 OA
ATOM     24  O   UNL     1       7.367   4.446  11.796  0.00  0.00    +0.000 OA
ENDBRANCH  19  22
ENDBRANCH  15  16
ENDBRANCH   4  15
TORSDOF 4
ENDMDL
MODEL 7
REMARK VINA RESULT:      -7.3      5.550      8.807
REMARK  Name = 
REMARK  5 active torsions:
REMARK  status: ('A' for Active; 'I' for Inactive)
REMARK    1  A    between atoms: C_1  and  C_2
REMARK    2  A    between atoms: N_4  and  C_5
REMARK    3  A    between atoms: C_5  and  C_6
REMARK    4  A    between atoms: C_9  and  N_10
REMARK    5  A    between atoms: N_17  and  C_18
REMARK                            x       y       z     vdW  Elec       q    Type
REMARK                         _______ _______ _______ _____ _____    ______ ____
ROOT
ATOM      1  C   UNL     1       1.875   6.201  21.142  0.00  0.00    +0.000 C 
ATOM      2  C   UNL     1       1.769   7.301  20.131  0.00  0.00    +0.000 A 
ATOM      3  N   UNL     1       1.217   8.453  20.395  0.00  0.00    +0.000 NA
ATOM      4  N   UNL     1       1.429   9.188  19.247  0.00  0.00    +0.000 N 
ATOM      5  C   UNL     1       2.154   8.438  18.309  0.00  0.00    +0.000 A 
ATOM      6  O   UNL     1       2.521   8.813  17.204  0.00  0.00    +0.000 OA
ATOM      7  N   UNL     1       2.321   7.204  18.902  0.00  0.00    +0.000 N 
ENDROOT
BRANCH   7   8
ATOM      8  C   UNL     1       2.815   6.054  18.271  0.00  0.00    +0.000 A 
ATOM      9  C   UNL     1       1.931   5.017  17.938  0.00  0.00    +0.000 A 
ATOM     10  C   UNL     1       2.401   3.843  17.348  0.00  0.00    +0.000 A 
ATOM     11  C   UNL     1       3.765   3.691  17.115  0.00  0.00    +0.000 A 
ATOM     12  C   UNL     1       4.637   4.725  17.439  0.00  0.00    +0.000 A 
ATOM     13  F   UNL     1       5.951   4.559  17.236  0.00  0.00    +0.000 F 
ATOM     14  C   UNL     1       4.174   5.918  17.989  0.00  0.00    +0.000 A 
ENDBRANCH   7   8
BRANCH   4  15
ATOM     15  C   UNL     1       1.040  10.570  19.119  0.00  0.00    +0.000 C 
BRANCH  15  16
ATOM     16  C   UNL     1      -0.388  10.767  18.661  0.00  0.00    +0.000 A 
ATOM     17  C   UNL     1      -0.951   9.921  17.690  0.00  0.00    +0.000 A 
ATOM     18  C   UNL     1      -2.301  10.025  17.349  0.00  0.00    +0.000 A 
ATOM     19  C   UNL     1      -3.098  10.997  17.972  0.00  0.00    +0.000 A 
ATOM     20  C   UNL     1      -2.538  11.884  18.899  0.00  0.00    +0.000 A 
ATOM     21  C   UNL     1      -1.186  11.771  19.234  0.00  0.00    +0.000 A 
BRANCH  19  22
ATOM     22  N   UNL     1      -4.534  11.067  17.671  0.00  0.00    +0.000 N 
ATOM     23  O   UNL     1      -5.311  10.458  18.421  0.00  0.00    +0.000 OA
ATOM     24  O   UNL     1      -4.886  11.738  16.690  0.00  0.00    +0.000 OA
ENDBRANCH  19  22
ENDBRANCH  15  16
ENDBRANCH   4  15
TORSDOF 4
ENDMDL
MODEL 8
REMARK VINA RESULT:      -7.3      5.041      6.928
REMARK  Name = 
REMARK  5 active torsions:
REMARK  status: ('A' for Active; 'I' for Inactive)
REMARK    1  A    between atoms: C_1  and  C_2
REMARK    2  A    between atoms: N_4  and  C_5
REMARK    3  A    between atoms: C_5  and  C_6
REMARK    4  A    between atoms: C_9  and  N_10
REMARK    5  A    between atoms: N_17  and  C_18
REMARK                            x       y       z     vdW  Elec       q    Type
REMARK                         _______ _______ _______ _____ _____    ______ ____
ROOT
ATOM      1  C   UNL     1       0.604   8.231  21.643  0.00  0.00    +0.000 C 
ATOM      2  C   UNL     1       1.313   8.446  20.342  0.00  0.00    +0.000 A 
ATOM      3  N   UNL     1       2.141   7.575  19.835  0.00  0.00    +0.000 NA
ATOM      4  N   UNL     1       2.471   8.112  18.608  0.00  0.00    +0.000 N 
ATOM      5  C   UNL     1       1.783   9.316  18.396  0.00  0.00    +0.000 A 
ATOM      6  O   UNL     1       1.839  10.022  17.398  0.00  0.00    +0.000 OA
ATOM      7  N   UNL     1       1.072   9.522  19.560  0.00  0.00    +0.000 N 
ENDROOT
BRANCH   7   8
ATOM      8  C   UNL     1       0.385  10.694  19.902  0.00  0.00    +0.000 A 
ATOM      9  C   UNL     1      -0.929  10.881  19.447  0.00  0.00    +0.000 A 
ATOM     10  C   UNL     1      -1.622  12.057  19.735  0.00  0.00    +0.000 A 
ATOM     11  C   UNL     1      -0.991  13.065  20.459  0.00  0.00    +0.000 A 
ATOM     12  C   UNL     1       0.308  12.872  20.918  0.00  0.00    +0.000 A 
ATOM     13  F   UNL     1       0.916  13.858  21.590  0.00  0.00    +0.000 F 
ATOM     14  C   UNL     1       0.995  11.685  20.671  0.00  0.00    +0.000 A 
ENDBRANCH   7   8
BRANCH   4  15
ATOM     15  C   UNL     1       3.322   7.437  17.661  0.00  0.00    +0.000 C 
BRANCH  15  16
ATOM     16  C   UNL     1       3.606   5.993  18.010  0.00  0.00    +0.000 A 
ATOM     17  C   UNL     1       4.840   5.620  18.567  0.00  0.00    +0.000 A 
ATOM     18  C   UNL     1       5.064   4.310  18.997  0.00  0.00    +0.000 A 
ATOM     19  C   UNL     1       4.046   3.354  18.855  0.00  0.00    +0.000 A 
ATOM     20  C   UNL     1       2.831   3.697  18.250  0.00  0.00    +0.000 A 
ATOM     21  C   UNL     1       2.618   5.010  17.824  0.00  0.00    +0.000 A 
BRANCH  19  22
ATOM     22  N   UNL     1       4.247   1.993  19.368  0.00  0.00    +0.000 N 
ATOM     23  O   UNL     1       3.777   1.052  18.711  0.00  0.00    +0.000 OA
ATOM     24  O   UNL     1       4.882   1.862  20.425  0.00  0.00    +0.000 OA
ENDBRANCH  19  22
ENDBRANCH  15  16
ENDBRANCH   4  15
TORSDOF 4
ENDMDL
MODEL 9
REMARK VINA RESULT:      -7.3      3.239      7.468
REMARK  Name = 
REMARK  5 active torsions:
REMARK  status: ('A' for Active; 'I' for Inactive)
REMARK    1  A    between atoms: C_1  and  C_2
REMARK    2  A    between atoms: N_4  and  C_5
REMARK    3  A    between atoms: C_5  and  C_6
REMARK    4  A    between atoms: C_9  and  N_10
REMARK    5  A    between atoms: N_17  and  C_18
REMARK                            x       y       z     vdW  Elec       q    Type
REMARK                         _______ _______ _______ _____ _____    ______ ____
ROOT
ATOM      1  C   UNL     1       7.955   5.629  12.479  0.00  0.00    +0.000 C 
ATOM      2  C   UNL     1       7.422   5.086  13.768  0.00  0.00    +0.000 A 
ATOM      3  N   UNL     1       7.849   5.485  14.934  0.00  0.00    +0.000 NA
ATOM      4  N   UNL     1       7.030   4.824  15.827  0.00  0.00    +0.000 N 
ATOM      5  C   UNL     1       6.084   4.046  15.144  0.00  0.00    +0.000 A 
ATOM      6  O   UNL     1       5.203   3.362  15.646  0.00  0.00    +0.000 OA
ATOM      7  N   UNL     1       6.395   4.209  13.809  0.00  0.00    +0.000 N 
ENDROOT
BRANCH   7   8
ATOM      8  C   UNL     1       5.852   3.473  12.748  0.00  0.00    +0.000 A 
ATOM      9  C   UNL     1       4.620   3.860  12.199  0.00  0.00    +0.000 A 
ATOM     10  C   UNL     1       4.035   3.122  11.170  0.00  0.00    +0.000 A 
ATOM     11  C   UNL     1       4.669   1.973  10.705  0.00  0.00    +0.000 A 
ATOM     12  C   UNL     1       5.894   1.597  11.244  0.00  0.00    +0.000 A 
ATOM     13  F   UNL     1       6.483   0.475  10.809  0.00  0.00    +0.000 F 
ATOM     14  C   UNL     1       6.508   2.350  12.243  0.00  0.00    +0.000 A 
ENDBRANCH   7   8
BRANCH   4  15
ATOM     15  C   UNL     1       7.101   5.025  17.252  0.00  0.00    +0.000 C 
BRANCH  15  16
ATOM     16  C   UNL     1       5.766   5.319  17.899  0.00  0.00    +0.000 A 
ATOM     17  C   UNL     1       5.295   4.529  18.961  0.00  0.00    +0.000 A 
ATOM     18  C   UNL     1       4.120   4.866  19.636  0.00  0.00    +0.000 A 
ATOM     19  C   UNL     1       3.394   5.998  19.235  0.00  0.00    +0.000 A 
ATOM     20  C   UNL     1       3.821   6.763  18.143  0.00  0.00    +0.000 A 
ATOM     21  C   UNL     1       4.998   6.418  17.476  0.00  0.00    +0.000 A 
BRANCH  19  22
ATOM     22  N   UNL     1       2.196   6.400  19.984  0.00  0.00    +0.000 N 
ATOM     23  O   UNL     1       1.500   5.503  20.484  0.00  0.00    +0.000 OA
ATOM     24  O   UNL     1       1.954   7.612  20.080  0.00  0.00    +0.000 OA
ENDBRANCH  19  22
ENDBRANCH  15  16
ENDBRANCH   4  15
TORSDOF 4
ENDMDL
