MODEL 1
REMARK VINA RESULT:      -8.2      0.000      0.000
REMARK  Name = 
REMARK  9 active torsions:
REMARK  status: ('A' for Active; 'I' for Inactive)
REMARK    1  A    between atoms: C_1  and  C_2
REMARK    2  A    between atoms: N_7  and  C_8
REMARK    3  A    between atoms: C_8  and  C_9
REMARK    4  A    between atoms: C_9  and  C_10
REMARK    5  A    between atoms: N_18  and  C_19
REMARK    6  A    between atoms: C_19  and  C_20
REMARK    7  A    between atoms: N_22  and  C_23
REMARK    8  A    between atoms: C_23  and  C_24
REMARK    9  A    between atoms: C_27  and  C_28
REMARK                            x       y       z     vdW  Elec       q    Type
REMARK                         _______ _______ _______ _____ _____    ______ ____
ROOT
ATOM      1  C   UNL     1       5.245   3.483  15.552  0.00  0.00    +0.000 C 
ATOM      2  C   UNL     1       5.951   4.489  16.425  0.00  0.00    +0.000 A 
ATOM      3  C   UNL     1       6.854   5.360  15.908  0.00  0.00    +0.000 A 
ATOM      4 CL   UNL     1       7.302   5.377  14.221  0.00  0.00    +0.000 Cl
ATOM      5  N   UNL     1       7.545   6.294  16.607  0.00  0.00    +0.000 NA
ATOM      6  C   UNL     1       7.367   6.373  17.892  0.00  0.00    +0.000 A 
ATOM      7  N   UNL     1       8.104   7.289  18.626  0.00  0.00    +0.000 N 
ATOM      8  C   UNL     1       6.353   5.454  18.619  0.00  0.00    +0.000 A 
ATOM      9  O   UNL     1       6.200   5.587  19.829  0.00  0.00    +0.000 OA
ATOM     10  N   UNL     1       5.684   4.522  17.812  0.00  0.00    +0.000 N 
ATOM     11  H   UNL     1       7.965   7.282  19.633  0.00  0.00    +0.000 HD
ENDROOT
BRANCH   7  12
ATOM     12  C   UNL     1       8.558   8.524  17.995  0.00  0.00    +0.000 C 
BRANCH  12  13
ATOM     13  C   UNL     1       9.201   9.469  19.007  0.00  0.00    +0.000 C 
BRANCH  13  14
ATOM     14  C   UNL     1       9.013  10.919  18.627  0.00  0.00    +0.000 A 
ATOM     15  C   UNL     1       9.690  11.927  19.328  0.00  0.00    +0.000 A 
ATOM     16  C   UNL     1       9.513  13.270  18.987  0.00  0.00    +0.000 A 
ATOM     17  C   UNL     1       8.657  13.620  17.945  0.00  0.00    +0.000 A 
ATOM     18  C   UNL     1       7.970  12.626  17.248  0.00  0.00    +0.000 A 
ATOM     19  C   UNL     1       8.143  11.282  17.590  0.00  0.00    +0.000 A 
ENDBRANCH  13  14
ENDBRANCH  12  13
ENDBRANCH   7  12
BRANCH  10  20
ATOM     20  C   UNL     1       4.764   3.599  18.508  0.00  0.00    +0.000 C 
BRANCH  20  21
ATOM     21  C   UNL     1       3.409   4.193  18.941  0.00  0.00    +0.000 C 
ATOM     22  O   UNL     1       2.350   3.817  18.428  0.00  0.00    +0.000 OA
ATOM     23  N   UNL     1       3.430   5.086  20.012  0.00  0.00    +0.000 N 
ATOM     24  H   UNL     1       4.278   5.606  20.211  0.00  0.00    +0.000 HD
BRANCH  23  25
ATOM     25  C   UNL     1       2.161   5.625  20.475  0.00  0.00    +0.000 C 
BRANCH  25  26
ATOM     26  C   UNL     1       1.868   7.064  20.110  0.00  0.00    +0.000 A 
ATOM     27  C   UNL     1       2.181   7.551  18.832  0.00  0.00    +0.000 A 
ATOM     28  C   UNL     1       1.792   8.835  18.437  0.00  0.00    +0.000 A 
ATOM     29  C   UNL     1       1.091   9.670  19.317  0.00  0.00    +0.000 A 
ATOM     30  C   UNL     1       0.788   9.201  20.599  0.00  0.00    +0.000 A 
ATOM     31  C   UNL     1       1.172   7.909  20.990  0.00  0.00    +0.000 A 
BRANCH  29  32
ATOM     32  C   UNL     1       0.690  11.038  18.866  0.00  0.00    +0.000 C 
ATOM     33  N   UNL     1      -0.364  11.267  18.150  0.00  0.00    +0.000 NA
ATOM     34  N   UNL     1       1.441  12.127  19.201  0.00  0.00    +0.000 N 
ATOM     35  H   UNL     1      -0.843  10.403  17.890  0.00  0.00    +0.000 HD
ATOM     36  H   UNL     1       1.979  12.093  20.056  0.00  0.00    +0.000 HD
ATOM     37  H   UNL     1       0.934  12.993  19.068  0.00  0.00    +0.000 HD
ENDBRANCH  29  32
ENDBRANCH  25  26
ENDBRANCH  23  25
ENDBRANCH  20  21
ENDBRANCH  10  20
TORSDOF 8
ENDMDL
MODEL 2
REMARK VINA RESULT:      -8.1      0.879      1.373
REMARK  Name = 
REMARK  9 active torsions:
REMARK  status: ('A' for Active; 'I' for Inactive)
REMARK    1  A    between atoms: C_1  and  C_2
REMARK    2  A    between atoms: N_7  and  C_8
REMARK    3  A    between atoms: C_8  and  C_9
REMARK    4  A    between atoms: C_9  and  C_10
REMARK    5  A    between atoms: N_18  and  C_19
REMARK    6  A    between atoms: C_19  and  C_20
REMARK    7  A    between atoms: N_22  and  C_23
REMARK    8  A    between atoms: C_23  and  C_24
REMARK    9  A    between atoms: C_27  and  C_28
REMARK                            x       y       z     vdW  Elec       q    Type
REMARK                         _______ _______ _______ _____ _____    ______ ____
ROOT
ATOM      1  C   UNL     1       5.193   3.389  15.498  0.00  0.00    +0.000 C 
ATOM      2  C   UNL     1       5.911   4.440  16.305  0.00  0.00    +0.000 A 
ATOM      3  C   UNL     1       6.734   5.342  15.715  0.00  0.00    +0.000 A 
ATOM      4 CL   UNL     1       7.061   5.352  14.000  0.00  0.00    +0.000 Cl
ATOM      5  N   UNL     1       7.428   6.318  16.350  0.00  0.00    +0.000 NA
ATOM      6  C   UNL     1       7.337   6.410  17.644  0.00  0.00    +0.000 A 
ATOM      7  N   UNL     1       8.081   7.370  18.312  0.00  0.00    +0.000 N 
ATOM      8  C   UNL     1       6.421   5.457  18.453  0.00  0.00    +0.000 A 
ATOM      9  O   UNL     1       6.347   5.602  19.669  0.00  0.00    +0.000 OA
ATOM     10  N   UNL     1       5.741   4.483  17.707  0.00  0.00    +0.000 N 
ATOM     11  H   UNL     1       8.014   7.372  19.326  0.00  0.00    +0.000 HD
ENDROOT
BRANCH   7  12
ATOM     12  C   UNL     1       8.431   8.614  17.635  0.00  0.00    +0.000 C 
BRANCH  12  13
ATOM     13  C   UNL     1       8.031   9.835  18.459  0.00  0.00    +0.000 C 
BRANCH  13  14
ATOM     14  C   UNL     1       9.134  10.866  18.514  0.00  0.00    +0.000 A 
ATOM     15  C   UNL     1       9.082  12.001  17.691  0.00  0.00    +0.000 A 
ATOM     16  C   UNL     1      10.103  12.953  17.731  0.00  0.00    +0.000 A 
ATOM     17  C   UNL     1      11.186  12.782  18.590  0.00  0.00    +0.000 A 
ATOM     18  C   UNL     1      11.253  11.651  19.404  0.00  0.00    +0.000 A 
ATOM     19  C   UNL     1      10.235  10.696  19.364  0.00  0.00    +0.000 A 
ENDBRANCH  13  14
ENDBRANCH  12  13
ENDBRANCH   7  12
BRANCH  10  20
ATOM     20  C   UNL     1       4.916   3.530  18.479  0.00  0.00    +0.000 C 
BRANCH  20  21
ATOM     21  C   UNL     1       3.820   4.150  19.368  0.00  0.00    +0.000 C 
ATOM     22  O   UNL     1       3.415   3.574  20.383  0.00  0.00    +0.000 OA
ATOM     23  N   UNL     1       3.395   5.435  19.033  0.00  0.00    +0.000 N 
ATOM     24  H   UNL     1       3.490   5.759  18.076  0.00  0.00    +0.000 HD
BRANCH  23  25
ATOM     25  C   UNL     1       2.397   6.066  19.883  0.00  0.00    +0.000 C 
BRANCH  25  26
ATOM     26  C   UNL     1       2.041   7.499  19.553  0.00  0.00    +0.000 A 
ATOM     27  C   UNL     1       2.300   8.019  18.276  0.00  0.00    +0.000 A 
ATOM     28  C   UNL     1       1.853   9.294  17.915  0.00  0.00    +0.000 A 
ATOM     29  C   UNL     1       1.146  10.086  18.828  0.00  0.00    +0.000 A 
ATOM     30  C   UNL     1       0.895   9.585  20.109  0.00  0.00    +0.000 A 
ATOM     31  C   UNL     1       1.339   8.301  20.466  0.00  0.00    +0.000 A 
BRANCH  29  32
ATOM     32  C   UNL     1       0.682  11.446  18.414  0.00  0.00    +0.000 C 
ATOM     33  N   UNL     1       1.452  12.488  18.418  0.00  0.00    +0.000 NA
ATOM     34  N   UNL     1      -0.604  11.647  18.005  0.00  0.00    +0.000 N 
ATOM     35  H   UNL     1       2.379  12.275  18.789  0.00  0.00    +0.000 HD
ATOM     36  H   UNL     1      -1.098  10.874  17.581  0.00  0.00    +0.000 HD
ATOM     37  H   UNL     1      -0.713  12.525  17.512  0.00  0.00    +0.000 HD
ENDBRANCH  29  32
ENDBRANCH  25  26
ENDBRANCH  23  25
ENDBRANCH  20  21
ENDBRANCH  10  20
TORSDOF 8
ENDMDL
MODEL 3
REMARK VINA RESULT:      -8.0      1.443      1.731
REMARK  Name = 
REMARK  9 active torsions:
REMARK  status: ('A' for Active; 'I' for Inactive)
REMARK    1  A    between atoms: C_1  and  C_2
REMARK    2  A    between atoms: N_7  and  C_8
REMARK    3  A    between atoms: C_8  and  C_9
REMARK    4  A    between atoms: C_9  and  C_10
REMARK    5  A    between atoms: N_18  and  C_19
REMARK    6  A    between atoms: C_19  and  C_20
REMARK    7  A    between atoms: N_22  and  C_23
REMARK    8  A    between atoms: C_23  and  C_24
REMARK    9  A    between atoms: C_27  and  C_28
REMARK                            x       y       z     vdW  Elec       q    Type
REMARK                         _______ _______ _______ _____ _____    ______ ____
ROOT
ATOM      1  C   UNL     1       3.928   4.718  16.636  0.00  0.00    +0.000 C 
ATOM      2  C   UNL     1       5.115   5.433  17.231  0.00  0.00    +0.000 A 
ATOM      3  C   UNL     1       5.730   6.447  16.574  0.00  0.00    +0.000 A 
ATOM      4 CL   UNL     1       5.238   6.992  14.990  0.00  0.00    +0.000 Cl
ATOM      5  N   UNL     1       6.804   7.145  17.019  0.00  0.00    +0.000 NA
ATOM      6  C   UNL     1       7.329   6.824  18.164  0.00  0.00    +0.000 A 
ATOM      7  N   UNL     1       8.457   7.495  18.607  0.00  0.00    +0.000 N 
ATOM      8  C   UNL     1       6.722   5.695  19.036  0.00  0.00    +0.000 A 
ATOM      9  O   UNL     1       7.237   5.448  20.121  0.00  0.00    +0.000 OA
ATOM     10  N   UNL     1       5.612   5.033  18.492  0.00  0.00    +0.000 N 
ATOM     11  H   UNL     1       8.860   7.176  19.485  0.00  0.00    +0.000 HD
ENDROOT
BRANCH   7  12
ATOM     12  C   UNL     1       8.684   8.877  18.198  0.00  0.00    +0.000 C 
BRANCH  12  13
ATOM     13  C   UNL     1       8.907   9.790  19.401  0.00  0.00    +0.000 C 
BRANCH  13  14
ATOM     14  C   UNL     1       9.893  10.894  19.100  0.00  0.00    +0.000 A 
ATOM     15  C   UNL     1      10.508  11.597  20.145  0.00  0.00    +0.000 A 
ATOM     16  C   UNL     1      11.414  12.626  19.873  0.00  0.00    +0.000 A 
ATOM     17  C   UNL     1      11.713  12.962  18.554  0.00  0.00    +0.000 A 
ATOM     18  C   UNL     1      11.098  12.277  17.507  0.00  0.00    +0.000 A 
ATOM     19  C   UNL     1      10.189  11.250  17.777  0.00  0.00    +0.000 A 
ENDBRANCH  13  14
ENDBRANCH  12  13
ENDBRANCH   7  12
BRANCH  10  20
ATOM     20  C   UNL     1       5.068   3.913  19.287  0.00  0.00    +0.000 C 
BRANCH  20  21
ATOM     21  C   UNL     1       3.689   4.150  19.936  0.00  0.00    +0.000 C 
ATOM     22  O   UNL     1       2.994   3.208  20.328  0.00  0.00    +0.000 OA
ATOM     23  N   UNL     1       3.323   5.476  20.159  0.00  0.00    +0.000 N 
ATOM     24  H   UNL     1       3.725   6.209  19.584  0.00  0.00    +0.000 HD
BRANCH  23  25
ATOM     25  C   UNL     1       2.049   5.730  20.814  0.00  0.00    +0.000 C 
BRANCH  25  26
ATOM     26  C   UNL     1       1.433   7.093  20.582  0.00  0.00    +0.000 A 
ATOM     27  C   UNL     1       0.504   7.618  21.493  0.00  0.00    +0.000 A 
ATOM     28  C   UNL     1       0.033   8.928  21.363  0.00  0.00    +0.000 A 
ATOM     29  C   UNL     1       0.469   9.742  20.311  0.00  0.00    +0.000 A 
ATOM     30  C   UNL     1       1.383   9.225  19.387  0.00  0.00    +0.000 A 
ATOM     31  C   UNL     1       1.861   7.912  19.524  0.00  0.00    +0.000 A 
BRANCH  29  32
ATOM     32  C   UNL     1      -0.054  11.138  20.198  0.00  0.00    +0.000 C 
ATOM     33  N   UNL     1      -1.110  11.446  19.513  0.00  0.00    +0.000 NA
ATOM     34  N   UNL     1       0.577  12.171  20.829  0.00  0.00    +0.000 N 
ATOM     35  H   UNL     1      -1.495  10.636  19.023  0.00  0.00    +0.000 HD
ATOM     36  H   UNL     1       1.096  11.970  21.673  0.00  0.00    +0.000 HD
ATOM     37  H   UNL     1      -0.010  12.993  20.893  0.00  0.00    +0.000 HD
ENDBRANCH  29  32
ENDBRANCH  25  26
ENDBRANCH  23  25
ENDBRANCH  20  21
ENDBRANCH  10  20
TORSDOF 8
ENDMDL
MODEL 4
REMARK VINA RESULT:      -7.8      4.602      9.404
REMARK  Name = 
REMARK  9 active torsions:
REMARK  status: ('A' for Active; 'I' for Inactive)
REMARK    1  A    between atoms: C_1  and  C_2
REMARK    2  A    between atoms: N_7  and  C_8
REMARK    3  A    between atoms: C_8  and  C_9
REMARK    4  A    between atoms: C_9  and  C_10
REMARK    5  A    between atoms: N_18  and  C_19
REMARK    6  A    between atoms: C_19  and  C_20
REMARK    7  A    between atoms: N_22  and  C_23
REMARK    8  A    between atoms: C_23  and  C_24
REMARK    9  A    between atoms: C_27  and  C_28
REMARK                            x       y       z     vdW  Elec       q    Type
REMARK                         _______ _______ _______ _____ _____    ______ ____
ROOT
ATOM      1  C   UNL     1      -1.189  11.554  22.509  0.00  0.00    +0.000 C 
ATOM      2  C   UNL     1      -0.365  11.127  21.321  0.00  0.00    +0.000 A 
ATOM      3  C   UNL     1      -0.015   9.830  21.135  0.00  0.00    +0.000 A 
ATOM      4 CL   UNL     1      -0.448   8.558  22.250  0.00  0.00    +0.000 Cl
ATOM      5  N   UNL     1       0.727   9.347  20.108  0.00  0.00    +0.000 NA
ATOM      6  C   UNL     1       1.177  10.180  19.217  0.00  0.00    +0.000 A 
ATOM      7  N   UNL     1       1.979   9.707  18.189  0.00  0.00    +0.000 N 
ATOM      8  C   UNL     1       0.844  11.691  19.289  0.00  0.00    +0.000 A 
ATOM      9  O   UNL     1       1.269  12.431  18.409  0.00  0.00    +0.000 OA
ATOM     10  N   UNL     1       0.069  12.094  20.387  0.00  0.00    +0.000 N 
ATOM     11  H   UNL     1       2.347  10.402  17.545  0.00  0.00    +0.000 HD
ENDROOT
BRANCH   7  12
ATOM     12  C   UNL     1       1.819   8.336  17.718  0.00  0.00    +0.000 C 
BRANCH  12  13
ATOM     13  C   UNL     1       2.886   7.413  18.300  0.00  0.00    +0.000 C 
BRANCH  13  14
ATOM     14  C   UNL     1       2.300   6.115  18.803  0.00  0.00    +0.000 A 
ATOM     15  C   UNL     1       2.094   5.917  20.176  0.00  0.00    +0.000 A 
ATOM     16  C   UNL     1       1.561   4.715  20.648  0.00  0.00    +0.000 A 
ATOM     17  C   UNL     1       1.230   3.699  19.754  0.00  0.00    +0.000 A 
ATOM     18  C   UNL     1       1.441   3.881  18.388  0.00  0.00    +0.000 A 
ATOM     19  C   UNL     1       1.978   5.081  17.914  0.00  0.00    +0.000 A 
ENDBRANCH  13  14
ENDBRANCH  12  13
ENDBRANCH   7  12
BRANCH  10  20
ATOM     20  C   UNL     1      -0.199  13.543  20.498  0.00  0.00    +0.000 C 
BRANCH  20  21
ATOM     21  C   UNL     1       0.995  14.421  20.921  0.00  0.00    +0.000 C 
ATOM     22  O   UNL     1       1.557  14.260  22.009  0.00  0.00    +0.000 OA
ATOM     23  N   UNL     1       1.476  15.322  19.972  0.00  0.00    +0.000 N 
ATOM     24  H   UNL     1       0.855  15.659  19.244  0.00  0.00    +0.000 HD
BRANCH  23  25
ATOM     25  C   UNL     1       2.634  16.130  20.325  0.00  0.00    +0.000 C 
BRANCH  25  26
ATOM     26  C   UNL     1       3.931  15.788  19.625  0.00  0.00    +0.000 A 
ATOM     27  C   UNL     1       5.120  15.655  20.357  0.00  0.00    +0.000 A 
ATOM     28  C   UNL     1       6.294  15.205  19.745  0.00  0.00    +0.000 A 
ATOM     29  C   UNL     1       6.312  14.890  18.380  0.00  0.00    +0.000 A 
ATOM     30  C   UNL     1       5.136  15.033  17.637  0.00  0.00    +0.000 A 
ATOM     31  C   UNL     1       3.957  15.477  18.255  0.00  0.00    +0.000 A 
BRANCH  29  32
ATOM     32  C   UNL     1       7.583  14.413  17.754  0.00  0.00    +0.000 C 
ATOM     33  N   UNL     1       7.743  13.209  17.304  0.00  0.00    +0.000 NA
ATOM     34  N   UNL     1       8.653  15.251  17.630  0.00  0.00    +0.000 N 
ATOM     35  H   UNL     1       6.924  12.624  17.482  0.00  0.00    +0.000 HD
ATOM     36  H   UNL     1       8.477  16.243  17.552  0.00  0.00    +0.000 HD
ATOM     37  H   UNL     1       9.335  14.901  16.969  0.00  0.00    +0.000 HD
ENDBRANCH  29  32
ENDBRANCH  25  26
ENDBRANCH  23  25
ENDBRANCH  20  21
ENDBRANCH  10  20
TORSDOF 8
ENDMDL
MODEL 5
REMARK VINA RESULT:      -7.7      5.449     10.580
REMARK  Name = 
REMARK  9 active torsions:
REMARK  status: ('A' for Active; 'I' for Inactive)
REMARK    1  A    between atoms: C_1  and  C_2
REMARK    2  A    between atoms: N_7  and  C_8
REMARK    3  A    between atoms: C_8  and  C_9
REMARK    4  A    between atoms: C_9  and  C_10
REMARK    5  A    between atoms: N_18  and  C_19
REMARK    6  A    between atoms: C_19  and  C_20
REMARK    7  A    between atoms: N_22  and  C_23
REMARK    8  A    between atoms: C_23  and  C_24
REMARK    9  A    between atoms: C_27  and  C_28
REMARK                            x       y       z     vdW  Elec       q    Type
REMARK                         _______ _______ _______ _____ _____    ______ ____
ROOT
ATOM      1  C   UNL     1       0.928  10.124  18.738  0.00  0.00    +0.000 C 
ATOM      2  C   UNL     1       0.176  10.537  19.978  0.00  0.00    +0.000 A 
ATOM      3  C   UNL     1      -0.849  11.423  19.919  0.00  0.00    +0.000 A 
ATOM      4 CL   UNL     1      -1.364  12.185  18.434  0.00  0.00    +0.000 Cl
ATOM      5  N   UNL     1      -1.580  11.863  20.972  0.00  0.00    +0.000 NA
ATOM      6  C   UNL     1      -1.285  11.432  22.162  0.00  0.00    +0.000 A 
ATOM      7  N   UNL     1      -1.991  11.911  23.254  0.00  0.00    +0.000 N 
ATOM      8  C   UNL     1      -0.148  10.401  22.383  0.00  0.00    +0.000 A 
ATOM      9  O   UNL     1       0.074  10.004  23.522  0.00  0.00    +0.000 OA
ATOM     10  N   UNL     1       0.550  10.005  21.233  0.00  0.00    +0.000 N 
ATOM     11  H   UNL     1      -1.693  11.582  24.169  0.00  0.00    +0.000 HD
ENDROOT
BRANCH   7  12
ATOM     12  C   UNL     1      -3.375  12.343  23.088  0.00  0.00    +0.000 C 
BRANCH  12  13
ATOM     13  C   UNL     1      -3.854  13.167  24.280  0.00  0.00    +0.000 C 
BRANCH  13  14
ATOM     14  C   UNL     1      -5.131  13.915  23.975  0.00  0.00    +0.000 A 
ATOM     15  C   UNL     1      -5.155  15.317  24.008  0.00  0.00    +0.000 A 
ATOM     16  C   UNL     1      -6.335  16.013  23.737  0.00  0.00    +0.000 A 
ATOM     17  C   UNL     1      -7.503  15.317  23.432  0.00  0.00    +0.000 A 
ATOM     18  C   UNL     1      -7.493  13.923  23.407  0.00  0.00    +0.000 A 
ATOM     19  C   UNL     1      -6.314  13.224  23.682  0.00  0.00    +0.000 A 
ENDBRANCH  13  14
ENDBRANCH  12  13
ENDBRANCH   7  12
BRANCH  10  20
ATOM     20  C   UNL     1       1.676   9.073  21.443  0.00  0.00    +0.000 C 
BRANCH  20  21
ATOM     21  C   UNL     1       1.508   7.662  20.844  0.00  0.00    +0.000 C 
ATOM     22  O   UNL     1       0.486   6.998  21.042  0.00  0.00    +0.000 OA
ATOM     23  N   UNL     1       2.511   7.227  19.979  0.00  0.00    +0.000 N 
ATOM     24  H   UNL     1       3.445   7.614  20.061  0.00  0.00    +0.000 HD
BRANCH  23  25
ATOM     25  C   UNL     1       2.356   5.920  19.359  0.00  0.00    +0.000 C 
BRANCH  25  26
ATOM     26  C   UNL     1       3.300   5.599  18.220  0.00  0.00    +0.000 A 
ATOM     27  C   UNL     1       4.130   6.595  17.684  0.00  0.00    +0.000 A 
ATOM     28  C   UNL     1       5.102   6.282  16.728  0.00  0.00    +0.000 A 
ATOM     29  C   UNL     1       5.259   4.966  16.275  0.00  0.00    +0.000 A 
ATOM     30  C   UNL     1       4.426   3.968  16.790  0.00  0.00    +0.000 A 
ATOM     31  C   UNL     1       3.457   4.283  17.756  0.00  0.00    +0.000 A 
BRANCH  29  32
ATOM     32  C   UNL     1       6.305   4.663  15.251  0.00  0.00    +0.000 C 
ATOM     33  N   UNL     1       7.410   5.332  15.148  0.00  0.00    +0.000 NA
ATOM     34  N   UNL     1       6.133   3.643  14.362  0.00  0.00    +0.000 N 
ATOM     35  H   UNL     1       7.444   6.113  15.805  0.00  0.00    +0.000 HD
ATOM     36  H   UNL     1       5.558   2.858  14.638  0.00  0.00    +0.000 HD
ATOM     37  H   UNL     1       7.001   3.379  13.913  0.00  0.00    +0.000 HD
ENDBRANCH  29  32
ENDBRANCH  25  26
ENDBRANCH  23  25
ENDBRANCH  20  21
ENDBRANCH  10  20
TORSDOF 8
ENDMDL
MODEL 6
REMARK VINA RESULT:      -7.6      1.124      1.643
REMARK  Name = 
REMARK  9 active torsions:
REMARK  status: ('A' for Active; 'I' for Inactive)
REMARK    1  A    between atoms: C_1  and  C_2
REMARK    2  A    between atoms: N_7  and  C_8
REMARK    3  A    between atoms: C_8  and  C_9
REMARK    4  A    between atoms: C_9  and  C_10
REMARK    5  A    between atoms: N_18  and  C_19
REMARK    6  A    between atoms: C_19  and  C_20
REMARK    7  A    between atoms: N_22  and  C_23
REMARK    8  A    between atoms: C_23  and  C_24
REMARK    9  A    between atoms: C_27  and  C_28
REMARK                            x       y       z     vdW  Elec       q    Type
REMARK                         _______ _______ _______ _____ _____    ______ ____
ROOT
ATOM      1  C   UNL     1       4.074   4.317  16.392  0.00  0.00    +0.000 C 
ATOM      2  C   UNL     1       5.155   5.140  17.047  0.00  0.00    +0.000 A 
ATOM      3  C   UNL     1       5.765   6.155  16.388  0.00  0.00    +0.000 A 
ATOM      4 CL   UNL     1       5.391   6.578  14.736  0.00  0.00    +0.000 Cl
ATOM      5  N   UNL     1       6.749   6.946  16.883  0.00  0.00    +0.000 NA
ATOM      6  C   UNL     1       7.183   6.723  18.088  0.00  0.00    +0.000 A 
ATOM      7  N   UNL     1       8.223   7.491  18.589  0.00  0.00    +0.000 N 
ATOM      8  C   UNL     1       6.568   5.607  18.969  0.00  0.00    +0.000 A 
ATOM      9  O   UNL     1       6.993   5.454  20.109  0.00  0.00    +0.000 OA
ATOM     10  N   UNL     1       5.555   4.844  18.370  0.00  0.00    +0.000 N 
ATOM     11  H   UNL     1       8.560   7.249  19.517  0.00  0.00    +0.000 HD
ENDROOT
BRANCH   7  12
ATOM     12  C   UNL     1       8.402   8.860  18.119  0.00  0.00    +0.000 C 
BRANCH  12  13
ATOM     13  C   UNL     1       9.412   9.621  18.975  0.00  0.00    +0.000 C 
BRANCH  13  14
ATOM     14  C   UNL     1       9.155  11.109  18.965  0.00  0.00    +0.000 A 
ATOM     15  C   UNL     1       8.786  11.756  17.776  0.00  0.00    +0.000 A 
ATOM     16  C   UNL     1       8.557  13.134  17.759  0.00  0.00    +0.000 A 
ATOM     17  C   UNL     1       8.696  13.880  18.927  0.00  0.00    +0.000 A 
ATOM     18  C   UNL     1       9.074  13.249  20.113  0.00  0.00    +0.000 A 
ATOM     19  C   UNL     1       9.307  11.872  20.131  0.00  0.00    +0.000 A 
ENDBRANCH  13  14
ENDBRANCH  12  13
ENDBRANCH   7  12
BRANCH  10  20
ATOM     20  C   UNL     1       5.008   3.736  19.180  0.00  0.00    +0.000 C 
BRANCH  20  21
ATOM     21  C   UNL     1       3.684   4.024  19.915  0.00  0.00    +0.000 C 
ATOM     22  O   UNL     1       3.046   3.122  20.467  0.00  0.00    +0.000 OA
ATOM     23  N   UNL     1       3.308   5.362  20.023  0.00  0.00    +0.000 N 
ATOM     24  H   UNL     1       3.643   6.032  19.339  0.00  0.00    +0.000 HD
BRANCH  23  25
ATOM     25  C   UNL     1       2.088   5.670  20.755  0.00  0.00    +0.000 C 
BRANCH  25  26
ATOM     26  C   UNL     1       1.511   7.053  20.548  0.00  0.00    +0.000 A 
ATOM     27  C   UNL     1       0.712   7.645  21.537  0.00  0.00    +0.000 A 
ATOM     28  C   UNL     1       0.287   8.973  21.418  0.00  0.00    +0.000 A 
ATOM     29  C   UNL     1       0.640   9.737  20.300  0.00  0.00    +0.000 A 
ATOM     30  C   UNL     1       1.422   9.153  19.299  0.00  0.00    +0.000 A 
ATOM     31  C   UNL     1       1.854   7.823  19.424  0.00  0.00    +0.000 A 
BRANCH  29  32
ATOM     32  C   UNL     1       0.169  11.152  20.200  0.00  0.00    +0.000 C 
ATOM     33  N   UNL     1       0.508  11.945  19.234  0.00  0.00    +0.000 NA
ATOM     34  N   UNL     1      -0.658  11.678  21.150  0.00  0.00    +0.000 N 
ATOM     35  H   UNL     1       1.170  11.504  18.594  0.00  0.00    +0.000 HD
ATOM     36  H   UNL     1      -1.274  11.051  21.649  0.00  0.00    +0.000 HD
ATOM     37  H   UNL     1      -1.105  12.530  20.836  0.00  0.00    +0.000 HD
ENDBRANCH  29  32
ENDBRANCH  25  26
ENDBRANCH  23  25
ENDBRANCH  20  21
ENDBRANCH  10  20
TORSDOF 8
ENDMDL
MODEL 7
REMARK VINA RESULT:      -7.6      5.305     10.142
REMARK  Name = 
REMARK  9 active torsions:
REMARK  status: ('A' for Active; 'I' for Inactive)
REMARK    1  A    between atoms: C_1  and  C_2
REMARK    2  A    between atoms: N_7  and  C_8
REMARK    3  A    between atoms: C_8  and  C_9
REMARK    4  A    between atoms: C_9  and  C_10
REMARK    5  A    between atoms: N_18  and  C_19
REMARK    6  A    between atoms: C_19  and  C_20
REMARK    7  A    between atoms: N_22  and  C_23
REMARK    8  A    between atoms: C_23  and  C_24
REMARK    9  A    between atoms: C_27  and  C_28
REMARK                            x       y       z     vdW  Elec       q    Type
REMARK                         _______ _______ _______ _____ _____    ______ ____
ROOT
ATOM      1  C   UNL     1       1.052  10.040  18.788  0.00  0.00    +0.000 C 
ATOM      2  C   UNL     1       0.264  10.489  19.993  0.00  0.00    +0.000 A 
ATOM      3  C   UNL     1      -0.730  11.405  19.883  0.00  0.00    +0.000 A 
ATOM      4 CL   UNL     1      -1.161  12.165  18.372  0.00  0.00    +0.000 Cl
ATOM      5  N   UNL     1      -1.489  11.879  20.902  0.00  0.00    +0.000 NA
ATOM      6  C   UNL     1      -1.254  11.452  22.107  0.00  0.00    +0.000 A 
ATOM      7  N   UNL     1      -1.989  11.965  23.165  0.00  0.00    +0.000 N 
ATOM      8  C   UNL     1      -0.160  10.390  22.384  0.00  0.00    +0.000 A 
ATOM      9  O   UNL     1       0.004   9.999  23.535  0.00  0.00    +0.000 OA
ATOM     10  N   UNL     1       0.570   9.960  21.266  0.00  0.00    +0.000 N 
ATOM     11  H   UNL     1      -1.737  11.637  24.094  0.00  0.00    +0.000 HD
ENDROOT
BRANCH   7  12
ATOM     12  C   UNL     1      -3.350  12.437  22.939  0.00  0.00    +0.000 C 
BRANCH  12  13
ATOM     13  C   UNL     1      -4.038  12.818  24.247  0.00  0.00    +0.000 C 
BRANCH  13  14
ATOM     14  C   UNL     1      -3.997  14.308  24.496  0.00  0.00    +0.000 A 
ATOM     15  C   UNL     1      -5.023  15.134  24.014  0.00  0.00    +0.000 A 
ATOM     16  C   UNL     1      -4.986  16.513  24.232  0.00  0.00    +0.000 A 
ATOM     17  C   UNL     1      -3.923  17.081  24.930  0.00  0.00    +0.000 A 
ATOM     18  C   UNL     1      -2.892  16.271  25.404  0.00  0.00    +0.000 A 
ATOM     19  C   UNL     1      -2.925  14.892  25.184  0.00  0.00    +0.000 A 
ENDBRANCH  13  14
ENDBRANCH  12  13
ENDBRANCH   7  12
BRANCH  10  20
ATOM     20  C   UNL     1       1.658   8.996  21.531  0.00  0.00    +0.000 C 
BRANCH  20  21
ATOM     21  C   UNL     1       1.527   7.622  20.844  0.00  0.00    +0.000 C 
ATOM     22  O   UNL     1       0.516   6.927  20.986  0.00  0.00    +0.000 OA
ATOM     23  N   UNL     1       2.551   7.259  19.970  0.00  0.00    +0.000 N 
ATOM     24  H   UNL     1       3.475   7.659  20.090  0.00  0.00    +0.000 HD
BRANCH  23  25
ATOM     25  C   UNL     1       2.430   5.990  19.268  0.00  0.00    +0.000 C 
BRANCH  25  26
ATOM     26  C   UNL     1       3.479   5.702  18.217  0.00  0.00    +0.000 A 
ATOM     27  C   UNL     1       3.736   4.383  17.812  0.00  0.00    +0.000 A 
ATOM     28  C   UNL     1       4.601   4.114  16.747  0.00  0.00    +0.000 A 
ATOM     29  C   UNL     1       5.242   5.157  16.067  0.00  0.00    +0.000 A 
ATOM     30  C   UNL     1       5.006   6.475  16.471  0.00  0.00    +0.000 A 
ATOM     31  C   UNL     1       4.131   6.743  17.536  0.00  0.00    +0.000 A 
BRANCH  29  32
ATOM     32  C   UNL     1       6.162   4.838  14.933  0.00  0.00    +0.000 C 
ATOM     33  N   UNL     1       7.397   5.228  14.892  0.00  0.00    +0.000 NA
ATOM     34  N   UNL     1       5.726   4.104  13.869  0.00  0.00    +0.000 N 
ATOM     35  H   UNL     1       7.637   5.818  15.690  0.00  0.00    +0.000 HD
ATOM     36  H   UNL     1       4.978   3.440  14.020  0.00  0.00    +0.000 HD
ATOM     37  H   UNL     1       6.493   3.741  13.317  0.00  0.00    +0.000 HD
ENDBRANCH  29  32
ENDBRANCH  25  26
ENDBRANCH  23  25
ENDBRANCH  20  21
ENDBRANCH  10  20
TORSDOF 8
ENDMDL
MODEL 8
REMARK VINA RESULT:      -7.5      5.099     10.303
REMARK  Name = 
REMARK  9 active torsions:
REMARK  status: ('A' for Active; 'I' for Inactive)
REMARK    1  A    between atoms: C_1  and  C_2
REMARK    2  A    between atoms: N_7  and  C_8
REMARK    3  A    between atoms: C_8  and  C_9
REMARK    4  A    between atoms: C_9  and  C_10
REMARK    5  A    between atoms: N_18  and  C_19
REMARK    6  A    between atoms: C_19  and  C_20
REMARK    7  A    between atoms: N_22  and  C_23
REMARK    8  A    between atoms: C_23  and  C_24
REMARK    9  A    between atoms: C_27  and  C_28
REMARK                            x       y       z     vdW  Elec       q    Type
REMARK                         _______ _______ _______ _____ _____    ______ ____
ROOT
ATOM      1  C   UNL     1      -0.251   9.223  20.940  0.00  0.00    +0.000 C 
ATOM      2  C   UNL     1      -0.602  10.649  20.598  0.00  0.00    +0.000 A 
ATOM      3  C   UNL     1      -0.993  11.528  21.554  0.00  0.00    +0.000 A 
ATOM      4 CL   UNL     1      -1.157  11.092  23.237  0.00  0.00    +0.000 Cl
ATOM      5  N   UNL     1      -1.335  12.823  21.350  0.00  0.00    +0.000 NA
ATOM      6  C   UNL     1      -1.320  13.290  20.136  0.00  0.00    +0.000 A 
ATOM      7  N   UNL     1      -1.717  14.598  19.906  0.00  0.00    +0.000 N 
ATOM      8  C   UNL     1      -0.878  12.406  18.942  0.00  0.00    +0.000 A 
ATOM      9  O   UNL     1      -0.854  12.901  17.820  0.00  0.00    +0.000 OA
ATOM     10  N   UNL     1      -0.540  11.081  19.255  0.00  0.00    +0.000 N 
ATOM     11  H   UNL     1      -1.734  14.903  18.936  0.00  0.00    +0.000 HD
ENDROOT
BRANCH   7  12
ATOM     12  C   UNL     1      -1.538  15.602  20.948  0.00  0.00    +0.000 C 
BRANCH  12  13
ATOM     13  C   UNL     1      -2.877  16.079  21.505  0.00  0.00    +0.000 C 
BRANCH  13  14
ATOM     14  C   UNL     1      -3.499  15.062  22.433  0.00  0.00    +0.000 A 
ATOM     15  C   UNL     1      -2.955  14.842  23.707  0.00  0.00    +0.000 A 
ATOM     16  C   UNL     1      -3.520  13.896  24.566  0.00  0.00    +0.000 A 
ATOM     17  C   UNL     1      -4.631  13.159  24.161  0.00  0.00    +0.000 A 
ATOM     18  C   UNL     1      -5.172  13.362  22.892  0.00  0.00    +0.000 A 
ATOM     19  C   UNL     1      -4.607  14.305  22.030  0.00  0.00    +0.000 A 
ENDBRANCH  13  14
ENDBRANCH  12  13
ENDBRANCH   7  12
BRANCH  10  20
ATOM     20  C   UNL     1      -0.180  10.215  18.113  0.00  0.00    +0.000 C 
BRANCH  20  21
ATOM     21  C   UNL     1       1.300   9.793  18.025  0.00  0.00    +0.000 C 
ATOM     22  O   UNL     1       2.212  10.613  18.174  0.00  0.00    +0.000 OA
ATOM     23  N   UNL     1       1.555   8.430  17.883  0.00  0.00    +0.000 N 
ATOM     24  H   UNL     1       0.850   7.830  17.466  0.00  0.00    +0.000 HD
BRANCH  23  25
ATOM     25  C   UNL     1       2.943   7.996  17.846  0.00  0.00    +0.000 C 
BRANCH  25  26
ATOM     26  C   UNL     1       3.196   6.528  18.112  0.00  0.00    +0.000 A 
ATOM     27  C   UNL     1       4.126   5.816  17.340  0.00  0.00    +0.000 A 
ATOM     28  C   UNL     1       4.470   4.499  17.663  0.00  0.00    +0.000 A 
ATOM     29  C   UNL     1       3.880   3.856  18.759  0.00  0.00    +0.000 A 
ATOM     30  C   UNL     1       2.940   4.550  19.526  0.00  0.00    +0.000 A 
ATOM     31  C   UNL     1       2.603   5.875  19.205  0.00  0.00    +0.000 A 
BRANCH  29  32
ATOM     32  C   UNL     1       4.267   2.448  19.077  0.00  0.00    +0.000 C 
ATOM     33  N   UNL     1       5.019   2.129  20.083  0.00  0.00    +0.000 NA
ATOM     34  N   UNL     1       3.831   1.414  18.299  0.00  0.00    +0.000 N 
ATOM     35  H   UNL     1       5.352   2.954  20.584  0.00  0.00    +0.000 HD
ATOM     36  H   UNL     1       2.955   1.522  17.807  0.00  0.00    +0.000 HD
ATOM     37  H   UNL     1       3.937   0.520  18.761  0.00  0.00    +0.000 HD
ENDBRANCH  29  32
ENDBRANCH  25  26
ENDBRANCH  23  25
ENDBRANCH  20  21
ENDBRANCH  10  20
TORSDOF 8
ENDMDL
MODEL 9
REMARK VINA RESULT:      -7.5      5.163      9.451
REMARK  Name = 
REMARK  9 active torsions:
REMARK  status: ('A' for Active; 'I' for Inactive)
REMARK    1  A    between atoms: C_1  and  C_2
REMARK    2  A    between atoms: N_7  and  C_8
REMARK    3  A    between atoms: C_8  and  C_9
REMARK    4  A    between atoms: C_9  and  C_10
REMARK    5  A    between atoms: N_18  and  C_19
REMARK    6  A    between atoms: C_19  and  C_20
REMARK    7  A    between atoms: N_22  and  C_23
REMARK    8  A    between atoms: C_23  and  C_24
REMARK    9  A    between atoms: C_27  and  C_28
REMARK                            x       y       z     vdW  Elec       q    Type
REMARK                         _______ _______ _______ _____ _____    ______ ____
ROOT
ATOM      1  C   UNL     1      -0.153   9.072  21.071  0.00  0.00    +0.000 C 
ATOM      2  C   UNL     1      -0.569  10.460  20.655  0.00  0.00    +0.000 A 
ATOM      3  C   UNL     1      -0.992  11.372  21.565  0.00  0.00    +0.000 A 
ATOM      4 CL   UNL     1      -1.127  11.023  23.270  0.00  0.00    +0.000 Cl
ATOM      5  N   UNL     1      -1.392  12.639  21.293  0.00  0.00    +0.000 NA
ATOM      6  C   UNL     1      -1.404  13.039  20.056  0.00  0.00    +0.000 A 
ATOM      7  N   UNL     1      -1.859  14.314  19.758  0.00  0.00    +0.000 N 
ATOM      8  C   UNL     1      -0.930  12.112  18.908  0.00  0.00    +0.000 A 
ATOM      9  O   UNL     1      -0.934  12.545  17.761  0.00  0.00    +0.000 OA
ATOM     10  N   UNL     1      -0.533  10.821  19.289  0.00  0.00    +0.000 N 
ATOM     11  H   UNL     1      -1.895  14.565  18.773  0.00  0.00    +0.000 HD
ENDROOT
BRANCH   7  12
ATOM     12  C   UNL     1      -1.719  15.381  20.743  0.00  0.00    +0.000 C 
BRANCH  12  13
ATOM     13  C   UNL     1      -0.416  16.154  20.553  0.00  0.00    +0.000 C 
BRANCH  13  14
ATOM     14  C   UNL     1      -0.443  17.012  19.310  0.00  0.00    +0.000 A 
ATOM     15  C   UNL     1      -1.549  17.831  19.040  0.00  0.00    +0.000 A 
ATOM     16  C   UNL     1      -1.584  18.620  17.888  0.00  0.00    +0.000 A 
ATOM     17  C   UNL     1      -0.517  18.596  16.992  0.00  0.00    +0.000 A 
ATOM     18  C   UNL     1       0.583  17.776  17.245  0.00  0.00    +0.000 A 
ATOM     19  C   UNL     1       0.618  16.984  18.396  0.00  0.00    +0.000 A 
ENDBRANCH  13  14
ENDBRANCH  12  13
ENDBRANCH   7  12
BRANCH  10  20
ATOM     20  C   UNL     1      -0.141   9.910  18.194  0.00  0.00    +0.000 C 
BRANCH  20  21
ATOM     21  C   UNL     1       1.342   9.491  18.160  0.00  0.00    +0.000 C 
ATOM     22  O   UNL     1       2.233  10.250  18.554  0.00  0.00    +0.000 OA
ATOM     23  N   UNL     1       1.612   8.179  17.773  0.00  0.00    +0.000 N 
ATOM     24  H   UNL     1       0.951   7.687  17.181  0.00  0.00    +0.000 HD
BRANCH  23  25
ATOM     25  C   UNL     1       2.999   7.739  17.779  0.00  0.00    +0.000 C 
BRANCH  25  26
ATOM     26  C   UNL     1       3.249   6.309  18.206  0.00  0.00    +0.000 A 
ATOM     27  C   UNL     1       2.395   5.281  17.780  0.00  0.00    +0.000 A 
ATOM     28  C   UNL     1       2.691   3.941  18.053  0.00  0.00    +0.000 A 
ATOM     29  C   UNL     1       3.844   3.598  18.771  0.00  0.00    +0.000 A 
ATOM     30  C   UNL     1       4.694   4.615  19.214  0.00  0.00    +0.000 A 
ATOM     31  C   UNL     1       4.398   5.959  18.932  0.00  0.00    +0.000 A 
BRANCH  29  32
ATOM     32  C   UNL     1       4.133   2.158  19.049  0.00  0.00    +0.000 C 
ATOM     33  N   UNL     1       3.552   1.185  18.420  0.00  0.00    +0.000 NA
ATOM     34  N   UNL     1       5.042   1.802  20.002  0.00  0.00    +0.000 N 
ATOM     35  H   UNL     1       2.845   1.523  17.765  0.00  0.00    +0.000 HD
ATOM     36  H   UNL     1       5.798   2.442  20.204  0.00  0.00    +0.000 HD
ATOM     37  H   UNL     1       5.334   0.838  19.908  0.00  0.00    +0.000 HD
ENDBRANCH  29  32
ENDBRANCH  25  26
ENDBRANCH  23  25
ENDBRANCH  20  21
ENDBRANCH  10  20
TORSDOF 8
ENDMDL
