MODEL 1
REMARK VINA RESULT:      -7.9      0.000      0.000
REMARK  Name = 
REMARK  8 active torsions:
REMARK  status: ('A' for Active; 'I' for Inactive)
REMARK    1  A    between atoms: C_2  and  O_3
REMARK    2  A    between atoms: C_2  and  C_4
REMARK    3  A    between atoms: C_4  and  C_5
REMARK    4  A    between atoms: C_5  and  C_6
REMARK    5  A    between atoms: C_8  and  C_9
REMARK    6  A    between atoms: C_16  and  C_17
REMARK    7  A    between atoms: N_24  and  C_25
REMARK    8  A    between atoms: C_25  and  C_26
REMARK                            x       y       z     vdW  Elec       q    Type
REMARK                         _______ _______ _______ _____ _____    ______ ____
ROOT
ATOM      1  C   UNL     1       5.894   3.858  15.652  0.00  0.00    +0.000 C 
ATOM      2  O   UNL     1       4.658   4.403  15.216  0.00  0.00    +0.000 OA
ATOM      3  C   UNL     1       3.867   4.833  16.322  0.00  0.00    +0.000 C 
ATOM      4  C   UNL     1       4.579   6.041  17.028  0.00  0.00    +0.000 C 
ATOM      5  N   UNL     1       5.987   5.652  17.469  0.00  0.00    +0.000 N 
ATOM      6  C   UNL     1       6.706   4.744  16.648  0.00  0.00    +0.000 C 
ATOM      7  O   UNL     1       7.909   4.501  16.775  0.00  0.00    +0.000 OA
ENDROOT
BRANCH   3   8
ATOM      8  C   UNL     1       3.437   3.633  17.163  0.00  0.00    +0.000 A 
ATOM      9  C   UNL     1       4.312   2.594  17.527  0.00  0.00    +0.000 A 
ATOM     10  C   UNL     1       3.900   1.587  18.400  0.00  0.00    +0.000 A 
ATOM     11  C   UNL     1       2.600   1.587  18.898  0.00  0.00    +0.000 A 
ATOM     12  C   UNL     1       1.710   2.585  18.509  0.00  0.00    +0.000 A 
ATOM     13 CL   UNL     1       0.105   2.588  19.128  0.00  0.00    +0.000 Cl
ATOM     14  C   UNL     1       2.118   3.599  17.646  0.00  0.00    +0.000 A 
ENDBRANCH   3   8
BRANCH   4  15
ATOM     15  C   UNL     1       3.622   6.771  18.032  0.00  0.00    +0.000 A 
ATOM     16  C   UNL     1       3.281   6.206  19.286  0.00  0.00    +0.000 A 
ATOM     17  C   UNL     1       2.413   6.821  20.195  0.00  0.00    +0.000 A 
ATOM     18  C   UNL     1       1.832   8.032  19.865  0.00  0.00    +0.000 A 
ATOM     19 CL   UNL     1       0.762   8.791  20.978  0.00  0.00    +0.000 Cl
ATOM     20  C   UNL     1       2.088   8.602  18.631  0.00  0.00    +0.000 A 
ATOM     21  C   UNL     1       2.938   7.958  17.712  0.00  0.00    +0.000 A 
ENDBRANCH   4  15
BRANCH   1  22
ATOM     22  C   UNL     1       6.624   3.478  14.347  0.00  0.00    +0.000 C 
BRANCH  22  23
ATOM     23  C   UNL     1       6.164   4.129  13.047  0.00  0.00    +0.000 C 
BRANCH  23  25
ATOM     24  O   UNL     1       4.532   3.243  11.521  0.00  0.00    +0.000 OA
ATOM     25  C   UNL     1       5.614   3.131  12.075  0.00  0.00    +0.000 C 
BRANCH  25  26
ATOM     26  O   UNL     1       6.414   2.056  11.909  0.00  0.00    +0.000 OA
ATOM     27  H   UNL     1       5.939   1.200  11.966  0.00  0.00    +0.000 HD
ENDBRANCH  25  26
ENDBRANCH  23  25
ENDBRANCH  22  23
ENDBRANCH   1  22
BRANCH   5  28
ATOM     28  C   UNL     1       6.721   6.647  18.269  0.00  0.00    +0.000 C 
BRANCH  28  29
ATOM     29  C   UNL     1       7.795   7.517  17.675  0.00  0.00    +0.000 C 
ATOM     30  C   UNL     1       7.524   9.008  17.601  0.00  0.00    +0.000 C 
ATOM     31  C   UNL     1       8.580   8.488  18.527  0.00  0.00    +0.000 C 
ENDBRANCH  28  29
ENDBRANCH   5  28
TORSDOF 8
ENDMDL
MODEL 2
REMARK VINA RESULT:      -7.7      1.122      1.175
REMARK  Name = 
REMARK  8 active torsions:
REMARK  status: ('A' for Active; 'I' for Inactive)
REMARK    1  A    between atoms: C_2  and  O_3
REMARK    2  A    between atoms: C_2  and  C_4
REMARK    3  A    between atoms: C_4  and  C_5
REMARK    4  A    between atoms: C_5  and  C_6
REMARK    5  A    between atoms: C_8  and  C_9
REMARK    6  A    between atoms: C_16  and  C_17
REMARK    7  A    between atoms: N_24  and  C_25
REMARK    8  A    between atoms: C_25  and  C_26
REMARK                            x       y       z     vdW  Elec       q    Type
REMARK                         _______ _______ _______ _____ _____    ______ ____
ROOT
ATOM      1  C   UNL     1       5.670   4.222  16.150  0.00  0.00    +0.000 C 
ATOM      2  O   UNL     1       4.291   4.374  15.853  0.00  0.00    +0.000 OA
ATOM      3  C   UNL     1       3.595   4.983  16.940  0.00  0.00    +0.000 C 
ATOM      4  C   UNL     1       4.104   6.457  17.118  0.00  0.00    +0.000 C 
ATOM      5  N   UNL     1       5.614   6.482  17.339  0.00  0.00    +0.000 N 
ATOM      6  C   UNL     1       6.393   5.504  16.667  0.00  0.00    +0.000 C 
ATOM      7  O   UNL     1       7.624   5.530  16.598  0.00  0.00    +0.000 OA
ENDROOT
BRANCH   3   8
ATOM      8  C   UNL     1       3.587   4.052  18.150  0.00  0.00    +0.000 A 
ATOM      9  C   UNL     1       4.753   3.487  18.696  0.00  0.00    +0.000 A 
ATOM     10  C   UNL     1       4.701   2.746  19.877  0.00  0.00    +0.000 A 
ATOM     11  C   UNL     1       3.481   2.532  20.511  0.00  0.00    +0.000 A 
ATOM     12  C   UNL     1       2.313   3.046  19.956  0.00  0.00    +0.000 A 
ATOM     13 CL   UNL     1       0.806   2.786  20.742  0.00  0.00    +0.000 Cl
ATOM     14  C   UNL     1       2.358   3.796  18.783  0.00  0.00    +0.000 A 
ENDBRANCH   3   8
BRANCH   4  15
ATOM     15  C   UNL     1       3.164   7.284  18.061  0.00  0.00    +0.000 A 
ATOM     16  C   UNL     1       2.861   6.856  19.377  0.00  0.00    +0.000 A 
ATOM     17  C   UNL     1       2.008   7.559  20.236  0.00  0.00    +0.000 A 
ATOM     18  C   UNL     1       1.407   8.722  19.792  0.00  0.00    +0.000 A 
ATOM     19 CL   UNL     1       0.357   9.590  20.844  0.00  0.00    +0.000 Cl
ATOM     20  C   UNL     1       1.626   9.157  18.497  0.00  0.00    +0.000 A 
ATOM     21  C   UNL     1       2.460   8.424  17.632  0.00  0.00    +0.000 A 
ENDBRANCH   4  15
BRANCH   1  22
ATOM     22  C   UNL     1       6.265   3.586  14.877  0.00  0.00    +0.000 C 
BRANCH  22  23
ATOM     23  C   UNL     1       5.552   3.825  13.550  0.00  0.00    +0.000 C 
BRANCH  23  25
ATOM     24  O   UNL     1       7.248   4.099  11.869  0.00  0.00    +0.000 OA
ATOM     25  C   UNL     1       6.380   3.405  12.375  0.00  0.00    +0.000 C 
BRANCH  25  26
ATOM     26  O   UNL     1       6.036   2.193  11.888  0.00  0.00    +0.000 OA
ATOM     27  H   UNL     1       6.793   1.681  11.536  0.00  0.00    +0.000 HD
ENDBRANCH  25  26
ENDBRANCH  23  25
ENDBRANCH  22  23
ENDBRANCH   1  22
BRANCH   5  28
ATOM     28  C   UNL     1       6.207   7.791  17.659  0.00  0.00    +0.000 C 
BRANCH  28  29
ATOM     29  C   UNL     1       7.681   8.057  17.520  0.00  0.00    +0.000 C 
ATOM     30  C   UNL     1       8.191   9.415  17.966  0.00  0.00    +0.000 C 
ATOM     31  C   UNL     1       8.575   8.186  18.732  0.00  0.00    +0.000 C 
ENDBRANCH  28  29
ENDBRANCH   5  28
TORSDOF 8
ENDMDL
MODEL 3
REMARK VINA RESULT:      -7.6      1.295      1.687
REMARK  Name = 
REMARK  8 active torsions:
REMARK  status: ('A' for Active; 'I' for Inactive)
REMARK    1  A    between atoms: C_2  and  O_3
REMARK    2  A    between atoms: C_2  and  C_4
REMARK    3  A    between atoms: C_4  and  C_5
REMARK    4  A    between atoms: C_5  and  C_6
REMARK    5  A    between atoms: C_8  and  C_9
REMARK    6  A    between atoms: C_16  and  C_17
REMARK    7  A    between atoms: N_24  and  C_25
REMARK    8  A    between atoms: C_25  and  C_26
REMARK                            x       y       z     vdW  Elec       q    Type
REMARK                         _______ _______ _______ _____ _____    ______ ____
ROOT
ATOM      1  C   UNL     1       5.596   4.034  16.271  0.00  0.00    +0.000 C 
ATOM      2  O   UNL     1       4.216   4.183  15.975  0.00  0.00    +0.000 OA
ATOM      3  C   UNL     1       3.525   4.816  17.051  0.00  0.00    +0.000 C 
ATOM      4  C   UNL     1       4.037   6.293  17.195  0.00  0.00    +0.000 C 
ATOM      5  N   UNL     1       5.547   6.320  17.411  0.00  0.00    +0.000 N 
ATOM      6  C   UNL     1       6.323   5.326  16.758  0.00  0.00    +0.000 C 
ATOM      7  O   UNL     1       7.554   5.348  16.685  0.00  0.00    +0.000 OA
ENDROOT
BRANCH   3   8
ATOM      8  C   UNL     1       3.518   3.911  18.280  0.00  0.00    +0.000 A 
ATOM      9  C   UNL     1       4.672   3.283  18.782  0.00  0.00    +0.000 A 
ATOM     10  C   UNL     1       4.633   2.570  19.980  0.00  0.00    +0.000 A 
ATOM     11  C   UNL     1       3.435   2.447  20.678  0.00  0.00    +0.000 A 
ATOM     12  C   UNL     1       2.276   3.025  20.169  0.00  0.00    +0.000 A 
ATOM     13 CL   UNL     1       0.796   2.878  21.033  0.00  0.00    +0.000 Cl
ATOM     14  C   UNL     1       2.310   3.748  18.979  0.00  0.00    +0.000 A 
ENDBRANCH   3   8
BRANCH   4  15
ATOM     15  C   UNL     1       3.102   7.142  18.123  0.00  0.00    +0.000 A 
ATOM     16  C   UNL     1       2.504   8.348  17.681  0.00  0.00    +0.000 A 
ATOM     17  C   UNL     1       1.682   9.140  18.491  0.00  0.00    +0.000 A 
ATOM     18  C   UNL     1       1.445   8.756  19.797  0.00  0.00    +0.000 A 
ATOM     19 CL   UNL     1       0.437   9.727  20.798  0.00  0.00    +0.000 Cl
ATOM     20  C   UNL     1       2.048   7.615  20.298  0.00  0.00    +0.000 A 
ATOM     21  C   UNL     1       2.897   6.844  19.483  0.00  0.00    +0.000 A 
ENDBRANCH   4  15
BRANCH   1  22
ATOM     22  C   UNL     1       6.186   3.370  15.010  0.00  0.00    +0.000 C 
BRANCH  22  23
ATOM     23  C   UNL     1       5.808   3.944  13.649  0.00  0.00    +0.000 C 
BRANCH  23  25
ATOM     24  O   UNL     1       7.353   4.073  11.812  0.00  0.00    +0.000 OA
ATOM     25  C   UNL     1       6.995   4.477  12.907  0.00  0.00    +0.000 C 
BRANCH  25  26
ATOM     26  O   UNL     1       7.673   5.420  13.597  0.00  0.00    +0.000 OA
ATOM     27  H   UNL     1       7.280   5.626  14.471  0.00  0.00    +0.000 HD
ENDBRANCH  25  26
ENDBRANCH  23  25
ENDBRANCH  22  23
ENDBRANCH   1  22
BRANCH   5  28
ATOM     28  C   UNL     1       6.144   7.634  17.702  0.00  0.00    +0.000 C 
BRANCH  28  29
ATOM     29  C   UNL     1       7.615   7.901  17.530  0.00  0.00    +0.000 C 
ATOM     30  C   UNL     1       8.138   9.249  17.989  0.00  0.00    +0.000 C 
ATOM     31  C   UNL     1       8.539   8.005  18.721  0.00  0.00    +0.000 C 
ENDBRANCH  28  29
ENDBRANCH   5  28
TORSDOF 8
ENDMDL
MODEL 4
REMARK VINA RESULT:      -7.5      1.146      1.399
REMARK  Name = 
REMARK  8 active torsions:
REMARK  status: ('A' for Active; 'I' for Inactive)
REMARK    1  A    between atoms: C_2  and  O_3
REMARK    2  A    between atoms: C_2  and  C_4
REMARK    3  A    between atoms: C_4  and  C_5
REMARK    4  A    between atoms: C_5  and  C_6
REMARK    5  A    between atoms: C_8  and  C_9
REMARK    6  A    between atoms: C_16  and  C_17
REMARK    7  A    between atoms: N_24  and  C_25
REMARK    8  A    between atoms: C_25  and  C_26
REMARK                            x       y       z     vdW  Elec       q    Type
REMARK                         _______ _______ _______ _____ _____    ______ ____
ROOT
ATOM      1  C   UNL     1       5.454   3.827  16.179  0.00  0.00    +0.000 C 
ATOM      2  O   UNL     1       4.213   4.297  15.679  0.00  0.00    +0.000 OA
ATOM      3  C   UNL     1       3.441   4.911  16.710  0.00  0.00    +0.000 C 
ATOM      4  C   UNL     1       4.167   6.216  17.192  0.00  0.00    +0.000 C 
ATOM      5  N   UNL     1       5.582   5.899  17.669  0.00  0.00    +0.000 N 
ATOM      6  C   UNL     1       6.285   4.863  17.000  0.00  0.00    +0.000 C 
ATOM      7  O   UNL     1       7.489   4.639  17.147  0.00  0.00    +0.000 OA
ENDROOT
BRANCH   3   8
ATOM      8  C   UNL     1       3.023   3.870  17.747  0.00  0.00    +0.000 A 
ATOM      9  C   UNL     1       1.729   3.322  17.809  0.00  0.00    +0.000 A 
ATOM     10  C   UNL     1       1.436   2.284  18.694  0.00  0.00    +0.000 A 
ATOM     11  C   UNL     1       2.421   1.800  19.549  0.00  0.00    +0.000 A 
ATOM     12  C   UNL     1       3.693   2.365  19.529  0.00  0.00    +0.000 A 
ATOM     13 CL   UNL     1       4.912   1.763  20.582  0.00  0.00    +0.000 Cl
ATOM     14  C   UNL     1       3.996   3.394  18.641  0.00  0.00    +0.000 A 
ENDBRANCH   3   8
BRANCH   4  15
ATOM     15  C   UNL     1       3.229   7.108  18.075  0.00  0.00    +0.000 A 
ATOM     16  C   UNL     1       2.849   6.726  19.386  0.00  0.00    +0.000 A 
ATOM     17  C   UNL     1       1.995   7.489  20.191  0.00  0.00    +0.000 A 
ATOM     18  C   UNL     1       1.470   8.668  19.696  0.00  0.00    +0.000 A 
ATOM     19 CL   UNL     1       0.419   9.608  20.681  0.00  0.00    +0.000 Cl
ATOM     20  C   UNL     1       1.765   9.061  18.402  0.00  0.00    +0.000 A 
ATOM     21  C   UNL     1       2.599   8.269  17.591  0.00  0.00    +0.000 A 
ENDBRANCH   4  15
BRANCH   1  22
ATOM     22  C   UNL     1       6.161   3.230  14.945  0.00  0.00    +0.000 C 
BRANCH  22  23
ATOM     23  C   UNL     1       6.280   4.094  13.694  0.00  0.00    +0.000 C 
BRANCH  23  25
ATOM     24  O   UNL     1       4.678   3.481  12.011  0.00  0.00    +0.000 OA
ATOM     25  C   UNL     1       5.807   3.381  12.465  0.00  0.00    +0.000 C 
BRANCH  25  26
ATOM     26  O   UNL     1       6.742   2.566  11.931  0.00  0.00    +0.000 OA
ATOM     27  H   UNL     1       7.652   2.927  11.978  0.00  0.00    +0.000 HD
ENDBRANCH  25  26
ENDBRANCH  23  25
ENDBRANCH  22  23
ENDBRANCH   1  22
BRANCH   5  28
ATOM     28  C   UNL     1       6.331   7.010  18.279  0.00  0.00    +0.000 C 
BRANCH  28  29
ATOM     29  C   UNL     1       7.588   7.562  17.663  0.00  0.00    +0.000 C 
ATOM     30  C   UNL     1       7.750   9.070  17.638  0.00  0.00    +0.000 C 
ATOM     31  C   UNL     1       8.644   8.240  18.506  0.00  0.00    +0.000 C 
ENDBRANCH  28  29
ENDBRANCH   5  28
TORSDOF 8
ENDMDL
MODEL 5
REMARK VINA RESULT:      -7.4      1.449      1.776
REMARK  Name = 
REMARK  8 active torsions:
REMARK  status: ('A' for Active; 'I' for Inactive)
REMARK    1  A    between atoms: C_2  and  O_3
REMARK    2  A    between atoms: C_2  and  C_4
REMARK    3  A    between atoms: C_4  and  C_5
REMARK    4  A    between atoms: C_5  and  C_6
REMARK    5  A    between atoms: C_8  and  C_9
REMARK    6  A    between atoms: C_16  and  C_17
REMARK    7  A    between atoms: N_24  and  C_25
REMARK    8  A    between atoms: C_25  and  C_26
REMARK                            x       y       z     vdW  Elec       q    Type
REMARK                         _______ _______ _______ _____ _____    ______ ____
ROOT
ATOM      1  C   UNL     1       5.638   3.882  16.180  0.00  0.00    +0.000 C 
ATOM      2  O   UNL     1       4.410   4.364  15.658  0.00  0.00    +0.000 OA
ATOM      3  C   UNL     1       3.611   4.954  16.683  0.00  0.00    +0.000 C 
ATOM      4  C   UNL     1       4.323   6.248  17.214  0.00  0.00    +0.000 C 
ATOM      5  N   UNL     1       5.725   5.919  17.720  0.00  0.00    +0.000 N 
ATOM      6  C   UNL     1       6.446   4.898  17.046  0.00  0.00    +0.000 C 
ATOM      7  O   UNL     1       7.646   4.671  17.220  0.00  0.00    +0.000 OA
ENDROOT
BRANCH   3   8
ATOM      8  C   UNL     1       3.165   3.890  17.683  0.00  0.00    +0.000 A 
ATOM      9  C   UNL     1       1.879   3.321  17.681  0.00  0.00    +0.000 A 
ATOM     10  C   UNL     1       1.565   2.264  18.535  0.00  0.00    +0.000 A 
ATOM     11  C   UNL     1       2.521   1.781  19.425  0.00  0.00    +0.000 A 
ATOM     12  C   UNL     1       3.783   2.366  19.469  0.00  0.00    +0.000 A 
ATOM     13 CL   UNL     1       4.966   1.767  20.564  0.00  0.00    +0.000 Cl
ATOM     14  C   UNL     1       4.107   3.415  18.612  0.00  0.00    +0.000 A 
ENDBRANCH   3   8
BRANCH   4  15
ATOM     15  C   UNL     1       3.362   7.119  18.092  0.00  0.00    +0.000 A 
ATOM     16  C   UNL     1       2.917   6.689  19.366  0.00  0.00    +0.000 A 
ATOM     17  C   UNL     1       2.041   7.434  20.165  0.00  0.00    +0.000 A 
ATOM     18  C   UNL     1       1.559   8.642  19.699  0.00  0.00    +0.000 A 
ATOM     19 CL   UNL     1       0.481   9.561  20.676  0.00  0.00    +0.000 Cl
ATOM     20  C   UNL     1       1.918   9.085  18.438  0.00  0.00    +0.000 A 
ATOM     21  C   UNL     1       2.775   8.312  17.631  0.00  0.00    +0.000 A 
ENDBRANCH   4  15
BRANCH   1  22
ATOM     22  C   UNL     1       6.377   3.314  14.952  0.00  0.00    +0.000 C 
BRANCH  22  23
ATOM     23  C   UNL     1       6.142   3.975  13.599  0.00  0.00    +0.000 C 
BRANCH  23  25
ATOM     24  O   UNL     1       7.703   4.928  12.040  0.00  0.00    +0.000 OA
ATOM     25  C   UNL     1       7.288   4.846  13.185  0.00  0.00    +0.000 C 
BRANCH  25  26
ATOM     26  O   UNL     1       7.860   5.498  14.220  0.00  0.00    +0.000 OA
ATOM     27  H   UNL     1       8.725   5.904  13.999  0.00  0.00    +0.000 HD
ENDBRANCH  25  26
ENDBRANCH  23  25
ENDBRANCH  22  23
ENDBRANCH   1  22
BRANCH   5  28
ATOM     28  C   UNL     1       6.458   7.015  18.375  0.00  0.00    +0.000 C 
BRANCH  28  29
ATOM     29  C   UNL     1       7.682   7.639  17.763  0.00  0.00    +0.000 C 
ATOM     30  C   UNL     1       7.685   9.146  17.587  0.00  0.00    +0.000 C 
ATOM     31  C   UNL     1       8.612   8.510  18.577  0.00  0.00    +0.000 C 
ENDBRANCH  28  29
ENDBRANCH   5  28
TORSDOF 8
ENDMDL
MODEL 6
REMARK VINA RESULT:      -7.4      0.801      1.315
REMARK  Name = 
REMARK  8 active torsions:
REMARK  status: ('A' for Active; 'I' for Inactive)
REMARK    1  A    between atoms: C_2  and  O_3
REMARK    2  A    between atoms: C_2  and  C_4
REMARK    3  A    between atoms: C_4  and  C_5
REMARK    4  A    between atoms: C_5  and  C_6
REMARK    5  A    between atoms: C_8  and  C_9
REMARK    6  A    between atoms: C_16  and  C_17
REMARK    7  A    between atoms: N_24  and  C_25
REMARK    8  A    between atoms: C_25  and  C_26
REMARK                            x       y       z     vdW  Elec       q    Type
REMARK                         _______ _______ _______ _____ _____    ______ ____
ROOT
ATOM      1  C   UNL     1       5.813   4.205  15.963  0.00  0.00    +0.000 C 
ATOM      2  O   UNL     1       4.465   4.419  15.575  0.00  0.00    +0.000 OA
ATOM      3  C   UNL     1       3.699   4.957  16.652  0.00  0.00    +0.000 C 
ATOM      4  C   UNL     1       4.223   6.398  16.990  0.00  0.00    +0.000 C 
ATOM      5  N   UNL     1       5.711   6.362  17.328  0.00  0.00    +0.000 N 
ATOM      6  C   UNL     1       6.521   5.421  16.639  0.00  0.00    +0.000 C 
ATOM      7  O   UNL     1       7.753   5.419  16.668  0.00  0.00    +0.000 OA
ENDROOT
BRANCH   3   8
ATOM      8  C   UNL     1       3.575   3.931  17.776  0.00  0.00    +0.000 A 
ATOM      9  C   UNL     1       4.630   3.615  18.651  0.00  0.00    +0.000 A 
ATOM     10  C   UNL     1       4.425   2.765  19.737  0.00  0.00    +0.000 A 
ATOM     11  C   UNL     1       3.173   2.195  19.948  0.00  0.00    +0.000 A 
ATOM     12  C   UNL     1       2.133   2.463  19.063  0.00  0.00    +0.000 A 
ATOM     13 CL   UNL     1       0.584   1.763  19.326  0.00  0.00    +0.000 Cl
ATOM     14  C   UNL     1       2.327   3.319  17.982  0.00  0.00    +0.000 A 
ENDBRANCH   3   8
BRANCH   4  15
ATOM     15  C   UNL     1       3.230   7.171  17.924  0.00  0.00    +0.000 A 
ATOM     16  C   UNL     1       2.644   8.401  17.536  0.00  0.00    +0.000 A 
ATOM     17  C   UNL     1       1.771   9.128  18.355  0.00  0.00    +0.000 A 
ATOM     18  C   UNL     1       1.467   8.649  19.615  0.00  0.00    +0.000 A 
ATOM     19 CL   UNL     1       0.396   9.538  20.626  0.00  0.00    +0.000 Cl
ATOM     20  C   UNL     1       2.055   7.479  20.066  0.00  0.00    +0.000 A 
ATOM     21  C   UNL     1       2.956   6.774  19.245  0.00  0.00    +0.000 A 
ENDBRANCH   4  15
BRANCH   1  22
ATOM     22  C   UNL     1       6.493   3.659  14.691  0.00  0.00    +0.000 C 
BRANCH  22  23
ATOM     23  C   UNL     1       6.186   4.338  13.361  0.00  0.00    +0.000 C 
BRANCH  23  25
ATOM     24  O   UNL     1       6.788   2.632  11.778  0.00  0.00    +0.000 OA
ATOM     25  C   UNL     1       5.929   3.350  12.264  0.00  0.00    +0.000 C 
BRANCH  25  26
ATOM     26  O   UNL     1       4.653   3.369  11.822  0.00  0.00    +0.000 OA
ATOM     27  H   UNL     1       4.353   2.514  11.449  0.00  0.00    +0.000 HD
ENDBRANCH  25  26
ENDBRANCH  23  25
ENDBRANCH  22  23
ENDBRANCH   1  22
BRANCH   5  28
ATOM     28  C   UNL     1       6.305   7.624  17.801  0.00  0.00    +0.000 C 
BRANCH  28  29
ATOM     29  C   UNL     1       7.757   7.954  17.588  0.00  0.00    +0.000 C 
ATOM     30  C   UNL     1       8.176   9.403  17.757  0.00  0.00    +0.000 C 
ATOM     31  C   UNL     1       8.645   8.372  18.737  0.00  0.00    +0.000 C 
ENDBRANCH  28  29
ENDBRANCH   5  28
TORSDOF 8
ENDMDL
MODEL 7
REMARK VINA RESULT:      -7.3      1.423      1.973
REMARK  Name = 
REMARK  8 active torsions:
REMARK  status: ('A' for Active; 'I' for Inactive)
REMARK    1  A    between atoms: C_2  and  O_3
REMARK    2  A    between atoms: C_2  and  C_4
REMARK    3  A    between atoms: C_4  and  C_5
REMARK    4  A    between atoms: C_5  and  C_6
REMARK    5  A    between atoms: C_8  and  C_9
REMARK    6  A    between atoms: C_16  and  C_17
REMARK    7  A    between atoms: N_24  and  C_25
REMARK    8  A    between atoms: C_25  and  C_26
REMARK                            x       y       z     vdW  Elec       q    Type
REMARK                         _______ _______ _______ _____ _____    ______ ____
ROOT
ATOM      1  C   UNL     1       5.620   3.853  16.198  0.00  0.00    +0.000 C 
ATOM      2  O   UNL     1       4.384   4.308  15.669  0.00  0.00    +0.000 OA
ATOM      3  C   UNL     1       3.575   4.898  16.685  0.00  0.00    +0.000 C 
ATOM      4  C   UNL     1       4.266   6.210  17.199  0.00  0.00    +0.000 C 
ATOM      5  N   UNL     1       5.673   5.912  17.709  0.00  0.00    +0.000 N 
ATOM      6  C   UNL     1       6.411   4.894  17.049  0.00  0.00    +0.000 C 
ATOM      7  O   UNL     1       7.614   4.689  17.226  0.00  0.00    +0.000 OA
ENDROOT
BRANCH   3   8
ATOM      8  C   UNL     1       3.147   3.841  17.700  0.00  0.00    +0.000 A 
ATOM      9  C   UNL     1       1.863   3.268  17.721  0.00  0.00    +0.000 A 
ATOM     10  C   UNL     1       1.564   2.217  18.588  0.00  0.00    +0.000 A 
ATOM     11  C   UNL     1       2.534   1.743  19.467  0.00  0.00    +0.000 A 
ATOM     12  C   UNL     1       3.795   2.333  19.489  0.00  0.00    +0.000 A 
ATOM     13 CL   UNL     1       4.995   1.745  20.572  0.00  0.00    +0.000 Cl
ATOM     14  C   UNL     1       4.103   3.375  18.619  0.00  0.00    +0.000 A 
ENDBRANCH   3   8
BRANCH   4  15
ATOM     15  C   UNL     1       3.291   7.078  18.065  0.00  0.00    +0.000 A 
ATOM     16  C   UNL     1       2.821   8.340  17.624  0.00  0.00    +0.000 A 
ATOM     17  C   UNL     1       1.967   9.150  18.383  0.00  0.00    +0.000 A 
ATOM     18  C   UNL     1       1.565   8.724  19.635  0.00  0.00    +0.000 A 
ATOM     19 CL   UNL     1       0.517   9.716  20.573  0.00  0.00    +0.000 Cl
ATOM     20  C   UNL     1       2.037   7.524  20.137  0.00  0.00    +0.000 A 
ATOM     21  C   UNL     1       2.921   6.734  19.378  0.00  0.00    +0.000 A 
ENDBRANCH   4  15
BRANCH   1  22
ATOM     22  C   UNL     1       6.368   3.280  14.977  0.00  0.00    +0.000 C 
BRANCH  22  23
ATOM     23  C   UNL     1       6.129   3.925  13.616  0.00  0.00    +0.000 C 
BRANCH  23  25
ATOM     24  O   UNL     1       7.864   5.554  13.951  0.00  0.00    +0.000 OA
ATOM     25  C   UNL     1       7.267   4.804  13.195  0.00  0.00    +0.000 C 
BRANCH  25  26
ATOM     26  O   UNL     1       7.535   4.728  11.874  0.00  0.00    +0.000 OA
ATOM     27  H   UNL     1       7.761   5.591  11.469  0.00  0.00    +0.000 HD
ENDBRANCH  25  26
ENDBRANCH  23  25
ENDBRANCH  22  23
ENDBRANCH   1  22
BRANCH   5  28
ATOM     28  C   UNL     1       6.388   7.029  18.350  0.00  0.00    +0.000 C 
BRANCH  28  29
ATOM     29  C   UNL     1       7.648   7.611  17.769  0.00  0.00    +0.000 C 
ATOM     30  C   UNL     1       7.711   9.119  17.608  0.00  0.00    +0.000 C 
ATOM     31  C   UNL     1       8.591   8.439  18.611  0.00  0.00    +0.000 C 
ENDBRANCH  28  29
ENDBRANCH   5  28
TORSDOF 8
ENDMDL
MODEL 8
REMARK VINA RESULT:      -6.9      6.404      9.907
REMARK  Name = 
REMARK  8 active torsions:
REMARK  status: ('A' for Active; 'I' for Inactive)
REMARK    1  A    between atoms: C_2  and  O_3
REMARK    2  A    between atoms: C_2  and  C_4
REMARK    3  A    between atoms: C_4  and  C_5
REMARK    4  A    between atoms: C_5  and  C_6
REMARK    5  A    between atoms: C_8  and  C_9
REMARK    6  A    between atoms: C_16  and  C_17
REMARK    7  A    between atoms: N_24  and  C_25
REMARK    8  A    between atoms: C_25  and  C_26
REMARK                            x       y       z     vdW  Elec       q    Type
REMARK                         _______ _______ _______ _____ _____    ______ ____
ROOT
ATOM      1  C   UNL     1       0.065   9.372  20.699  0.00  0.00    +0.000 C 
ATOM      2  O   UNL     1       0.867  10.106  19.787  0.00  0.00    +0.000 OA
ATOM      3  C   UNL     1       0.213  11.307  19.379  0.00  0.00    +0.000 C 
ATOM      4  C   UNL     1       0.078  12.267  20.613  0.00  0.00    +0.000 C 
ATOM      5  N   UNL     1      -0.677  11.580  21.748  0.00  0.00    +0.000 N 
ATOM      6  C   UNL     1      -0.490  10.182  21.912  0.00  0.00    +0.000 C 
ATOM      7  O   UNL     1      -0.876   9.544  22.894  0.00  0.00    +0.000 OA
ENDROOT
BRANCH   3   8
ATOM      8  C   UNL     1      -1.030  10.978  18.556  0.00  0.00    +0.000 A 
ATOM      9  C   UNL     1      -1.034  10.044  17.505  0.00  0.00    +0.000 A 
ATOM     10  C   UNL     1      -2.224   9.689  16.870  0.00  0.00    +0.000 A 
ATOM     11  C   UNL     1      -3.422  10.285  17.254  0.00  0.00    +0.000 A 
ATOM     12  C   UNL     1      -3.425  11.245  18.262  0.00  0.00    +0.000 A 
ATOM     13 CL   UNL     1      -4.905  11.978  18.740  0.00  0.00    +0.000 Cl
ATOM     14  C   UNL     1      -2.242  11.596  18.907  0.00  0.00    +0.000 A 
ENDBRANCH   3   8
BRANCH   4  15
ATOM     15  C   UNL     1      -0.322  13.718  20.177  0.00  0.00    +0.000 A 
ATOM     16  C   UNL     1       0.351  14.397  19.131  0.00  0.00    +0.000 A 
ATOM     17  C   UNL     1       0.034  15.701  18.733  0.00  0.00    +0.000 A 
ATOM     18  C   UNL     1      -0.971  16.385  19.391  0.00  0.00    +0.000 A 
ATOM     19 CL   UNL     1      -1.364  17.989  18.906  0.00  0.00    +0.000 Cl
ATOM     20  C   UNL     1      -1.624  15.789  20.455  0.00  0.00    +0.000 A 
ATOM     21  C   UNL     1      -1.274  14.490  20.868  0.00  0.00    +0.000 A 
ENDBRANCH   4  15
BRANCH   1  22
ATOM     22  C   UNL     1       0.922   8.140  21.054  0.00  0.00    +0.000 C 
BRANCH  22  23
ATOM     23  C   UNL     1       1.961   7.668  20.042  0.00  0.00    +0.000 C 
BRANCH  23  25
ATOM     24  O   UNL     1       2.092   5.478  19.062  0.00  0.00    +0.000 OA
ATOM     25  C   UNL     1       2.137   6.181  20.059  0.00  0.00    +0.000 C 
BRANCH  25  26
ATOM     26  O   UNL     1       2.296   5.679  21.302  0.00  0.00    +0.000 OA
ATOM     27  H   UNL     1       2.252   4.701  21.340  0.00  0.00    +0.000 HD
ENDBRANCH  25  26
ENDBRANCH  23  25
ENDBRANCH  22  23
ENDBRANCH   1  22
BRANCH   5  28
ATOM     28  C   UNL     1      -0.999  12.413  22.918  0.00  0.00    +0.000 C 
BRANCH  28  29
ATOM     29  C   UNL     1      -2.336  12.347  23.605  0.00  0.00    +0.000 C 
ATOM     30  C   UNL     1      -3.075  13.654  23.822  0.00  0.00    +0.000 C 
ATOM     31  C   UNL     1      -3.617  12.641  22.860  0.00  0.00    +0.000 C 
ENDBRANCH  28  29
ENDBRANCH   5  28
TORSDOF 8
ENDMDL
MODEL 9
REMARK VINA RESULT:      -6.8      7.264     10.802
REMARK  Name = 
REMARK  8 active torsions:
REMARK  status: ('A' for Active; 'I' for Inactive)
REMARK    1  A    between atoms: C_2  and  O_3
REMARK    2  A    between atoms: C_2  and  C_4
REMARK    3  A    between atoms: C_4  and  C_5
REMARK    4  A    between atoms: C_5  and  C_6
REMARK    5  A    between atoms: C_8  and  C_9
REMARK    6  A    between atoms: C_16  and  C_17
REMARK    7  A    between atoms: N_24  and  C_25
REMARK    8  A    between atoms: C_25  and  C_26
REMARK                            x       y       z     vdW  Elec       q    Type
REMARK                         _______ _______ _______ _____ _____    ______ ____
ROOT
ATOM      1  C   UNL     1      -1.955  13.366  20.223  0.00  0.00    +0.000 C 
ATOM      2  O   UNL     1      -2.107  12.077  20.797  0.00  0.00    +0.000 OA
ATOM      3  C   UNL     1      -1.420  11.089  20.031  0.00  0.00    +0.000 C 
ATOM      4  C   UNL     1       0.125  11.353  20.111  0.00  0.00    +0.000 C 
ATOM      5  N   UNL     1       0.455  12.762  19.626  0.00  0.00    +0.000 N 
ATOM      6  C   UNL     1      -0.489  13.788  19.895  0.00  0.00    +0.000 C 
ATOM      7  O   UNL     1      -0.264  14.991  19.739  0.00  0.00    +0.000 OA
ENDROOT
BRANCH   3   8
ATOM      8  C   UNL     1      -2.075  10.934  18.660  0.00  0.00    +0.000 A 
ATOM      9  C   UNL     1      -1.562  10.099  17.651  0.00  0.00    +0.000 A 
ATOM     10  C   UNL     1      -2.268   9.898  16.465  0.00  0.00    +0.000 A 
ATOM     11  C   UNL     1      -3.479  10.551  16.257  0.00  0.00    +0.000 A 
ATOM     12  C   UNL     1      -3.975  11.415  17.228  0.00  0.00    +0.000 A 
ATOM     13 CL   UNL     1      -5.475  12.218  16.974  0.00  0.00    +0.000 Cl
ATOM     14  C   UNL     1      -3.281  11.613  18.419  0.00  0.00    +0.000 A 
ENDBRANCH   3   8
BRANCH   4  15
ATOM     15  C   UNL     1       0.950  10.132  19.578  0.00  0.00    +0.000 A 
ATOM     16  C   UNL     1       1.460  10.094  18.257  0.00  0.00    +0.000 A 
ATOM     17  C   UNL     1       2.181   9.009  17.743  0.00  0.00    +0.000 A 
ATOM     18  C   UNL     1       2.401   7.902  18.541  0.00  0.00    +0.000 A 
ATOM     19 CL   UNL     1       3.286   6.566  17.914  0.00  0.00    +0.000 Cl
ATOM     20  C   UNL     1       1.878   7.864  19.822  0.00  0.00    +0.000 A 
ATOM     21  C   UNL     1       1.127   8.947  20.316  0.00  0.00    +0.000 A 
ENDBRANCH   4  15
BRANCH   1  22
ATOM     22  C   UNL     1      -2.722  14.301  21.180  0.00  0.00    +0.000 C 
BRANCH  22  23
ATOM     23  C   UNL     1      -3.190  13.739  22.518  0.00  0.00    +0.000 C 
BRANCH  23  25
ATOM     24  O   UNL     1      -5.219  12.453  22.567  0.00  0.00    +0.000 OA
ATOM     25  C   UNL     1      -4.674  13.545  22.565  0.00  0.00    +0.000 C 
BRANCH  25  26
ATOM     26  O   UNL     1      -5.362  14.707  22.551  0.00  0.00    +0.000 OA
ATOM     27  H   UNL     1      -6.265  14.635  22.925  0.00  0.00    +0.000 HD
ENDBRANCH  25  26
ENDBRANCH  23  25
ENDBRANCH  22  23
ENDBRANCH   1  22
BRANCH   5  28
ATOM     28  C   UNL     1       1.884  13.098  19.516  0.00  0.00    +0.000 C 
BRANCH  28  29
ATOM     29  C   UNL     1       2.489  13.616  18.240  0.00  0.00    +0.000 C 
ATOM     30  C   UNL     1       2.794  15.100  18.162  0.00  0.00    +0.000 C 
ATOM     31  C   UNL     1       3.916  14.109  18.190  0.00  0.00    +0.000 C 
ENDBRANCH  28  29
ENDBRANCH   5  28
TORSDOF 8
ENDMDL
