MODEL 1
REMARK VINA RESULT:      -8.6      0.000      0.000
REMARK  Name = 
REMARK  3 active torsions:
REMARK  status: ('A' for Active; 'I' for Inactive)
REMARK    1  A    between atoms: C_1  and  N_2
REMARK    2  A    between atoms: C_5  and  C_6
REMARK    3  A    between atoms: C_14  and  C_16
REMARK                            x       y       z     vdW  Elec       q    Type
REMARK                         _______ _______ _______ _____ _____    ______ ____
ROOT
ATOM      1  C   UNL     1       4.222   3.553  18.337  0.00  0.00    +0.000 A 
ATOM      2  C   UNL     1       4.146   2.181  18.170  0.00  0.00    +0.000 A 
ATOM      3  O   UNL     1       3.038   1.666  18.762  0.00  0.00    +0.000 OA
ATOM      4  C   UNL     1       2.379   2.715  19.318  0.00  0.00    +0.000 A 
ATOM      5  C   UNL     1       1.192   2.665  20.030  0.00  0.00    +0.000 A 
ATOM      6  C   UNL     1       0.732   3.904  20.489  0.00  0.00    +0.000 A 
ATOM      7  C   UNL     1       1.454   5.076  20.219  0.00  0.00    +0.000 A 
ATOM      8  N   UNL     1       0.918   6.287  20.703  0.00  0.00    +0.000 N 
ATOM      9  C   UNL     1       1.514   7.522  20.536  0.00  0.00    +0.000 C 
ATOM     10  O   UNL     1       2.563   7.745  19.946  0.00  0.00    +0.000 OA
ATOM     11  N   UNL     1       2.609   5.094  19.526  0.00  0.00    +0.000 NA
ATOM     12  C   UNL     1       3.061   3.898  19.082  0.00  0.00    +0.000 A 
ATOM     13  H   UNL     1       0.056   6.231  21.231  0.00  0.00    +0.000 HD
ENDROOT
BRANCH   9  14
ATOM     14  C   UNL     1       0.799   8.718  21.077  0.00  0.00    +0.000 A 
ATOM     15  C   UNL     1       0.587   8.722  22.473  0.00  0.00    +0.000 A 
ATOM     16  C   UNL     1      -0.121   9.752  23.092  0.00  0.00    +0.000 A 
ATOM     17  C   UNL     1      -0.634  10.779  22.316  0.00  0.00    +0.000 A 
ATOM     18  F   UNL     1      -1.329  11.763  22.900  0.00  0.00    +0.000 F 
ATOM     19  C   UNL     1      -0.447  10.797  20.938  0.00  0.00    +0.000 A 
ATOM     20  C   UNL     1       0.272   9.770  20.313  0.00  0.00    +0.000 A 
ATOM     21 CL   UNL     1       0.419   9.866  18.594  0.00  0.00    +0.000 Cl
ENDBRANCH   9  14
BRANCH   1  26
ATOM     22  C   UNL     1       7.700   7.997  17.339  0.00  0.00    +0.000 C 
ATOM     23  N   UNL     1       6.666   7.063  17.790  0.00  0.00    +0.000 NA
ATOM     24  C   UNL     1       5.838   6.635  16.654  0.00  0.00    +0.000 C 
ATOM     25  C   UNL     1       4.734   5.678  17.100  0.00  0.00    +0.000 C 
ATOM     26  C   UNL     1       5.312   4.454  17.831  0.00  0.00    +0.000 C 
ATOM     27  C   UNL     1       6.224   4.932  18.972  0.00  0.00    +0.000 C 
ATOM     28  C   UNL     1       7.282   5.912  18.466  0.00  0.00    +0.000 C 
ENDBRANCH   1  26
TORSDOF 2
ENDMDL
MODEL 2
REMARK VINA RESULT:      -8.5      1.427      1.774
REMARK  Name = 
REMARK  3 active torsions:
REMARK  status: ('A' for Active; 'I' for Inactive)
REMARK    1  A    between atoms: C_1  and  N_2
REMARK    2  A    between atoms: C_5  and  C_6
REMARK    3  A    between atoms: C_14  and  C_16
REMARK                            x       y       z     vdW  Elec       q    Type
REMARK                         _______ _______ _______ _____ _____    ______ ____
ROOT
ATOM      1  C   UNL     1       4.037   3.368  17.840  0.00  0.00    +0.000 A 
ATOM      2  C   UNL     1       4.103   1.990  17.953  0.00  0.00    +0.000 A 
ATOM      3  O   UNL     1       3.364   1.537  18.996  0.00  0.00    +0.000 OA
ATOM      4  C   UNL     1       2.803   2.632  19.571  0.00  0.00    +0.000 A 
ATOM      5  C   UNL     1       1.966   2.653  20.676  0.00  0.00    +0.000 A 
ATOM      6  C   UNL     1       1.528   3.927  21.054  0.00  0.00    +0.000 A 
ATOM      7  C   UNL     1       1.932   5.061  20.335  0.00  0.00    +0.000 A 
ATOM      8  N   UNL     1       1.435   6.307  20.770  0.00  0.00    +0.000 N 
ATOM      9  C   UNL     1       1.751   7.517  20.182  0.00  0.00    +0.000 C 
ATOM     10  O   UNL     1       2.478   7.682  19.211  0.00  0.00    +0.000 OA
ATOM     11  N   UNL     1       2.750   5.012  19.266  0.00  0.00    +0.000 NA
ATOM     12  C   UNL     1       3.180   3.783  18.897  0.00  0.00    +0.000 A 
ATOM     13  H   UNL     1       0.835   6.305  21.585  0.00  0.00    +0.000 HD
ENDROOT
BRANCH   9  14
ATOM     14  C   UNL     1       1.112   8.749  20.738  0.00  0.00    +0.000 A 
ATOM     15  C   UNL     1       0.993   8.792  22.144  0.00  0.00    +0.000 A 
ATOM     16  C   UNL     1       0.361   9.859  22.783  0.00  0.00    +0.000 A 
ATOM     17  C   UNL     1      -0.169  10.884  22.017  0.00  0.00    +0.000 A 
ATOM     18  F   UNL     1      -0.792  11.904  22.621  0.00  0.00    +0.000 F 
ATOM     19  C   UNL     1      -0.074  10.865  20.629  0.00  0.00    +0.000 A 
ATOM     20  C   UNL     1       0.569   9.800  19.985  0.00  0.00    +0.000 A 
ATOM     21 CL   UNL     1       0.604   9.852  18.257  0.00  0.00    +0.000 Cl
ENDBRANCH   9  14
BRANCH   1  26
ATOM     22  C   UNL     1       7.667   5.407  13.903  0.00  0.00    +0.000 C 
ATOM     23  N   UNL     1       6.933   4.635  14.908  0.00  0.00    +0.000 NA
ATOM     24  C   UNL     1       6.903   5.364  16.184  0.00  0.00    +0.000 C 
ATOM     25  C   UNL     1       6.164   4.571  17.259  0.00  0.00    +0.000 C 
ATOM     26  C   UNL     1       4.736   4.215  16.814  0.00  0.00    +0.000 C 
ATOM     27  C   UNL     1       4.794   3.512  15.448  0.00  0.00    +0.000 C 
ATOM     28  C   UNL     1       5.575   4.340  14.429  0.00  0.00    +0.000 C 
ENDBRANCH   1  26
TORSDOF 2
ENDMDL
MODEL 3
REMARK VINA RESULT:      -8.0      2.578      3.300
REMARK  Name = 
REMARK  3 active torsions:
REMARK  status: ('A' for Active; 'I' for Inactive)
REMARK    1  A    between atoms: C_1  and  N_2
REMARK    2  A    between atoms: C_5  and  C_6
REMARK    3  A    between atoms: C_14  and  C_16
REMARK                            x       y       z     vdW  Elec       q    Type
REMARK                         _______ _______ _______ _____ _____    ______ ____
ROOT
ATOM      1  C   UNL     1       4.017   4.908  18.184  0.00  0.00    +0.000 A 
ATOM      2  C   UNL     1       4.097   3.717  18.884  0.00  0.00    +0.000 A 
ATOM      3  O   UNL     1       3.355   3.753  20.020  0.00  0.00    +0.000 OA
ATOM      4  C   UNL     1       2.778   4.981  20.061  0.00  0.00    +0.000 A 
ATOM      5  C   UNL     1       1.933   5.469  21.045  0.00  0.00    +0.000 A 
ATOM      6  C   UNL     1       1.478   6.774  20.831  0.00  0.00    +0.000 A 
ATOM      7  C   UNL     1       1.875   7.489  19.691  0.00  0.00    +0.000 A 
ATOM      8  N   UNL     1       1.361   8.794  19.540  0.00  0.00    +0.000 N 
ATOM      9  C   UNL     1       1.668   9.632  18.486  0.00  0.00    +0.000 C 
ATOM     10  O   UNL     1       2.400   9.368  17.541  0.00  0.00    +0.000 OA
ATOM     11  N   UNL     1       2.701   6.991  18.751  0.00  0.00    +0.000 NA
ATOM     12  C   UNL     1       3.148   5.729  18.954  0.00  0.00    +0.000 A 
ATOM     13  H   UNL     1       0.754   9.138  20.274  0.00  0.00    +0.000 HD
ENDROOT
BRANCH   9  14
ATOM     14  C   UNL     1       1.011  10.974  18.450  0.00  0.00    +0.000 A 
ATOM     15  C   UNL     1       1.876  12.080  18.597  0.00  0.00    +0.000 A 
ATOM     16  C   UNL     1       1.380  13.384  18.642  0.00  0.00    +0.000 A 
ATOM     17  C   UNL     1       0.013  13.588  18.553  0.00  0.00    +0.000 A 
ATOM     18  F   UNL     1      -0.473  14.834  18.611  0.00  0.00    +0.000 F 
ATOM     19  C   UNL     1      -0.864  12.517  18.416  0.00  0.00    +0.000 A 
ATOM     20  C   UNL     1      -0.369  11.207  18.360  0.00  0.00    +0.000 A 
ATOM     21 CL   UNL     1      -1.542   9.945  18.223  0.00  0.00    +0.000 Cl
ENDBRANCH   9  14
BRANCH   1  26
ATOM     22  C   UNL     1       7.601   5.015  13.714  0.00  0.00    +0.000 C 
ATOM     23  N   UNL     1       6.870   4.751  14.955  0.00  0.00    +0.000 NA
ATOM     24  C   UNL     1       6.900   5.936  15.823  0.00  0.00    +0.000 C 
ATOM     25  C   UNL     1       6.165   5.681  17.137  0.00  0.00    +0.000 C 
ATOM     26  C   UNL     1       4.714   5.234  16.893  0.00  0.00    +0.000 C 
ATOM     27  C   UNL     1       4.711   4.034  15.932  0.00  0.00    +0.000 C 
ATOM     28  C   UNL     1       5.490   4.343  14.655  0.00  0.00    +0.000 C 
ENDBRANCH   1  26
TORSDOF 2
ENDMDL
MODEL 4
REMARK VINA RESULT:      -7.9      4.097      8.474
REMARK  Name = 
REMARK  3 active torsions:
REMARK  status: ('A' for Active; 'I' for Inactive)
REMARK    1  A    between atoms: C_1  and  N_2
REMARK    2  A    between atoms: C_5  and  C_6
REMARK    3  A    between atoms: C_14  and  C_16
REMARK                            x       y       z     vdW  Elec       q    Type
REMARK                         _______ _______ _______ _____ _____    ______ ____
ROOT
ATOM      1  C   UNL     1      -1.287  11.073  19.938  0.00  0.00    +0.000 A 
ATOM      2  C   UNL     1      -1.727  11.748  21.064  0.00  0.00    +0.000 A 
ATOM      3  O   UNL     1      -1.074  11.338  22.181  0.00  0.00    +0.000 OA
ATOM      4  C   UNL     1      -0.192  10.386  21.780  0.00  0.00    +0.000 A 
ATOM      5  C   UNL     1       0.690   9.681  22.583  0.00  0.00    +0.000 A 
ATOM      6  C   UNL     1       1.491   8.758  21.903  0.00  0.00    +0.000 A 
ATOM      7  C   UNL     1       1.371   8.598  20.515  0.00  0.00    +0.000 A 
ATOM      8  N   UNL     1       2.224   7.658  19.900  0.00  0.00    +0.000 N 
ATOM      9  C   UNL     1       2.219   7.372  18.549  0.00  0.00    +0.000 C 
ATOM     10  O   UNL     1       1.503   7.889  17.702  0.00  0.00    +0.000 OA
ATOM     11  N   UNL     1       0.502   9.295  19.759  0.00  0.00    +0.000 NA
ATOM     12  C   UNL     1      -0.279  10.188  20.411  0.00  0.00    +0.000 A 
ATOM     13  H   UNL     1       2.854   7.144  20.503  0.00  0.00    +0.000 HD
ENDROOT
BRANCH   9  14
ATOM     14  C   UNL     1       3.213   6.375  18.045  0.00  0.00    +0.000 A 
ATOM     15  C   UNL     1       4.396   6.916  17.497  0.00  0.00    +0.000 A 
ATOM     16  C   UNL     1       5.375   6.094  16.939  0.00  0.00    +0.000 A 
ATOM     17  C   UNL     1       5.169   4.724  16.912  0.00  0.00    +0.000 A 
ATOM     18  F   UNL     1       6.097   3.929  16.364  0.00  0.00    +0.000 F 
ATOM     19  C   UNL     1       4.010   4.163  17.438  0.00  0.00    +0.000 A 
ATOM     20  C   UNL     1       3.029   4.985  18.009  0.00  0.00    +0.000 A 
ATOM     21 CL   UNL     1       1.611   4.194  18.602  0.00  0.00    +0.000 Cl
ENDBRANCH   9  14
BRANCH   1  26
ATOM     22  C   UNL     1      -4.030  10.527  14.937  0.00  0.00    +0.000 C 
ATOM     23  N   UNL     1      -3.498  10.411  16.296  0.00  0.00    +0.000 NA
ATOM     24  C   UNL     1      -2.047  10.182  16.255  0.00  0.00    +0.000 C 
ATOM     25  C   UNL     1      -1.467  10.033  17.660  0.00  0.00    +0.000 C 
ATOM     26  C   UNL     1      -1.790  11.256  18.535  0.00  0.00    +0.000 C 
ATOM     27  C   UNL     1      -3.306  11.509  18.508  0.00  0.00    +0.000 C 
ATOM     28  C   UNL     1      -3.827  11.614  17.075  0.00  0.00    +0.000 C 
ENDBRANCH   1  26
TORSDOF 2
ENDMDL
MODEL 5
REMARK VINA RESULT:      -7.8      1.950      2.501
REMARK  Name = 
REMARK  3 active torsions:
REMARK  status: ('A' for Active; 'I' for Inactive)
REMARK    1  A    between atoms: C_1  and  N_2
REMARK    2  A    between atoms: C_5  and  C_6
REMARK    3  A    between atoms: C_14  and  C_16
REMARK                            x       y       z     vdW  Elec       q    Type
REMARK                         _______ _______ _______ _____ _____    ______ ____
ROOT
ATOM      1  C   UNL     1       4.497   3.844  18.289  0.00  0.00    +0.000 A 
ATOM      2  C   UNL     1       4.699   2.534  18.689  0.00  0.00    +0.000 A 
ATOM      3  O   UNL     1       3.970   2.230  19.793  0.00  0.00    +0.000 OA
ATOM      4  C   UNL     1       3.279   3.354  20.117  0.00  0.00    +0.000 A 
ATOM      5  C   UNL     1       2.404   3.512  21.179  0.00  0.00    +0.000 A 
ATOM      6  C   UNL     1       1.825   4.782  21.275  0.00  0.00    +0.000 A 
ATOM      7  C   UNL     1       2.138   5.780  20.341  0.00  0.00    +0.000 A 
ATOM      8  N   UNL     1       1.501   7.029  20.497  0.00  0.00    +0.000 N 
ATOM      9  C   UNL     1       1.714   8.117  19.673  0.00  0.00    +0.000 C 
ATOM     10  O   UNL     1       2.456   8.155  18.701  0.00  0.00    +0.000 OA
ATOM     11  N   UNL     1       2.996   5.599  19.319  0.00  0.00    +0.000 NA
ATOM     12  C   UNL     1       3.563   4.373  19.222  0.00  0.00    +0.000 A 
ATOM     13  H   UNL     1       0.873   7.130  21.284  0.00  0.00    +0.000 HD
ENDROOT
BRANCH   9  14
ATOM     14  C   UNL     1       0.932   9.361  19.949  0.00  0.00    +0.000 A 
ATOM     15  C   UNL     1       0.404  10.014  18.814  0.00  0.00    +0.000 A 
ATOM     16  C   UNL     1      -0.293  11.216  18.932  0.00  0.00    +0.000 A 
ATOM     17  C   UNL     1      -0.454  11.782  20.186  0.00  0.00    +0.000 A 
ATOM     18  F   UNL     1      -1.108  12.944  20.306  0.00  0.00    +0.000 F 
ATOM     19  C   UNL     1       0.062  11.166  21.321  0.00  0.00    +0.000 A 
ATOM     20  C   UNL     1       0.754   9.953  21.208  0.00  0.00    +0.000 A 
ATOM     21 CL   UNL     1       1.386   9.287  22.673  0.00  0.00    +0.000 Cl
ENDBRANCH   9  14
BRANCH   1  26
ATOM     22  C   UNL     1       7.578   5.072  13.616  0.00  0.00    +0.000 C 
ATOM     23  N   UNL     1       6.911   4.468  14.772  0.00  0.00    +0.000 NA
ATOM     24  C   UNL     1       7.340   5.133  16.010  0.00  0.00    +0.000 C 
ATOM     25  C   UNL     1       6.678   4.507  17.235  0.00  0.00    +0.000 C 
ATOM     26  C   UNL     1       5.145   4.530  17.120  0.00  0.00    +0.000 C 
ATOM     27  C   UNL     1       4.729   3.886  15.788  0.00  0.00    +0.000 C 
ATOM     28  C   UNL     1       5.452   4.534  14.608  0.00  0.00    +0.000 C 
ENDBRANCH   1  26
TORSDOF 2
ENDMDL
MODEL 6
REMARK VINA RESULT:      -7.7      4.327      8.592
REMARK  Name = 
REMARK  3 active torsions:
REMARK  status: ('A' for Active; 'I' for Inactive)
REMARK    1  A    between atoms: C_1  and  N_2
REMARK    2  A    between atoms: C_5  and  C_6
REMARK    3  A    between atoms: C_14  and  C_16
REMARK                            x       y       z     vdW  Elec       q    Type
REMARK                         _______ _______ _______ _____ _____    ______ ____
ROOT
ATOM      1  C   UNL     1      -1.794  11.425  19.177  0.00  0.00    +0.000 A 
ATOM      2  C   UNL     1      -2.395  12.250  20.113  0.00  0.00    +0.000 A 
ATOM      3  O   UNL     1      -1.855  12.085  21.347  0.00  0.00    +0.000 OA
ATOM      4  C   UNL     1      -0.884  11.144  21.216  0.00  0.00    +0.000 A 
ATOM      5  C   UNL     1      -0.064  10.653  22.219  0.00  0.00    +0.000 A 
ATOM      6  C   UNL     1       0.856   9.685  21.801  0.00  0.00    +0.000 A 
ATOM      7  C   UNL     1       0.905   9.282  20.459  0.00  0.00    +0.000 A 
ATOM      8  N   UNL     1       1.871   8.314  20.114  0.00  0.00    +0.000 N 
ATOM      9  C   UNL     1       2.036   7.800  18.842  0.00  0.00    +0.000 C 
ATOM     10  O   UNL     1       1.395   8.112  17.847  0.00  0.00    +0.000 OA
ATOM     11  N   UNL     1       0.093   9.775  19.504  0.00  0.00    +0.000 NA
ATOM     12  C   UNL     1      -0.803  10.709  19.902  0.00  0.00    +0.000 A 
ATOM     13  H   UNL     1       2.453   7.957  20.861  0.00  0.00    +0.000 HD
ENDROOT
BRANCH   9  14
ATOM     14  C   UNL     1       3.131   6.805  18.631  0.00  0.00    +0.000 A 
ATOM     15  C   UNL     1       4.015   7.088  17.567  0.00  0.00    +0.000 A 
ATOM     16  C   UNL     1       5.042   6.207  17.229  0.00  0.00    +0.000 A 
ATOM     17  C   UNL     1       5.183   5.029  17.944  0.00  0.00    +0.000 A 
ATOM     18  F   UNL     1       6.156   4.171  17.615  0.00  0.00    +0.000 F 
ATOM     19  C   UNL     1       4.322   4.720  18.992  0.00  0.00    +0.000 A 
ATOM     20  C   UNL     1       3.295   5.607  19.341  0.00  0.00    +0.000 A 
ATOM     21 CL   UNL     1       2.259   5.115  20.634  0.00  0.00    +0.000 Cl
ENDBRANCH   9  14
BRANCH   1  26
ATOM     22  C   UNL     1      -4.017   9.918  14.116  0.00  0.00    +0.000 C 
ATOM     23  N   UNL     1      -3.634  10.071  15.520  0.00  0.00    +0.000 NA
ATOM     24  C   UNL     1      -2.195   9.821  15.683  0.00  0.00    +0.000 C 
ATOM     25  C   UNL     1      -1.771   9.950  17.145  0.00  0.00    +0.000 C 
ATOM     26  C   UNL     1      -2.142  11.328  17.719  0.00  0.00    +0.000 C 
ATOM     27  C   UNL     1      -3.637  11.588  17.477  0.00  0.00    +0.000 C 
ATOM     28  C   UNL     1      -4.002  11.409  16.004  0.00  0.00    +0.000 C 
ENDBRANCH   1  26
TORSDOF 2
ENDMDL
MODEL 7
REMARK VINA RESULT:      -7.7      4.264      8.200
REMARK  Name = 
REMARK  3 active torsions:
REMARK  status: ('A' for Active; 'I' for Inactive)
REMARK    1  A    between atoms: C_1  and  N_2
REMARK    2  A    between atoms: C_5  and  C_6
REMARK    3  A    between atoms: C_14  and  C_16
REMARK                            x       y       z     vdW  Elec       q    Type
REMARK                         _______ _______ _______ _____ _____    ______ ____
ROOT
ATOM      1  C   UNL     1       0.261  12.538  21.058  0.00  0.00    +0.000 A 
ATOM      2  C   UNL     1      -0.459  13.079  22.110  0.00  0.00    +0.000 A 
ATOM      3  O   UNL     1      -0.841  12.126  22.998  0.00  0.00    +0.000 OA
ATOM      4  C   UNL     1      -0.360  10.948  22.524  0.00  0.00    +0.000 A 
ATOM      5  C   UNL     1      -0.509   9.698  23.103  0.00  0.00    +0.000 A 
ATOM      6  C   UNL     1       0.095   8.651  22.398  0.00  0.00    +0.000 A 
ATOM      7  C   UNL     1       0.787   8.902  21.205  0.00  0.00    +0.000 A 
ATOM      8  N   UNL     1       1.381   7.796  20.562  0.00  0.00    +0.000 N 
ATOM      9  C   UNL     1       2.080   7.872  19.373  0.00  0.00    +0.000 C 
ATOM     10  O   UNL     1       2.297   8.887  18.725  0.00  0.00    +0.000 OA
ATOM     11  N   UNL     1       0.913  10.128  20.662  0.00  0.00    +0.000 NA
ATOM     12  C   UNL     1       0.328  11.145  21.337  0.00  0.00    +0.000 A 
ATOM     13  H   UNL     1       1.252   6.889  20.993  0.00  0.00    +0.000 HD
ENDROOT
BRANCH   9  14
ATOM     14  C   UNL     1       2.682   6.613  18.838  0.00  0.00    +0.000 A 
ATOM     15  C   UNL     1       3.621   6.780  17.797  0.00  0.00    +0.000 A 
ATOM     16  C   UNL     1       4.210   5.680  17.173  0.00  0.00    +0.000 A 
ATOM     17  C   UNL     1       3.851   4.404  17.576  0.00  0.00    +0.000 A 
ATOM     18  F   UNL     1       4.399   3.344  16.970  0.00  0.00    +0.000 F 
ATOM     19  C   UNL     1       2.923   4.209  18.593  0.00  0.00    +0.000 A 
ATOM     20  C   UNL     1       2.337   5.311  19.230  0.00  0.00    +0.000 A 
ATOM     21 CL   UNL     1       1.171   4.962  20.457  0.00  0.00    +0.000 Cl
ENDBRANCH   9  14
BRANCH   1  26
ATOM     22  C   UNL     1       3.055  16.250  17.704  0.00  0.00    +0.000 C 
ATOM     23  N   UNL     1       2.468  15.471  18.796  0.00  0.00    +0.000 NA
ATOM     24  C   UNL     1       1.001  15.537  18.734  0.00  0.00    +0.000 C 
ATOM     25  C   UNL     1       0.361  14.753  19.878  0.00  0.00    +0.000 C 
ATOM     26  C   UNL     1       0.830  13.288  19.888  0.00  0.00    +0.000 C 
ATOM     27  C   UNL     1       2.367  13.251  19.887  0.00  0.00    +0.000 C 
ATOM     28  C   UNL     1       2.943  14.081  18.742  0.00  0.00    +0.000 C 
ENDBRANCH   1  26
TORSDOF 2
ENDMDL
MODEL 8
REMARK VINA RESULT:      -7.5      4.181      8.087
REMARK  Name = 
REMARK  3 active torsions:
REMARK  status: ('A' for Active; 'I' for Inactive)
REMARK    1  A    between atoms: C_1  and  N_2
REMARK    2  A    between atoms: C_5  and  C_6
REMARK    3  A    between atoms: C_14  and  C_16
REMARK                            x       y       z     vdW  Elec       q    Type
REMARK                         _______ _______ _______ _____ _____    ______ ____
ROOT
ATOM      1  C   UNL     1       0.085  12.893  20.946  0.00  0.00    +0.000 A 
ATOM      2  C   UNL     1      -0.663  13.609  21.866  0.00  0.00    +0.000 A 
ATOM      3  O   UNL     1      -1.161  12.806  22.840  0.00  0.00    +0.000 OA
ATOM      4  C   UNL     1      -0.730  11.549  22.557  0.00  0.00    +0.000 A 
ATOM      5  C   UNL     1      -0.997  10.398  23.281  0.00  0.00    +0.000 A 
ATOM      6  C   UNL     1      -0.420   9.234  22.761  0.00  0.00    +0.000 A 
ATOM      7  C   UNL     1       0.360   9.284  21.597  0.00  0.00    +0.000 A 
ATOM      8  N   UNL     1       0.919   8.071  21.146  0.00  0.00    +0.000 N 
ATOM      9  C   UNL     1       1.696   7.948  20.010  0.00  0.00    +0.000 C 
ATOM     10  O   UNL     1       2.019   8.854  19.253  0.00  0.00    +0.000 OA
ATOM     11  N   UNL     1       0.601  10.418  20.912  0.00  0.00    +0.000 NA
ATOM     12  C   UNL     1       0.043  11.548  21.406  0.00  0.00    +0.000 A 
ATOM     13  H   UNL     1       0.705   7.238  21.680  0.00  0.00    +0.000 HD
ENDROOT
BRANCH   9  14
ATOM     14  C   UNL     1       2.246   6.597  19.686  0.00  0.00    +0.000 A 
ATOM     15  C   UNL     1       1.893   5.564  20.582  0.00  0.00    +0.000 A 
ATOM     16  C   UNL     1       2.391   4.270  20.424  0.00  0.00    +0.000 A 
ATOM     17  C   UNL     1       3.258   4.005  19.376  0.00  0.00    +0.000 A 
ATOM     18  F   UNL     1       3.753   2.770  19.227  0.00  0.00    +0.000 F 
ATOM     19  C   UNL     1       3.629   5.004  18.483  0.00  0.00    +0.000 A 
ATOM     20  C   UNL     1       3.123   6.302  18.632  0.00  0.00    +0.000 A 
ATOM     21 CL   UNL     1       3.673   7.479  17.491  0.00  0.00    +0.000 Cl
ENDBRANCH   9  14
BRANCH   1  26
ATOM     22  C   UNL     1       3.582  15.693  17.374  0.00  0.00    +0.000 C 
ATOM     23  N   UNL     1       2.864  15.115  18.512  0.00  0.00    +0.000 NA
ATOM     24  C   UNL     1       1.461  15.551  18.501  0.00  0.00    +0.000 C 
ATOM     25  C   UNL     1       0.693  14.982  19.692  0.00  0.00    +0.000 C 
ATOM     26  C   UNL     1       0.775  13.447  19.732  0.00  0.00    +0.000 C 
ATOM     27  C   UNL     1       2.250  13.018  19.677  0.00  0.00    +0.000 C 
ATOM     28  C   UNL     1       2.968  13.649  18.485  0.00  0.00    +0.000 C 
ENDBRANCH   1  26
TORSDOF 2
ENDMDL
MODEL 9
REMARK VINA RESULT:      -7.5      2.174      2.740
REMARK  Name = 
REMARK  3 active torsions:
REMARK  status: ('A' for Active; 'I' for Inactive)
REMARK    1  A    between atoms: C_1  and  N_2
REMARK    2  A    between atoms: C_5  and  C_6
REMARK    3  A    between atoms: C_14  and  C_16
REMARK                            x       y       z     vdW  Elec       q    Type
REMARK                         _______ _______ _______ _____ _____    ______ ____
ROOT
ATOM      1  C   UNL     1       4.258   4.486  18.185  0.00  0.00    +0.000 A 
ATOM      2  C   UNL     1       4.427   3.235  18.755  0.00  0.00    +0.000 A 
ATOM      3  O   UNL     1       3.702   3.103  19.895  0.00  0.00    +0.000 OA
ATOM      4  C   UNL     1       3.047   4.279  20.070  0.00  0.00    +0.000 A 
ATOM      5  C   UNL     1       2.188   4.603  21.108  0.00  0.00    +0.000 A 
ATOM      6  C   UNL     1       1.646   5.891  21.037  0.00  0.00    +0.000 A 
ATOM      7  C   UNL     1       1.977   6.746  19.976  0.00  0.00    +0.000 A 
ATOM      8  N   UNL     1       1.377   8.023  19.968  0.00  0.00    +0.000 N 
ATOM      9  C   UNL     1       1.611   8.985  19.005  0.00  0.00    +0.000 C 
ATOM     10  O   UNL     1       2.344   8.871  18.032  0.00  0.00    +0.000 OA
ATOM     11  N   UNL     1       2.818   6.405  18.981  0.00  0.00    +0.000 NA
ATOM     12  C   UNL     1       3.350   5.162  19.045  0.00  0.00    +0.000 A 
ATOM     13  H   UNL     1       0.761   8.247  20.739  0.00  0.00    +0.000 HD
ENDROOT
BRANCH   9  14
ATOM     14  C   UNL     1       0.868  10.277  19.118  0.00  0.00    +0.000 A 
ATOM     15  C   UNL     1      -0.418  10.192  19.693  0.00  0.00    +0.000 A 
ATOM     16  C   UNL     1      -1.237  11.317  19.799  0.00  0.00    +0.000 A 
ATOM     17  C   UNL     1      -0.779  12.532  19.317  0.00  0.00    +0.000 A 
ATOM     18  F   UNL     1      -1.564  13.613  19.401  0.00  0.00    +0.000 F 
ATOM     19  C   UNL     1       0.481  12.644  18.738  0.00  0.00    +0.000 A 
ATOM     20  C   UNL     1       1.311  11.519  18.639  0.00  0.00    +0.000 A 
ATOM     21 CL   UNL     1       2.842  11.756  17.873  0.00  0.00    +0.000 Cl
ENDBRANCH   9  14
BRANCH   1  26
ATOM     22  C   UNL     1       7.650   5.189  13.620  0.00  0.00    +0.000 C 
ATOM     23  N   UNL     1       6.963   4.754  14.838  0.00  0.00    +0.000 NA
ATOM     24  C   UNL     1       7.076   5.784  15.879  0.00  0.00    +0.000 C 
ATOM     25  C   UNL     1       6.388   5.347  17.171  0.00  0.00    +0.000 C 
ATOM     26  C   UNL     1       4.912   4.990  16.930  0.00  0.00    +0.000 C 
ATOM     27  C   UNL     1       4.821   3.959  15.793  0.00  0.00    +0.000 C 
ATOM     28  C   UNL     1       5.557   4.443  14.544  0.00  0.00    +0.000 C 
ENDBRANCH   1  26
TORSDOF 2
ENDMDL
