MODEL 1
REMARK VINA RESULT:      -7.6      0.000      0.000
REMARK  Name = 
REMARK  8 active torsions:
REMARK  status: ('A' for Active; 'I' for Inactive)
REMARK    1  A    between atoms: C_1  and  C_2
REMARK    2  A    between atoms: C_2  and  C_3
REMARK    3  A    between atoms: N_7  and  N_8
REMARK    4  A    between atoms: C_9  and  C_10
REMARK    5  A    between atoms: C_13  and  N_14
REMARK    6  A    between atoms: C_17  and  C_18
REMARK    7  A    between atoms: C_21  and  N_22
REMARK    8  A    between atoms: N_26  and  N_27
REMARK                            x       y       z     vdW  Elec       q    Type
REMARK                         _______ _______ _______ _____ _____    ______ ____
ROOT
ATOM      1  C   UNL     1       2.604   6.367  19.533  0.00  0.00    +0.000 A 
ATOM      2  C   UNL     1       3.082   7.028  18.414  0.00  0.00    +0.000 A 
ATOM      3  C   UNL     1       3.944   6.352  17.545  0.00  0.00    +0.000 A 
ATOM      4  C   UNL     1       4.383   5.016  17.750  0.00  0.00    +0.000 A 
ATOM      5  C   UNL     1       3.829   4.385  18.885  0.00  0.00    +0.000 A 
ATOM      6  C   UNL     1       2.957   5.045  19.769  0.00  0.00    +0.000 A 
ENDROOT
BRANCH   4   7
ATOM      7  N   UNL     1       5.337   4.501  16.885  0.00  0.00    +0.000 N 
ATOM      8  C   UNL     1       6.791   4.616  17.066  0.00  0.00    +0.000 C 
ATOM      9  C   UNL     1       7.441   5.201  15.803  0.00  0.00    +0.000 C 
ATOM     10  C   UNL     1       7.022   4.457  14.527  0.00  0.00    +0.000 C 
ATOM     11  C   UNL     1       7.550   5.169  13.282  0.00  0.00    +0.000 C 
ATOM     12  C   UNL     1       5.494   4.337  14.456  0.00  0.00    +0.000 C 
ATOM     13  C   UNL     1       4.938   3.697  15.722  0.00  0.00    +0.000 C 
ENDBRANCH   4   7
BRANCH   5  14
ATOM     14  N   UNL     1       4.089   2.998  19.239  0.00  0.00    +0.000 N 
ATOM     15  O   UNL     1       5.046   2.745  19.975  0.00  0.00    +0.000 OA
ATOM     16  O   UNL     1       3.344   2.147  18.716  0.00  0.00    +0.000 OA
ENDBRANCH   5  14
BRANCH   1  18
ATOM     17  N   UNL     1       1.622   8.351  20.489  0.00  0.00    +0.000 NA
ATOM     18  C   UNL     1       1.709   7.056  20.467  0.00  0.00    +0.000 C 
BRANCH  17  23
ATOM     19  C   UNL     1      -0.549  12.051  22.196  0.00  0.00    +0.000 A 
ATOM     20  N   UNL     1       0.198  12.381  21.165  0.00  0.00    +0.000 NA
ATOM     21  N   UNL     1       0.831  11.247  20.739  0.00  0.00    +0.000 NA
ATOM     22  C   UNL     1       0.441  10.230  21.485  0.00  0.00    +0.000 A 
ATOM     23  N   UNL     1       0.771   8.905  21.394  0.00  0.00    +0.000 N 
ATOM     24  N   UNL     1      -0.428  10.706  22.441  0.00  0.00    +0.000 N 
ATOM     25  H   UNL     1       0.570   8.305  22.184  0.00  0.00    +0.000 HD
BRANCH  24  26
ATOM     26  N   UNL     1      -1.092   9.959  23.475  0.00  0.00    +0.000 N 
ATOM     27  H   UNL     1      -0.462   9.311  23.937  0.00  0.00    +0.000 HD
ATOM     28  H   UNL     1      -1.426  10.578  24.212  0.00  0.00    +0.000 HD
ENDBRANCH  24  26
BRANCH  19  30
ATOM     29  C   UNL     1      -2.815  13.010  22.478  0.00  0.00    +0.000 C 
ATOM     30  C   UNL     1      -1.390  12.974  23.002  0.00  0.00    +0.000 C 
ENDBRANCH  19  30
ENDBRANCH  17  23
ENDBRANCH   1  18
TORSDOF 6
ENDMDL
MODEL 2
REMARK VINA RESULT:      -7.6      5.668      7.984
REMARK  Name = 
REMARK  8 active torsions:
REMARK  status: ('A' for Active; 'I' for Inactive)
REMARK    1  A    between atoms: C_1  and  C_2
REMARK    2  A    between atoms: C_2  and  C_3
REMARK    3  A    between atoms: N_7  and  N_8
REMARK    4  A    between atoms: C_9  and  C_10
REMARK    5  A    between atoms: C_13  and  N_14
REMARK    6  A    between atoms: C_17  and  C_18
REMARK    7  A    between atoms: C_21  and  N_22
REMARK    8  A    between atoms: N_26  and  N_27
REMARK                            x       y       z     vdW  Elec       q    Type
REMARK                         _______ _______ _______ _____ _____    ______ ____
ROOT
ATOM      1  C   UNL     1       7.066   6.943  17.601  0.00  0.00    +0.000 A 
ATOM      2  C   UNL     1       7.404   5.604  17.488  0.00  0.00    +0.000 A 
ATOM      3  C   UNL     1       6.403   4.639  17.631  0.00  0.00    +0.000 A 
ATOM      4  C   UNL     1       5.043   4.946  17.909  0.00  0.00    +0.000 A 
ATOM      5  C   UNL     1       4.757   6.327  17.972  0.00  0.00    +0.000 A 
ATOM      6  C   UNL     1       5.747   7.315  17.826  0.00  0.00    +0.000 A 
ENDROOT
BRANCH   4   7
ATOM      7  N   UNL     1       4.172   3.896  18.154  0.00  0.00    +0.000 N 
ATOM      8  C   UNL     1       3.108   3.451  17.244  0.00  0.00    +0.000 C 
ATOM      9  C   UNL     1       1.762   3.397  17.983  0.00  0.00    +0.000 C 
ATOM     10  C   UNL     1       1.842   2.603  19.295  0.00  0.00    +0.000 C 
ATOM     11  C   UNL     1       0.536   2.715  20.080  0.00  0.00    +0.000 C 
ATOM     12  C   UNL     1       3.015   3.101  20.149  0.00  0.00    +0.000 C 
ATOM     13  C   UNL     1       4.318   3.069  19.360  0.00  0.00    +0.000 C 
ENDBRANCH   4   7
BRANCH   5  14
ATOM     14  N   UNL     1       3.418   6.861  18.174  0.00  0.00    +0.000 N 
ATOM     15  O   UNL     1       2.786   6.508  19.174  0.00  0.00    +0.000 OA
ATOM     16  O   UNL     1       2.980   7.605  17.276  0.00  0.00    +0.000 OA
ENDBRANCH   5  14
BRANCH   1  18
ATOM     17  N   UNL     1       7.961   9.143  18.021  0.00  0.00    +0.000 NA
ATOM     18  C   UNL     1       8.098   7.975  17.469  0.00  0.00    +0.000 C 
BRANCH  17  23
ATOM     19  C   UNL     1      10.929  12.228  19.750  0.00  0.00    +0.000 A 
ATOM     20  N   UNL     1      10.191  11.703  20.704  0.00  0.00    +0.000 NA
ATOM     21  N   UNL     1       9.320  10.830  20.113  0.00  0.00    +0.000 NA
ATOM     22  C   UNL     1       9.555  10.800  18.815  0.00  0.00    +0.000 A 
ATOM     23  N   UNL     1       8.966  10.041  17.840  0.00  0.00    +0.000 N 
ATOM     24  N   UNL     1      10.565  11.695  18.539  0.00  0.00    +0.000 N 
ATOM     25  H   UNL     1       9.100  10.313  16.874  0.00  0.00    +0.000 HD
BRANCH  24  26
ATOM     26  N   UNL     1      11.140  12.003  17.257  0.00  0.00    +0.000 N 
ATOM     27  H   UNL     1      11.902  12.669  17.335  0.00  0.00    +0.000 HD
ATOM     28  H   UNL     1      11.554  11.172  16.837  0.00  0.00    +0.000 HD
ENDBRANCH  24  26
BRANCH  19  30
ATOM     29  C   UNL     1      11.387  14.646  20.028  0.00  0.00    +0.000 C 
ATOM     30  C   UNL     1      11.989  13.255  19.925  0.00  0.00    +0.000 C 
ENDBRANCH  19  30
ENDBRANCH  17  23
ENDBRANCH   1  18
TORSDOF 6
ENDMDL
MODEL 3
REMARK VINA RESULT:      -7.5      7.632     10.331
REMARK  Name = 
REMARK  8 active torsions:
REMARK  status: ('A' for Active; 'I' for Inactive)
REMARK    1  A    between atoms: C_1  and  C_2
REMARK    2  A    between atoms: C_2  and  C_3
REMARK    3  A    between atoms: N_7  and  N_8
REMARK    4  A    between atoms: C_9  and  C_10
REMARK    5  A    between atoms: C_13  and  N_14
REMARK    6  A    between atoms: C_17  and  C_18
REMARK    7  A    between atoms: C_21  and  N_22
REMARK    8  A    between atoms: N_26  and  N_27
REMARK                            x       y       z     vdW  Elec       q    Type
REMARK                         _______ _______ _______ _____ _____    ______ ____
ROOT
ATOM      1  C   UNL     1       8.609  10.001  18.320  0.00  0.00    +0.000 A 
ATOM      2  C   UNL     1       8.160  10.973  17.441  0.00  0.00    +0.000 A 
ATOM      3  C   UNL     1       8.571  12.297  17.628  0.00  0.00    +0.000 A 
ATOM      4  C   UNL     1       9.418  12.718  18.689  0.00  0.00    +0.000 A 
ATOM      5  C   UNL     1       9.873  11.675  19.525  0.00  0.00    +0.000 A 
ATOM      6  C   UNL     1       9.476  10.337  19.352  0.00  0.00    +0.000 A 
ENDROOT
BRANCH   4   7
ATOM      7  N   UNL     1       9.649  14.077  18.840  0.00  0.00    +0.000 N 
ATOM      8  C   UNL     1      10.714  14.833  18.166  0.00  0.00    +0.000 C 
ATOM      9  C   UNL     1      11.546  15.614  19.193  0.00  0.00    +0.000 C 
ATOM     10  C   UNL     1      10.676  16.457  20.137  0.00  0.00    +0.000 C 
ATOM     11  C   UNL     1      11.522  17.082  21.246  0.00  0.00    +0.000 C 
ATOM     12  C   UNL     1       9.562  15.597  20.746  0.00  0.00    +0.000 C 
ATOM     13  C   UNL     1       8.751  14.903  19.659  0.00  0.00    +0.000 C 
ENDBRANCH   4   7
BRANCH   5  14
ATOM     14  N   UNL     1      10.802  11.877  20.626  0.00  0.00    +0.000 N 
ATOM     15  O   UNL     1      10.358  12.257  21.713  0.00  0.00    +0.000 OA
ATOM     16  O   UNL     1      12.009  11.701  20.368  0.00  0.00    +0.000 OA
ENDBRANCH   5  14
BRANCH   1  18
ATOM     17  N   UNL     1       7.612   8.201  17.064  0.00  0.00    +0.000 NA
ATOM     18  C   UNL     1       8.184   8.609  18.156  0.00  0.00    +0.000 C 
BRANCH  17  23
ATOM     19  C   UNL     1       4.347   4.945  17.297  0.00  0.00    +0.000 A 
ATOM     20  N   UNL     1       3.829   6.140  17.481  0.00  0.00    +0.000 NA
ATOM     21  N   UNL     1       4.856   7.042  17.431  0.00  0.00    +0.000 NA
ATOM     22  C   UNL     1       5.982   6.399  17.183  0.00  0.00    +0.000 A 
ATOM     23  N   UNL     1       7.245   6.892  17.001  0.00  0.00    +0.000 N 
ATOM     24  N   UNL     1       5.702   5.053  17.109  0.00  0.00    +0.000 N 
ATOM     25  H   UNL     1       8.025   6.248  17.055  0.00  0.00    +0.000 HD
BRANCH  24  26
ATOM     26  N   UNL     1       6.623   3.975  16.867  0.00  0.00    +0.000 N 
ATOM     27  H   UNL     1       6.911   3.524  17.729  0.00  0.00    +0.000 HD
ATOM     28  H   UNL     1       6.185   3.240  16.314  0.00  0.00    +0.000 HD
ENDBRANCH  24  26
BRANCH  19  30
ATOM     29  C   UNL     1       2.129   3.880  17.587  0.00  0.00    +0.000 C 
ATOM     30  C   UNL     1       3.605   3.657  17.306  0.00  0.00    +0.000 C 
ENDBRANCH  19  30
ENDBRANCH  17  23
ENDBRANCH   1  18
TORSDOF 6
ENDMDL
MODEL 4
REMARK VINA RESULT:      -7.5      6.149      7.876
REMARK  Name = 
REMARK  8 active torsions:
REMARK  status: ('A' for Active; 'I' for Inactive)
REMARK    1  A    between atoms: C_1  and  C_2
REMARK    2  A    between atoms: C_2  and  C_3
REMARK    3  A    between atoms: N_7  and  N_8
REMARK    4  A    between atoms: C_9  and  C_10
REMARK    5  A    between atoms: C_13  and  N_14
REMARK    6  A    between atoms: C_17  and  C_18
REMARK    7  A    between atoms: C_21  and  N_22
REMARK    8  A    between atoms: N_26  and  N_27
REMARK                            x       y       z     vdW  Elec       q    Type
REMARK                         _______ _______ _______ _____ _____    ______ ____
ROOT
ATOM      1  C   UNL     1       7.941   7.583  18.308  0.00  0.00    +0.000 A 
ATOM      2  C   UNL     1       8.182   6.385  18.961  0.00  0.00    +0.000 A 
ATOM      3  C   UNL     1       7.276   5.333  18.800  0.00  0.00    +0.000 A 
ATOM      4  C   UNL     1       6.095   5.420  18.013  0.00  0.00    +0.000 A 
ATOM      5  C   UNL     1       5.929   6.652  17.343  0.00  0.00    +0.000 A 
ATOM      6  C   UNL     1       6.830   7.721  17.486  0.00  0.00    +0.000 A 
ENDROOT
BRANCH   4   7
ATOM      7  N   UNL     1       5.213   4.351  18.036  0.00  0.00    +0.000 N 
ATOM      8  C   UNL     1       4.622   3.717  16.850  0.00  0.00    +0.000 C 
ATOM      9  C   UNL     1       3.093   3.663  16.979  0.00  0.00    +0.000 C 
ATOM     10  C   UNL     1       2.636   3.053  18.312  0.00  0.00    +0.000 C 
ATOM     11  C   UNL     1       1.122   3.171  18.476  0.00  0.00    +0.000 C 
ATOM     12  C   UNL     1       3.348   3.738  19.485  0.00  0.00    +0.000 C 
ATOM     13  C   UNL     1       4.861   3.699  19.305  0.00  0.00    +0.000 C 
ENDBRANCH   4   7
BRANCH   5  14
ATOM     14  N   UNL     1       4.828   6.926  16.432  0.00  0.00    +0.000 N 
ATOM     15  O   UNL     1       3.724   7.210  16.906  0.00  0.00    +0.000 OA
ATOM     16  O   UNL     1       5.073   6.798  15.217  0.00  0.00    +0.000 OA
ENDBRANCH   5  14
BRANCH   1  18
ATOM     17  N   UNL     1       8.541   9.910  18.104  0.00  0.00    +0.000 NA
ATOM     18  C   UNL     1       8.868   8.707  18.468  0.00  0.00    +0.000 C 
BRANCH  17  23
ATOM     19  C   UNL     1       9.682  14.384  18.099  0.00  0.00    +0.000 A 
ATOM     20  N   UNL     1       8.416  14.224  17.784  0.00  0.00    +0.000 NA
ATOM     21  N   UNL     1       8.164  12.880  17.774  0.00  0.00    +0.000 NA
ATOM     22  C   UNL     1       9.262  12.233  18.116  0.00  0.00    +0.000 A 
ATOM     23  N   UNL     1       9.466  10.891  18.285  0.00  0.00    +0.000 N 
ATOM     24  N   UNL     1      10.262  13.159  18.315  0.00  0.00    +0.000 N 
ATOM     25  H   UNL     1      10.419  10.550  18.317  0.00  0.00    +0.000 HD
BRANCH  24  26
ATOM     26  N   UNL     1      11.629  12.909  18.688  0.00  0.00    +0.000 N 
ATOM     27  H   UNL     1      11.837  11.917  18.719  0.00  0.00    +0.000 HD
ATOM     28  H   UNL     1      12.269  13.295  17.996  0.00  0.00    +0.000 HD
ENDBRANCH  24  26
BRANCH  19  30
ATOM     29  C   UNL     1      10.374  16.421  16.872  0.00  0.00    +0.000 C 
ATOM     30  C   UNL     1      10.406  15.679  18.197  0.00  0.00    +0.000 C 
ENDBRANCH  19  30
ENDBRANCH  17  23
ENDBRANCH   1  18
TORSDOF 6
ENDMDL
MODEL 5
REMARK VINA RESULT:      -7.4      2.845      9.892
REMARK  Name = 
REMARK  8 active torsions:
REMARK  status: ('A' for Active; 'I' for Inactive)
REMARK    1  A    between atoms: C_1  and  C_2
REMARK    2  A    between atoms: C_2  and  C_3
REMARK    3  A    between atoms: N_7  and  N_8
REMARK    4  A    between atoms: C_9  and  C_10
REMARK    5  A    between atoms: C_13  and  N_14
REMARK    6  A    between atoms: C_17  and  C_18
REMARK    7  A    between atoms: C_21  and  N_22
REMARK    8  A    between atoms: N_26  and  N_27
REMARK                            x       y       z     vdW  Elec       q    Type
REMARK                         _______ _______ _______ _____ _____    ______ ____
ROOT
ATOM      1  C   UNL     1       1.850   8.511  18.785  0.00  0.00    +0.000 A 
ATOM      2  C   UNL     1       1.633   9.667  18.053  0.00  0.00    +0.000 A 
ATOM      3  C   UNL     1       0.990  10.746  18.667  0.00  0.00    +0.000 A 
ATOM      4  C   UNL     1       0.519  10.726  20.008  0.00  0.00    +0.000 A 
ATOM      5  C   UNL     1       0.806   9.536  20.711  0.00  0.00    +0.000 A 
ATOM      6  C   UNL     1       1.456   8.440  20.115  0.00  0.00    +0.000 A 
ENDROOT
BRANCH   4   7
ATOM      7  N   UNL     1      -0.216  11.811  20.460  0.00  0.00    +0.000 N 
ATOM      8  C   UNL     1       0.109  12.617  21.645  0.00  0.00    +0.000 C 
ATOM      9  C   UNL     1      -1.107  12.704  22.580  0.00  0.00    +0.000 C 
ATOM     10  C   UNL     1      -2.382  13.147  21.848  0.00  0.00    +0.000 C 
ATOM     11  C   UNL     1      -3.599  13.058  22.768  0.00  0.00    +0.000 C 
ATOM     12  C   UNL     1      -2.605  12.288  20.597  0.00  0.00    +0.000 C 
ATOM     13  C   UNL     1      -1.373  12.301  19.699  0.00  0.00    +0.000 C 
ENDBRANCH   4   7
BRANCH   5  14
ATOM     14  N   UNL     1       0.476   9.333  22.114  0.00  0.00    +0.000 N 
ATOM     15  O   UNL     1       1.335   9.583  22.965  0.00  0.00    +0.000 OA
ATOM     16  O   UNL     1      -0.651   8.860  22.352  0.00  0.00    +0.000 OA
ENDBRANCH   5  14
BRANCH   1  18
ATOM     17  N   UNL     1       3.270   6.563  18.851  0.00  0.00    +0.000 NA
ATOM     18  C   UNL     1       2.510   7.360  18.163  0.00  0.00    +0.000 C 
BRANCH  17  23
ATOM     19  C   UNL     1       5.813   4.970  15.342  0.00  0.00    +0.000 A 
ATOM     20  N   UNL     1       5.698   6.278  15.280  0.00  0.00    +0.000 NA
ATOM     21  N   UNL     1       4.909   6.669  16.326  0.00  0.00    +0.000 NA
ATOM     22  C   UNL     1       4.579   5.608  17.037  0.00  0.00    +0.000 A 
ATOM     23  N   UNL     1       3.847   5.524  18.190  0.00  0.00    +0.000 N 
ATOM     24  N   UNL     1       5.122   4.497  16.430  0.00  0.00    +0.000 N 
ATOM     25  H   UNL     1       3.493   4.617  18.469  0.00  0.00    +0.000 HD
BRANCH  24  26
ATOM     26  N   UNL     1       5.013   3.125  16.847  0.00  0.00    +0.000 N 
ATOM     27  H   UNL     1       4.171   2.962  17.391  0.00  0.00    +0.000 HD
ATOM     28  H   UNL     1       4.934   2.507  16.042  0.00  0.00    +0.000 HD
ENDBRANCH  24  26
BRANCH  19  30
ATOM     29  C   UNL     1       5.684   3.741  13.195  0.00  0.00    +0.000 C 
ATOM     30  C   UNL     1       6.555   4.107  14.385  0.00  0.00    +0.000 C 
ENDBRANCH  19  30
ENDBRANCH  17  23
ENDBRANCH   1  18
TORSDOF 6
ENDMDL
MODEL 6
REMARK VINA RESULT:      -7.4      5.854      8.005
REMARK  Name = 
REMARK  8 active torsions:
REMARK  status: ('A' for Active; 'I' for Inactive)
REMARK    1  A    between atoms: C_1  and  C_2
REMARK    2  A    between atoms: C_2  and  C_3
REMARK    3  A    between atoms: N_7  and  N_8
REMARK    4  A    between atoms: C_9  and  C_10
REMARK    5  A    between atoms: C_13  and  N_14
REMARK    6  A    between atoms: C_17  and  C_18
REMARK    7  A    between atoms: C_21  and  N_22
REMARK    8  A    between atoms: N_26  and  N_27
REMARK                            x       y       z     vdW  Elec       q    Type
REMARK                         _______ _______ _______ _____ _____    ______ ____
ROOT
ATOM      1  C   UNL     1       7.418   6.811  18.292  0.00  0.00    +0.000 A 
ATOM      2  C   UNL     1       6.963   5.974  19.297  0.00  0.00    +0.000 A 
ATOM      3  C   UNL     1       5.923   5.082  19.016  0.00  0.00    +0.000 A 
ATOM      4  C   UNL     1       5.280   4.992  17.752  0.00  0.00    +0.000 A 
ATOM      5  C   UNL     1       5.817   5.842  16.760  0.00  0.00    +0.000 A 
ATOM      6  C   UNL     1       6.865   6.742  17.020  0.00  0.00    +0.000 A 
ENDROOT
BRANCH   4   7
ATOM      7  N   UNL     1       4.179   4.158  17.636  0.00  0.00    +0.000 N 
ATOM      8  C   UNL     1       2.807   4.605  17.355  0.00  0.00    +0.000 C 
ATOM      9  C   UNL     1       1.838   4.047  18.409  0.00  0.00    +0.000 C 
ATOM     10  C   UNL     1       1.981   2.529  18.595  0.00  0.00    +0.000 C 
ATOM     11  C   UNL     1       1.127   2.041  19.764  0.00  0.00    +0.000 C 
ATOM     12  C   UNL     1       3.451   2.156  18.824  0.00  0.00    +0.000 C 
ATOM     13  C   UNL     1       4.333   2.699  17.707  0.00  0.00    +0.000 C 
ENDBRANCH   4   7
BRANCH   5  14
ATOM     14  N   UNL     1       5.355   5.857  15.381  0.00  0.00    +0.000 N 
ATOM     15  O   UNL     1       5.411   4.812  14.726  0.00  0.00    +0.000 OA
ATOM     16  O   UNL     1       4.981   6.960  14.937  0.00  0.00    +0.000 OA
ENDBRANCH   5  14
BRANCH   1  18
ATOM     17  N   UNL     1       8.348   9.035  18.343  0.00  0.00    +0.000 NA
ATOM     18  C   UNL     1       8.498   7.764  18.562  0.00  0.00    +0.000 C 
BRANCH  17  23
ATOM     19  C   UNL     1      10.339  13.199  18.207  0.00  0.00    +0.000 A 
ATOM     20  N   UNL     1       9.137  13.238  17.674  0.00  0.00    +0.000 NA
ATOM     21  N   UNL     1       8.629  11.969  17.721  0.00  0.00    +0.000 NA
ATOM     22  C   UNL     1       9.503  11.176  18.310  0.00  0.00    +0.000 A 
ATOM     23  N   UNL     1       9.405   9.846  18.617  0.00  0.00    +0.000 N 
ATOM     24  N   UNL     1      10.620  11.921  18.620  0.00  0.00    +0.000 N 
ATOM     25  H   UNL     1      10.253   9.344  18.852  0.00  0.00    +0.000 HD
BRANCH  24  26
ATOM     26  N   UNL     1      11.827  11.470  19.259  0.00  0.00    +0.000 N 
ATOM     27  H   UNL     1      12.654  11.735  18.734  0.00  0.00    +0.000 HD
ATOM     28  H   UNL     1      11.939  11.909  20.172  0.00  0.00    +0.000 HD
ENDBRANCH  24  26
BRANCH  19  30
ATOM     29  C   UNL     1      11.266  15.203  17.085  0.00  0.00    +0.000 C 
ATOM     30  C   UNL     1      11.279  14.343  18.337  0.00  0.00    +0.000 C 
ENDBRANCH  19  30
ENDBRANCH  17  23
ENDBRANCH   1  18
TORSDOF 6
ENDMDL
MODEL 7
REMARK VINA RESULT:      -7.3      1.368      1.722
REMARK  Name = 
REMARK  8 active torsions:
REMARK  status: ('A' for Active; 'I' for Inactive)
REMARK    1  A    between atoms: C_1  and  C_2
REMARK    2  A    between atoms: C_2  and  C_3
REMARK    3  A    between atoms: N_7  and  N_8
REMARK    4  A    between atoms: C_9  and  C_10
REMARK    5  A    between atoms: C_13  and  N_14
REMARK    6  A    between atoms: C_17  and  C_18
REMARK    7  A    between atoms: C_21  and  N_22
REMARK    8  A    between atoms: N_26  and  N_27
REMARK                            x       y       z     vdW  Elec       q    Type
REMARK                         _______ _______ _______ _____ _____    ______ ____
ROOT
ATOM      1  C   UNL     1       1.578   7.046  20.449  0.00  0.00    +0.000 A 
ATOM      2  C   UNL     1       2.370   7.556  19.433  0.00  0.00    +0.000 A 
ATOM      3  C   UNL     1       3.195   6.684  18.716  0.00  0.00    +0.000 A 
ATOM      4  C   UNL     1       3.290   5.291  18.979  0.00  0.00    +0.000 A 
ATOM      5  C   UNL     1       2.429   4.828  19.998  0.00  0.00    +0.000 A 
ATOM      6  C   UNL     1       1.588   5.686  20.728  0.00  0.00    +0.000 A 
ENDROOT
BRANCH   4   7
ATOM      7  N   UNL     1       4.238   4.556  18.283  0.00  0.00    +0.000 N 
ATOM      8  C   UNL     1       5.640   4.387  18.689  0.00  0.00    +0.000 C 
ATOM      9  C   UNL     1       6.579   4.772  17.536  0.00  0.00    +0.000 C 
ATOM     10  C   UNL     1       6.215   4.069  16.221  0.00  0.00    +0.000 C 
ATOM     11  C   UNL     1       7.060   4.604  15.065  0.00  0.00    +0.000 C 
ATOM     12  C   UNL     1       4.724   4.253  15.912  0.00  0.00    +0.000 C 
ATOM     13  C   UNL     1       3.863   3.797  17.083  0.00  0.00    +0.000 C 
ENDBRANCH   4   7
BRANCH   5  14
ATOM     14  N   UNL     1       2.315   3.427  20.377  0.00  0.00    +0.000 N 
ATOM     15  O   UNL     1       3.057   2.992  21.262  0.00  0.00    +0.000 OA
ATOM     16  O   UNL     1       1.499   2.745  19.727  0.00  0.00    +0.000 OA
ENDBRANCH   5  14
BRANCH   1  18
ATOM     17  N   UNL     1       0.487   9.159  20.846  0.00  0.00    +0.000 NA
ATOM     18  C   UNL     1       0.713   7.939  21.226  0.00  0.00    +0.000 C 
BRANCH  17  23
ATOM     19  C   UNL     1      -0.655  13.260  22.634  0.00  0.00    +0.000 A 
ATOM     20  N   UNL     1       0.392  13.369  21.846  0.00  0.00    +0.000 NA
ATOM     21  N   UNL     1       0.688  12.116  21.384  0.00  0.00    +0.000 NA
ATOM     22  C   UNL     1      -0.197  11.261  21.862  0.00  0.00    +0.000 A 
ATOM     23  N   UNL     1      -0.324   9.919  21.631  0.00  0.00    +0.000 N 
ATOM     24  N   UNL     1      -1.062  11.951  22.681  0.00  0.00    +0.000 N 
ATOM     25  H   UNL     1      -0.907   9.377  22.257  0.00  0.00    +0.000 HD
BRANCH  24  26
ATOM     26  N   UNL     1      -2.176  11.425  23.424  0.00  0.00    +0.000 N 
ATOM     27  H   UNL     1      -2.988  11.277  22.833  0.00  0.00    +0.000 HD
ATOM     28  H   UNL     1      -1.955  10.507  23.808  0.00  0.00    +0.000 HD
ENDBRANCH  24  26
BRANCH  19  30
ATOM     29  C   UNL     1      -2.214  15.178  22.480  0.00  0.00    +0.000 C 
ATOM     30  C   UNL     1      -1.306  14.365  23.386  0.00  0.00    +0.000 C 
ENDBRANCH  19  30
ENDBRANCH  17  23
ENDBRANCH   1  18
TORSDOF 6
ENDMDL
MODEL 8
REMARK VINA RESULT:      -7.3      7.628     10.321
REMARK  Name = 
REMARK  8 active torsions:
REMARK  status: ('A' for Active; 'I' for Inactive)
REMARK    1  A    between atoms: C_1  and  C_2
REMARK    2  A    between atoms: C_2  and  C_3
REMARK    3  A    between atoms: N_7  and  N_8
REMARK    4  A    between atoms: C_9  and  C_10
REMARK    5  A    between atoms: C_13  and  N_14
REMARK    6  A    between atoms: C_17  and  C_18
REMARK    7  A    between atoms: C_21  and  N_22
REMARK    8  A    between atoms: N_26  and  N_27
REMARK                            x       y       z     vdW  Elec       q    Type
REMARK                         _______ _______ _______ _____ _____    ______ ____
ROOT
ATOM      1  C   UNL     1       8.624  10.062  18.332  0.00  0.00    +0.000 A 
ATOM      2  C   UNL     1       8.218  11.036  17.436  0.00  0.00    +0.000 A 
ATOM      3  C   UNL     1       8.557  12.370  17.686  0.00  0.00    +0.000 A 
ATOM      4  C   UNL     1       9.286  12.798  18.829  0.00  0.00    +0.000 A 
ATOM      5  C   UNL     1       9.704  11.753  19.681  0.00  0.00    +0.000 A 
ATOM      6  C   UNL     1       9.379  10.406  19.446  0.00  0.00    +0.000 A 
ENDROOT
BRANCH   4   7
ATOM      7  N   UNL     1       9.448  14.160  19.029  0.00  0.00    +0.000 N 
ATOM      8  C   UNL     1       8.360  15.148  19.045  0.00  0.00    +0.000 C 
ATOM      9  C   UNL     1       8.662  16.291  18.064  0.00  0.00    +0.000 C 
ATOM     10  C   UNL     1      10.060  16.891  18.272  0.00  0.00    +0.000 C 
ATOM     11  C   UNL     1      10.387  17.903  17.174  0.00  0.00    +0.000 C 
ATOM     12  C   UNL     1      11.118  15.781  18.297  0.00  0.00    +0.000 C 
ATOM     13  C   UNL     1      10.772  14.719  19.333  0.00  0.00    +0.000 C 
ENDBRANCH   4   7
BRANCH   5  14
ATOM     14  N   UNL     1      10.521  11.964  20.867  0.00  0.00    +0.000 N 
ATOM     15  O   UNL     1       9.978  12.384  21.893  0.00  0.00    +0.000 OA
ATOM     16  O   UNL     1      11.743  11.754  20.739  0.00  0.00    +0.000 OA
ENDBRANCH   5  14
BRANCH   1  18
ATOM     17  N   UNL     1       7.453   8.313  17.154  0.00  0.00    +0.000 NA
ATOM     18  C   UNL     1       8.272   8.658  18.101  0.00  0.00    +0.000 C 
BRANCH  17  23
ATOM     19  C   UNL     1       4.422   4.831  17.186  0.00  0.00    +0.000 A 
ATOM     20  N   UNL     1       3.823   5.975  17.433  0.00  0.00    +0.000 NA
ATOM     21  N   UNL     1       4.784   6.947  17.440  0.00  0.00    +0.000 NA
ATOM     22  C   UNL     1       5.952   6.399  17.163  0.00  0.00    +0.000 A 
ATOM     23  N   UNL     1       7.178   6.988  17.016  0.00  0.00    +0.000 N 
ATOM     24  N   UNL     1       5.767   5.043  17.012  0.00  0.00    +0.000 N 
ATOM     25  H   UNL     1       8.001   6.398  17.039  0.00  0.00    +0.000 HD
BRANCH  24  26
ATOM     26  N   UNL     1       6.762   4.047  16.716  0.00  0.00    +0.000 N 
ATOM     27  H   UNL     1       7.392   3.899  17.498  0.00  0.00    +0.000 HD
ATOM     28  H   UNL     1       6.328   3.141  16.546  0.00  0.00    +0.000 HD
ENDBRANCH  24  26
BRANCH  19  30
ATOM     29  C   UNL     1       3.768   2.823  18.480  0.00  0.00    +0.000 C 
ATOM     30  C   UNL     1       3.772   3.496  17.118  0.00  0.00    +0.000 C 
ENDBRANCH  19  30
ENDBRANCH  17  23
ENDBRANCH   1  18
TORSDOF 6
ENDMDL
MODEL 9
REMARK VINA RESULT:      -7.3      3.099     10.271
REMARK  Name = 
REMARK  8 active torsions:
REMARK  status: ('A' for Active; 'I' for Inactive)
REMARK    1  A    between atoms: C_1  and  C_2
REMARK    2  A    between atoms: C_2  and  C_3
REMARK    3  A    between atoms: N_7  and  N_8
REMARK    4  A    between atoms: C_9  and  C_10
REMARK    5  A    between atoms: C_13  and  N_14
REMARK    6  A    between atoms: C_17  and  C_18
REMARK    7  A    between atoms: C_21  and  N_22
REMARK    8  A    between atoms: N_26  and  N_27
REMARK                            x       y       z     vdW  Elec       q    Type
REMARK                         _______ _______ _______ _____ _____    ______ ____
ROOT
ATOM      1  C   UNL     1       1.392   8.754  20.035  0.00  0.00    +0.000 A 
ATOM      2  C   UNL     1       1.290   9.839  19.180  0.00  0.00    +0.000 A 
ATOM      3  C   UNL     1       0.645  10.996  19.628  0.00  0.00    +0.000 A 
ATOM      4  C   UNL     1       0.062  11.126  20.917  0.00  0.00    +0.000 A 
ATOM      5  C   UNL     1       0.235  10.002  21.754  0.00  0.00    +0.000 A 
ATOM      6  C   UNL     1       0.884   8.830  21.326  0.00  0.00    +0.000 A 
ENDROOT
BRANCH   4   7
ATOM      7  N   UNL     1      -0.660  12.277  21.196  0.00  0.00    +0.000 N 
ATOM      8  C   UNL     1      -0.174  13.404  22.004  0.00  0.00    +0.000 C 
ATOM      9  C   UNL     1      -1.176  13.731  23.121  0.00  0.00    +0.000 C 
ATOM     10  C   UNL     1      -2.608  13.904  22.595  0.00  0.00    +0.000 C 
ATOM     11  C   UNL     1      -3.598  14.058  23.749  0.00  0.00    +0.000 C 
ATOM     12  C   UNL     1      -3.003  12.709  21.719  0.00  0.00    +0.000 C 
ATOM     13  C   UNL     1      -1.988  12.490  20.604  0.00  0.00    +0.000 C 
ENDBRANCH   4   7
BRANCH   5  14
ATOM     14  N   UNL     1      -0.221   9.952  23.135  0.00  0.00    +0.000 N 
ATOM     15  O   UNL     1      -1.385  10.280  23.386  0.00  0.00    +0.000 OA
ATOM     16  O   UNL     1       0.630   9.629  23.985  0.00  0.00    +0.000 OA
ENDBRANCH   5  14
BRANCH   1  18
ATOM     17  N   UNL     1       2.576   7.432  18.404  0.00  0.00    +0.000 NA
ATOM     18  C   UNL     1       2.051   7.525  19.588  0.00  0.00    +0.000 C 
BRANCH  17  23
ATOM     19  C   UNL     1       5.616   5.044  15.878  0.00  0.00    +0.000 A 
ATOM     20  N   UNL     1       5.662   6.324  15.580  0.00  0.00    +0.000 NA
ATOM     21  N   UNL     1       4.717   6.955  16.339  0.00  0.00    +0.000 NA
ATOM     22  C   UNL     1       4.127   6.068  17.118  0.00  0.00    +0.000 A 
ATOM     23  N   UNL     1       3.162   6.250  18.071  0.00  0.00    +0.000 N 
ATOM     24  N   UNL     1       4.661   4.829  16.840  0.00  0.00    +0.000 N 
ATOM     25  H   UNL     1       2.658   5.438  18.405  0.00  0.00    +0.000 HD
BRANCH  24  26
ATOM     26  N   UNL     1       4.313   3.568  17.439  0.00  0.00    +0.000 N 
ATOM     27  H   UNL     1       3.412   3.232  17.115  0.00  0.00    +0.000 HD
ATOM     28  H   UNL     1       4.980   2.845  17.173  0.00  0.00    +0.000 HD
ENDBRANCH  24  26
BRANCH  19  30
ATOM     29  C   UNL     1       6.214   3.888  13.770  0.00  0.00    +0.000 C 
ATOM     30  C   UNL     1       6.444   3.969  15.270  0.00  0.00    +0.000 C 
ENDBRANCH  19  30
ENDBRANCH  17  23
ENDBRANCH   1  18
TORSDOF 6
ENDMDL
