MODEL 1
REMARK VINA RESULT:      -6.1      0.000      0.000
REMARK  Name = 
REMARK  10 active torsions:
REMARK  status: ('A' for Active; 'I' for Inactive)
REMARK    1  A    between atoms: C_1  and  C_2
REMARK    2  A    between atoms: C_2  and  N_3
REMARK    3  A    between atoms: N_3  and  C_4
REMARK    4  A    between atoms: C_4  and  N_6
REMARK    5  A    between atoms: N_6  and  C_7
REMARK    6  A    between atoms: C_8  and  C_9
REMARK    7  A    between atoms: C_13  and  C_14
REMARK    8  A    between atoms: C_14  and  O_16
REMARK    9  A    between atoms: O_16  and  C_17
REMARK   10  A    between atoms: C_17  and  C_18
REMARK                            x       y       z     vdW  Elec       q    Type
REMARK                         _______ _______ _______ _____ _____    ______ ____
ROOT
ATOM      1  C   UNL     1       3.278   5.425  18.634  0.00  0.00    +0.000 A 
ATOM      2  C   UNL     1       3.477   6.619  17.898  0.00  0.00    +0.000 A 
ATOM      3  C   UNL     1       2.636   7.587  18.420  0.00  0.00    +0.000 A 
ATOM      4  N   UNL     1       1.952   7.014  19.484  0.00  0.00    +0.000 N 
ATOM      5  C   UNL     1       2.353   5.680  19.648  0.00  0.00    +0.000 A 
ATOM      6  C   UNL     1       0.966   7.709  20.311  0.00  0.00    +0.000 C 
ATOM      7  C   UNL     1       1.319   9.156  20.647  0.00  0.00    +0.000 C 
ATOM      8  C   UNL     1       0.940  10.153  19.554  0.00  0.00    +0.000 C 
ATOM      9  C   UNL     1       1.150   9.651  18.130  0.00  0.00    +0.000 C 
ATOM     10  C   UNL     1       2.513   9.010  17.935  0.00  0.00    +0.000 C 
ENDROOT
BRANCH   1  11
ATOM     11  N   UNL     1       3.864   4.186  18.409  0.00  0.00    +0.000 N 
ATOM     12  H   UNL     1       3.407   3.568  17.744  0.00  0.00    +0.000 HD
BRANCH  11  13
ATOM     13  C   UNL     1       4.858   3.594  19.147  0.00  0.00    +0.000 C 
ATOM     14  S   UNL     1       4.536   2.163  19.940  0.00  0.00    +0.000 S 
BRANCH  13  15
ATOM     15  N   UNL     1       6.000   4.349  19.265  0.00  0.00    +0.000 N 
ATOM     16  H   UNL     1       6.442   4.285  20.172  0.00  0.00    +0.000 HD
BRANCH  15  18
ATOM     17  C   UNL     1       7.598   6.020  18.474  0.00  0.00    +0.000 C 
ATOM     18  C   UNL     1       6.891   4.712  18.176  0.00  0.00    +0.000 C 
ENDBRANCH  15  18
ENDBRANCH  13  15
ENDBRANCH  11  13
ENDBRANCH   1  11
BRANCH   2  19
ATOM     19  C   UNL     1       4.343   6.835  16.770  0.00  0.00    +0.000 C 
ATOM     20  N   UNL     1       5.083   6.982  15.895  0.00  0.00    +0.000 NA
ENDBRANCH   2  19
BRANCH   5  21
ATOM     21  C   UNL     1       1.956   4.795  20.744  0.00  0.00    +0.000 C 
ATOM     22  O   UNL     1       2.586   4.566  21.766  0.00  0.00    +0.000 OA
BRANCH  21  23
ATOM     23  O   UNL     1       0.794   4.154  20.414  0.00  0.00    +0.000 OA
BRANCH  23  24
ATOM     24  C   UNL     1       0.860   2.736  20.202  0.00  0.00    +0.000 C 
ATOM     25  C   UNL     1       0.803   2.407  18.725  0.00  0.00    +0.000 C 
ENDBRANCH  23  24
ENDBRANCH  21  23
ENDBRANCH   5  21
TORSDOF 8
ENDMDL
MODEL 2
REMARK VINA RESULT:      -6.0      2.829      4.403
REMARK  Name = 
REMARK  10 active torsions:
REMARK  status: ('A' for Active; 'I' for Inactive)
REMARK    1  A    between atoms: C_1  and  C_2
REMARK    2  A    between atoms: C_2  and  N_3
REMARK    3  A    between atoms: N_3  and  C_4
REMARK    4  A    between atoms: C_4  and  N_6
REMARK    5  A    between atoms: N_6  and  C_7
REMARK    6  A    between atoms: C_8  and  C_9
REMARK    7  A    between atoms: C_13  and  C_14
REMARK    8  A    between atoms: C_14  and  O_16
REMARK    9  A    between atoms: O_16  and  C_17
REMARK   10  A    between atoms: C_17  and  C_18
REMARK                            x       y       z     vdW  Elec       q    Type
REMARK                         _______ _______ _______ _____ _____    ______ ____
ROOT
ATOM      1  C   UNL     1       4.191   4.469  19.291  0.00  0.00    +0.000 A 
ATOM      2  C   UNL     1       3.100   4.803  20.131  0.00  0.00    +0.000 A 
ATOM      3  C   UNL     1       2.669   6.072  19.785  0.00  0.00    +0.000 A 
ATOM      4  N   UNL     1       3.455   6.505  18.726  0.00  0.00    +0.000 N 
ATOM      5  C   UNL     1       4.390   5.516  18.389  0.00  0.00    +0.000 A 
ATOM      6  C   UNL     1       3.315   7.799  18.060  0.00  0.00    +0.000 C 
ATOM      7  C   UNL     1       1.874   8.260  17.852  0.00  0.00    +0.000 C 
ATOM      8  C   UNL     1       1.264   8.947  19.071  0.00  0.00    +0.000 C 
ATOM      9  C   UNL     1       1.662   8.340  20.412  0.00  0.00    +0.000 C 
ATOM     10  C   UNL     1       1.531   6.827  20.427  0.00  0.00    +0.000 C 
ENDROOT
BRANCH   1  11
ATOM     11  N   UNL     1       4.971   3.321  19.335  0.00  0.00    +0.000 N 
ATOM     12  H   UNL     1       5.981   3.441  19.305  0.00  0.00    +0.000 HD
BRANCH  11  13
ATOM     13  C   UNL     1       4.547   2.025  19.178  0.00  0.00    +0.000 C 
ATOM     14  S   UNL     1       3.248   1.713  18.179  0.00  0.00    +0.000 S 
BRANCH  13  15
ATOM     15  N   UNL     1       5.174   1.122  20.001  0.00  0.00    +0.000 N 
ATOM     16  H   UNL     1       5.971   0.665  19.578  0.00  0.00    +0.000 HD
BRANCH  15  18
ATOM     17  C   UNL     1       6.092   0.085  22.015  0.00  0.00    +0.000 C 
ATOM     18  C   UNL     1       5.204   1.179  21.453  0.00  0.00    +0.000 C 
ENDBRANCH  15  18
ENDBRANCH  13  15
ENDBRANCH  11  13
ENDBRANCH   1  11
BRANCH   2  19
ATOM     19  C   UNL     1       2.533   4.029  21.201  0.00  0.00    +0.000 C 
ATOM     20  N   UNL     1       2.099   3.356  22.035  0.00  0.00    +0.000 NA
ENDBRANCH   2  19
BRANCH   5  21
ATOM     21  C   UNL     1       5.298   5.551  17.242  0.00  0.00    +0.000 C 
ATOM     22  O   UNL     1       6.218   6.335  17.058  0.00  0.00    +0.000 OA
BRANCH  21  23
ATOM     23  O   UNL     1       4.902   4.624  16.319  0.00  0.00    +0.000 OA
BRANCH  23  24
ATOM     24  C   UNL     1       5.913   3.768  15.767  0.00  0.00    +0.000 C 
ATOM     25  C   UNL     1       6.115   4.051  14.293  0.00  0.00    +0.000 C 
ENDBRANCH  23  24
ENDBRANCH  21  23
ENDBRANCH   5  21
TORSDOF 8
ENDMDL
MODEL 3
REMARK VINA RESULT:      -5.9      2.303      4.530
REMARK  Name = 
REMARK  10 active torsions:
REMARK  status: ('A' for Active; 'I' for Inactive)
REMARK    1  A    between atoms: C_1  and  C_2
REMARK    2  A    between atoms: C_2  and  N_3
REMARK    3  A    between atoms: N_3  and  C_4
REMARK    4  A    between atoms: C_4  and  N_6
REMARK    5  A    between atoms: N_6  and  C_7
REMARK    6  A    between atoms: C_8  and  C_9
REMARK    7  A    between atoms: C_13  and  C_14
REMARK    8  A    between atoms: C_14  and  O_16
REMARK    9  A    between atoms: O_16  and  C_17
REMARK   10  A    between atoms: C_17  and  C_18
REMARK                            x       y       z     vdW  Elec       q    Type
REMARK                         _______ _______ _______ _____ _____    ______ ____
ROOT
ATOM      1  C   UNL     1       4.103   4.645  19.191  0.00  0.00    +0.000 A 
ATOM      2  C   UNL     1       3.053   4.977  20.082  0.00  0.00    +0.000 A 
ATOM      3  C   UNL     1       2.601   6.243  19.754  0.00  0.00    +0.000 A 
ATOM      4  N   UNL     1       3.333   6.676  18.656  0.00  0.00    +0.000 N 
ATOM      5  C   UNL     1       4.254   5.689  18.277  0.00  0.00    +0.000 A 
ATOM      6  C   UNL     1       3.157   7.967  17.994  0.00  0.00    +0.000 C 
ATOM      7  C   UNL     1       1.706   8.422  17.855  0.00  0.00    +0.000 C 
ATOM      8  C   UNL     1       1.153   9.111  19.100  0.00  0.00    +0.000 C 
ATOM      9  C   UNL     1       1.617   8.510  20.422  0.00  0.00    +0.000 C 
ATOM     10  C   UNL     1       1.493   6.997  20.448  0.00  0.00    +0.000 C 
ENDROOT
BRANCH   1  11
ATOM     11  N   UNL     1       4.888   3.499  19.200  0.00  0.00    +0.000 N 
ATOM     12  H   UNL     1       5.857   3.595  18.906  0.00  0.00    +0.000 HD
BRANCH  11  13
ATOM     13  C   UNL     1       4.460   2.202  19.334  0.00  0.00    +0.000 C 
ATOM     14  S   UNL     1       4.856   1.356  20.716  0.00  0.00    +0.000 S 
BRANCH  13  15
ATOM     15  N   UNL     1       3.854   1.689  18.213  0.00  0.00    +0.000 N 
ATOM     16  H   UNL     1       4.100   0.727  18.018  0.00  0.00    +0.000 HD
BRANCH  15  18
ATOM     17  C   UNL     1       1.476   1.955  18.709  0.00  0.00    +0.000 C 
ATOM     18  C   UNL     1       2.574   2.113  17.674  0.00  0.00    +0.000 C 
ENDBRANCH  15  18
ENDBRANCH  13  15
ENDBRANCH  11  13
ENDBRANCH   1  11
BRANCH   2  19
ATOM     19  C   UNL     1       2.541   4.204  21.181  0.00  0.00    +0.000 C 
ATOM     20  N   UNL     1       2.091   3.556  22.025  0.00  0.00    +0.000 NA
ENDBRANCH   2  19
BRANCH   5  21
ATOM     21  C   UNL     1       5.105   5.723  17.087  0.00  0.00    +0.000 C 
ATOM     22  O   UNL     1       4.908   5.144  16.028  0.00  0.00    +0.000 OA
BRANCH  21  23
ATOM     23  O   UNL     1       6.243   6.428  17.360  0.00  0.00    +0.000 OA
BRANCH  23  24
ATOM     24  C   UNL     1       7.428   5.678  17.665  0.00  0.00    +0.000 C 
ATOM     25  C   UNL     1       7.834   5.874  19.111  0.00  0.00    +0.000 C 
ENDBRANCH  23  24
ENDBRANCH  21  23
ENDBRANCH   5  21
TORSDOF 8
ENDMDL
MODEL 4
REMARK VINA RESULT:      -5.8      1.282      1.302
REMARK  Name = 
REMARK  10 active torsions:
REMARK  status: ('A' for Active; 'I' for Inactive)
REMARK    1  A    between atoms: C_1  and  C_2
REMARK    2  A    between atoms: C_2  and  N_3
REMARK    3  A    between atoms: N_3  and  C_4
REMARK    4  A    between atoms: C_4  and  N_6
REMARK    5  A    between atoms: N_6  and  C_7
REMARK    6  A    between atoms: C_8  and  C_9
REMARK    7  A    between atoms: C_13  and  C_14
REMARK    8  A    between atoms: C_14  and  O_16
REMARK    9  A    between atoms: O_16  and  C_17
REMARK   10  A    between atoms: C_17  and  C_18
REMARK                            x       y       z     vdW  Elec       q    Type
REMARK                         _______ _______ _______ _____ _____    ______ ____
ROOT
ATOM      1  C   UNL     1       3.716   5.261  18.294  0.00  0.00    +0.000 A 
ATOM      2  C   UNL     1       3.723   6.529  17.663  0.00  0.00    +0.000 A 
ATOM      3  C   UNL     1       2.829   7.344  18.334  0.00  0.00    +0.000 A 
ATOM      4  N   UNL     1       2.302   6.607  19.387  0.00  0.00    +0.000 N 
ATOM      5  C   UNL     1       2.857   5.319  19.393  0.00  0.00    +0.000 A 
ATOM      6  C   UNL     1       1.321   7.110  20.346  0.00  0.00    +0.000 C 
ATOM      7  C   UNL     1       1.543   8.554  20.791  0.00  0.00    +0.000 C 
ATOM      8  C   UNL     1       0.968   9.591  19.829  0.00  0.00    +0.000 C 
ATOM      9  C   UNL     1       1.111   9.241  18.353  0.00  0.00    +0.000 C 
ATOM     10  C   UNL     1       2.514   8.780  17.997  0.00  0.00    +0.000 C 
ENDROOT
BRANCH   1  11
ATOM     11  N   UNL     1       4.411   4.121  17.910  0.00  0.00    +0.000 N 
ATOM     12  H   UNL     1       4.018   3.222  18.179  0.00  0.00    +0.000 HD
BRANCH  11  13
ATOM     13  C   UNL     1       5.689   4.058  17.413  0.00  0.00    +0.000 C 
ATOM     14  S   UNL     1       5.914   3.694  15.801  0.00  0.00    +0.000 S 
BRANCH  13  15
ATOM     15  N   UNL     1       6.672   4.167  18.367  0.00  0.00    +0.000 N 
ATOM     16  H   UNL     1       6.738   3.366  18.981  0.00  0.00    +0.000 HD
BRANCH  15  18
ATOM     17  C   UNL     1       7.610   6.423  18.357  0.00  0.00    +0.000 C 
ATOM     18  C   UNL     1       7.896   4.938  18.236  0.00  0.00    +0.000 C 
ENDBRANCH  15  18
ENDBRANCH  13  15
ENDBRANCH  11  13
ENDBRANCH   1  11
BRANCH   2  19
ATOM     19  C   UNL     1       4.463   6.939  16.500  0.00  0.00    +0.000 C 
ATOM     20  N   UNL     1       5.038   7.217  15.537  0.00  0.00    +0.000 NA
ENDBRANCH   2  19
BRANCH   5  21
ATOM     21  C   UNL     1       2.651   4.303  20.426  0.00  0.00    +0.000 C 
ATOM     22  O   UNL     1       2.463   4.498  21.619  0.00  0.00    +0.000 OA
BRANCH  21  23
ATOM     23  O   UNL     1       2.805   3.060  19.880  0.00  0.00    +0.000 OA
BRANCH  23  24
ATOM     24  C   UNL     1       1.668   2.184  19.901  0.00  0.00    +0.000 C 
ATOM     25  C   UNL     1       0.763   2.446  18.714  0.00  0.00    +0.000 C 
ENDBRANCH  23  24
ENDBRANCH  21  23
ENDBRANCH   5  21
TORSDOF 8
ENDMDL
MODEL 5
REMARK VINA RESULT:      -5.8      2.724      4.651
REMARK  Name = 
REMARK  10 active torsions:
REMARK  status: ('A' for Active; 'I' for Inactive)
REMARK    1  A    between atoms: C_1  and  C_2
REMARK    2  A    between atoms: C_2  and  N_3
REMARK    3  A    between atoms: N_3  and  C_4
REMARK    4  A    between atoms: C_4  and  N_6
REMARK    5  A    between atoms: N_6  and  C_7
REMARK    6  A    between atoms: C_8  and  C_9
REMARK    7  A    between atoms: C_13  and  C_14
REMARK    8  A    between atoms: C_14  and  O_16
REMARK    9  A    between atoms: O_16  and  C_17
REMARK   10  A    between atoms: C_17  and  C_18
REMARK                            x       y       z     vdW  Elec       q    Type
REMARK                         _______ _______ _______ _____ _____    ______ ____
ROOT
ATOM      1  C   UNL     1       4.302   4.496  19.273  0.00  0.00    +0.000 A 
ATOM      2  C   UNL     1       3.185   4.828  20.080  0.00  0.00    +0.000 A 
ATOM      3  C   UNL     1       2.745   6.085  19.703  0.00  0.00    +0.000 A 
ATOM      4  N   UNL     1       3.551   6.512  18.656  0.00  0.00    +0.000 N 
ATOM      5  C   UNL     1       4.508   5.531  18.359  0.00  0.00    +0.000 A 
ATOM      6  C   UNL     1       3.410   7.792  17.965  0.00  0.00    +0.000 C 
ATOM      7  C   UNL     1       1.968   8.229  17.715  0.00  0.00    +0.000 C 
ATOM      8  C   UNL     1       1.318   8.927  18.907  0.00  0.00    +0.000 C 
ATOM      9  C   UNL     1       1.691   8.348  20.267  0.00  0.00    +0.000 C 
ATOM     10  C   UNL     1       1.581   6.833  20.304  0.00  0.00    +0.000 C 
ENDROOT
BRANCH   1  11
ATOM     11  N   UNL     1       5.096   3.360  19.354  0.00  0.00    +0.000 N 
ATOM     12  H   UNL     1       6.063   3.444  19.051  0.00  0.00    +0.000 HD
BRANCH  11  13
ATOM     13  C   UNL     1       4.679   2.072  19.574  0.00  0.00    +0.000 C 
ATOM     14  S   UNL     1       3.520   1.412  18.572  0.00  0.00    +0.000 S 
BRANCH  13  15
ATOM     15  N   UNL     1       5.178   1.504  20.721  0.00  0.00    +0.000 N 
ATOM     16  H   UNL     1       4.832   1.926  21.573  0.00  0.00    +0.000 HD
BRANCH  15  18
ATOM     17  C   UNL     1       6.315  -0.081  22.194  0.00  0.00    +0.000 C 
ATOM     18  C   UNL     1       5.624   0.128  20.859  0.00  0.00    +0.000 C 
ENDBRANCH  15  18
ENDBRANCH  13  15
ENDBRANCH  11  13
ENDBRANCH   1  11
BRANCH   2  19
ATOM     19  C   UNL     1       2.602   4.063  21.149  0.00  0.00    +0.000 C 
ATOM     20  N   UNL     1       2.128   3.401  21.969  0.00  0.00    +0.000 NA
ENDBRANCH   2  19
BRANCH   5  21
ATOM     21  C   UNL     1       5.443   5.560  17.233  0.00  0.00    +0.000 C 
ATOM     22  O   UNL     1       5.167   5.741  16.055  0.00  0.00    +0.000 OA
BRANCH  21  23
ATOM     23  O   UNL     1       6.698   5.244  17.674  0.00  0.00    +0.000 OA
BRANCH  23  24
ATOM     24  C   UNL     1       7.413   6.251  18.406  0.00  0.00    +0.000 C 
ATOM     25  C   UNL     1       7.608   7.494  17.564  0.00  0.00    +0.000 C 
ENDBRANCH  23  24
ENDBRANCH  21  23
ENDBRANCH   5  21
TORSDOF 8
ENDMDL
MODEL 6
REMARK VINA RESULT:      -5.8      2.132      5.236
REMARK  Name = 
REMARK  10 active torsions:
REMARK  status: ('A' for Active; 'I' for Inactive)
REMARK    1  A    between atoms: C_1  and  C_2
REMARK    2  A    between atoms: C_2  and  N_3
REMARK    3  A    between atoms: N_3  and  C_4
REMARK    4  A    between atoms: C_4  and  N_6
REMARK    5  A    between atoms: N_6  and  C_7
REMARK    6  A    between atoms: C_8  and  C_9
REMARK    7  A    between atoms: C_13  and  C_14
REMARK    8  A    between atoms: C_14  and  O_16
REMARK    9  A    between atoms: O_16  and  C_17
REMARK   10  A    between atoms: C_17  and  C_18
REMARK                            x       y       z     vdW  Elec       q    Type
REMARK                         _______ _______ _______ _____ _____    ______ ____
ROOT
ATOM      1  C   UNL     1       3.185   4.912  19.712  0.00  0.00    +0.000 A 
ATOM      2  C   UNL     1       4.302   4.086  19.435  0.00  0.00    +0.000 A 
ATOM      3  C   UNL     1       5.044   4.692  18.435  0.00  0.00    +0.000 A 
ATOM      4  N   UNL     1       4.417   5.892  18.122  0.00  0.00    +0.000 N 
ATOM      5  C   UNL     1       3.275   6.057  18.919  0.00  0.00    +0.000 A 
ATOM      6  C   UNL     1       4.890   6.839  17.114  0.00  0.00    +0.000 C 
ATOM      7  C   UNL     1       6.405   7.025  17.071  0.00  0.00    +0.000 C 
ATOM      8  C   UNL     1       7.134   5.962  16.252  0.00  0.00    +0.000 C 
ATOM      9  C   UNL     1       6.563   4.554  16.381  0.00  0.00    +0.000 C 
ATOM     10  C   UNL     1       6.315   4.157  17.826  0.00  0.00    +0.000 C 
ENDROOT
BRANCH   1  11
ATOM     11  N   UNL     1       2.145   4.657  20.596  0.00  0.00    +0.000 N 
ATOM     12  H   UNL     1       2.056   5.273  21.401  0.00  0.00    +0.000 HD
BRANCH  11  13
ATOM     13  C   UNL     1       1.357   3.535  20.648  0.00  0.00    +0.000 C 
ATOM     14  S   UNL     1       1.495   2.507  21.953  0.00  0.00    +0.000 S 
BRANCH  13  15
ATOM     15  N   UNL     1       0.622   3.308  19.510  0.00  0.00    +0.000 N 
ATOM     16  H   UNL     1       0.333   4.152  19.032  0.00  0.00    +0.000 HD
BRANCH  15  18
ATOM     17  C   UNL     1       1.965   2.178  17.809  0.00  0.00    +0.000 C 
ATOM     18  C   UNL     1       0.713   2.130  18.665  0.00  0.00    +0.000 C 
ENDBRANCH  15  18
ENDBRANCH  13  15
ENDBRANCH  11  13
ENDBRANCH   1  11
BRANCH   2  19
ATOM     19  C   UNL     1       4.632   2.813  20.015  0.00  0.00    +0.000 C 
ATOM     20  N   UNL     1       4.949   1.789  20.448  0.00  0.00    +0.000 NA
ENDBRANCH   2  19
BRANCH   5  21
ATOM     21  C   UNL     1       2.435   7.254  18.973  0.00  0.00    +0.000 C 
ATOM     22  O   UNL     1       2.172   8.007  18.046  0.00  0.00    +0.000 OA
BRANCH  21  23
ATOM     23  O   UNL     1       2.054   7.486  20.265  0.00  0.00    +0.000 OA
BRANCH  23  24
ATOM     24  C   UNL     1       1.369   8.717  20.540  0.00  0.00    +0.000 C 
ATOM     25  C   UNL     1       0.265   8.506  21.556  0.00  0.00    +0.000 C 
ENDBRANCH  23  24
ENDBRANCH  21  23
ENDBRANCH   5  21
TORSDOF 8
ENDMDL
MODEL 7
REMARK VINA RESULT:      -5.8      2.418      4.313
REMARK  Name = 
REMARK  10 active torsions:
REMARK  status: ('A' for Active; 'I' for Inactive)
REMARK    1  A    between atoms: C_1  and  C_2
REMARK    2  A    between atoms: C_2  and  N_3
REMARK    3  A    between atoms: N_3  and  C_4
REMARK    4  A    between atoms: C_4  and  N_6
REMARK    5  A    between atoms: N_6  and  C_7
REMARK    6  A    between atoms: C_8  and  C_9
REMARK    7  A    between atoms: C_13  and  C_14
REMARK    8  A    between atoms: C_14  and  O_16
REMARK    9  A    between atoms: O_16  and  C_17
REMARK   10  A    between atoms: C_17  and  C_18
REMARK                            x       y       z     vdW  Elec       q    Type
REMARK                         _______ _______ _______ _____ _____    ______ ____
ROOT
ATOM      1  C   UNL     1       4.001   5.024  19.113  0.00  0.00    +0.000 A 
ATOM      2  C   UNL     1       2.946   5.320  20.011  0.00  0.00    +0.000 A 
ATOM      3  C   UNL     1       2.457   6.576  19.697  0.00  0.00    +0.000 A 
ATOM      4  N   UNL     1       3.172   7.038  18.600  0.00  0.00    +0.000 N 
ATOM      5  C   UNL     1       4.118   6.081  18.208  0.00  0.00    +0.000 A 
ATOM      6  C   UNL     1       2.957   8.330  17.951  0.00  0.00    +0.000 C 
ATOM      7  C   UNL     1       1.493   8.747  17.823  0.00  0.00    +0.000 C 
ATOM      8  C   UNL     1       0.928   9.409  19.077  0.00  0.00    +0.000 C 
ATOM      9  C   UNL     1       1.415   8.808  20.391  0.00  0.00    +0.000 C 
ATOM     10  C   UNL     1       1.333   7.292  20.403  0.00  0.00    +0.000 C 
ENDROOT
BRANCH   1  11
ATOM     11  N   UNL     1       4.817   3.901  19.107  0.00  0.00    +0.000 N 
ATOM     12  H   UNL     1       5.806   4.043  18.918  0.00  0.00    +0.000 HD
BRANCH  11  13
ATOM     13  C   UNL     1       4.419   2.588  19.094  0.00  0.00    +0.000 C 
ATOM     14  S   UNL     1       4.747   1.629  20.419  0.00  0.00    +0.000 S 
BRANCH  13  15
ATOM     15  N   UNL     1       3.904   2.165  17.893  0.00  0.00    +0.000 N 
ATOM     16  H   UNL     1       4.352   1.337  17.524  0.00  0.00    +0.000 HD
BRANCH  15  18
ATOM     17  C   UNL     1       1.554   2.152  18.560  0.00  0.00    +0.000 C 
ATOM     18  C   UNL     1       2.543   2.380  17.433  0.00  0.00    +0.000 C 
ENDBRANCH  15  18
ENDBRANCH  13  15
ENDBRANCH  11  13
ENDBRANCH   1  11
BRANCH   2  19
ATOM     19  C   UNL     1       2.461   4.523  21.105  0.00  0.00    +0.000 C 
ATOM     20  N   UNL     1       2.103   3.835  21.962  0.00  0.00    +0.000 NA
ENDBRANCH   2  19
BRANCH   5  21
ATOM     21  C   UNL     1       4.962   6.149  17.013  0.00  0.00    +0.000 C 
ATOM     22  O   UNL     1       5.672   7.084  16.671  0.00  0.00    +0.000 OA
BRANCH  21  23
ATOM     23  O   UNL     1       4.764   5.033  16.250  0.00  0.00    +0.000 OA
BRANCH  23  24
ATOM     24  C   UNL     1       5.371   5.006  14.950  0.00  0.00    +0.000 C 
ATOM     25  C   UNL     1       6.303   3.819  14.814  0.00  0.00    +0.000 C 
ENDBRANCH  23  24
ENDBRANCH  21  23
ENDBRANCH   5  21
TORSDOF 8
ENDMDL
MODEL 8
REMARK VINA RESULT:      -5.6      2.472      4.251
REMARK  Name = 
REMARK  10 active torsions:
REMARK  status: ('A' for Active; 'I' for Inactive)
REMARK    1  A    between atoms: C_1  and  C_2
REMARK    2  A    between atoms: C_2  and  N_3
REMARK    3  A    between atoms: N_3  and  C_4
REMARK    4  A    between atoms: C_4  and  N_6
REMARK    5  A    between atoms: N_6  and  C_7
REMARK    6  A    between atoms: C_8  and  C_9
REMARK    7  A    between atoms: C_13  and  C_14
REMARK    8  A    between atoms: C_14  and  O_16
REMARK    9  A    between atoms: O_16  and  C_17
REMARK   10  A    between atoms: C_17  and  C_18
REMARK                            x       y       z     vdW  Elec       q    Type
REMARK                         _______ _______ _______ _____ _____    ______ ____
ROOT
ATOM      1  C   UNL     1       3.910   5.525  18.893  0.00  0.00    +0.000 A 
ATOM      2  C   UNL     1       2.828   5.652  19.800  0.00  0.00    +0.000 A 
ATOM      3  C   UNL     1       2.282   6.914  19.638  0.00  0.00    +0.000 A 
ATOM      4  N   UNL     1       2.990   7.546  18.624  0.00  0.00    +0.000 N 
ATOM      5  C   UNL     1       3.989   6.693  18.133  0.00  0.00    +0.000 A 
ATOM      6  C   UNL     1       2.721   8.899  18.141  0.00  0.00    +0.000 C 
ATOM      7  C   UNL     1       1.240   9.259  18.036  0.00  0.00    +0.000 C 
ATOM      8  C   UNL     1       0.624   9.727  19.352  0.00  0.00    +0.000 C 
ATOM      9  C   UNL     1       1.120   8.987  20.588  0.00  0.00    +0.000 C 
ATOM     10  C   UNL     1       1.113   7.479  20.405  0.00  0.00    +0.000 C 
ENDROOT
BRANCH   1  11
ATOM     11  N   UNL     1       4.781   4.451  18.762  0.00  0.00    +0.000 N 
ATOM     12  H   UNL     1       5.629   4.467  19.324  0.00  0.00    +0.000 HD
BRANCH  11  13
ATOM     13  C   UNL     1       4.758   3.479  17.794  0.00  0.00    +0.000 C 
ATOM     14  S   UNL     1       3.674   2.219  17.937  0.00  0.00    +0.000 S 
BRANCH  13  15
ATOM     15  N   UNL     1       5.761   3.586  16.862  0.00  0.00    +0.000 N 
ATOM     16  H   UNL     1       6.678   3.350  17.218  0.00  0.00    +0.000 HD
BRANCH  15  18
ATOM     17  C   UNL     1       6.663   4.213  14.680  0.00  0.00    +0.000 C 
ATOM     18  C   UNL     1       5.603   3.425  15.427  0.00  0.00    +0.000 C 
ENDBRANCH  15  18
ENDBRANCH  13  15
ENDBRANCH  11  13
ENDBRANCH   1  11
BRANCH   2  19
ATOM     19  C   UNL     1       2.367   4.699  20.772  0.00  0.00    +0.000 C 
ATOM     20  N   UNL     1       1.999   3.890  21.511  0.00  0.00    +0.000 NA
ENDBRANCH   2  19
BRANCH   5  21
ATOM     21  C   UNL     1       4.846   6.955  16.976  0.00  0.00    +0.000 C 
ATOM     22  O   UNL     1       4.629   6.634  15.816  0.00  0.00    +0.000 OA
BRANCH  21  23
ATOM     23  O   UNL     1       6.011   7.533  17.393  0.00  0.00    +0.000 OA
BRANCH  23  24
ATOM     24  C   UNL     1       7.217   6.770  17.245  0.00  0.00    +0.000 C 
ATOM     25  C   UNL     1       7.758   6.345  18.594  0.00  0.00    +0.000 C 
ENDBRANCH  23  24
ENDBRANCH  21  23
ENDBRANCH   5  21
TORSDOF 8
ENDMDL
MODEL 9
REMARK VINA RESULT:      -5.6      2.085      2.294
REMARK  Name = 
REMARK  10 active torsions:
REMARK  status: ('A' for Active; 'I' for Inactive)
REMARK    1  A    between atoms: C_1  and  C_2
REMARK    2  A    between atoms: C_2  and  N_3
REMARK    3  A    between atoms: N_3  and  C_4
REMARK    4  A    between atoms: C_4  and  N_6
REMARK    5  A    between atoms: N_6  and  C_7
REMARK    6  A    between atoms: C_8  and  C_9
REMARK    7  A    between atoms: C_13  and  C_14
REMARK    8  A    between atoms: C_14  and  O_16
REMARK    9  A    between atoms: O_16  and  C_17
REMARK   10  A    between atoms: C_17  and  C_18
REMARK                            x       y       z     vdW  Elec       q    Type
REMARK                         _______ _______ _______ _____ _____    ______ ____
ROOT
ATOM      1  C   UNL     1       4.171   4.910  17.950  0.00  0.00    +0.000 A 
ATOM      2  C   UNL     1       4.060   6.197  17.369  0.00  0.00    +0.000 A 
ATOM      3  C   UNL     1       3.142   6.921  18.109  0.00  0.00    +0.000 A 
ATOM      4  N   UNL     1       2.716   6.110  19.153  0.00  0.00    +0.000 N 
ATOM      5  C   UNL     1       3.360   4.866  19.085  0.00  0.00    +0.000 A 
ATOM      6  C   UNL     1       1.745   6.506  20.172  0.00  0.00    +0.000 C 
ATOM      7  C   UNL     1       1.884   7.945  20.664  0.00  0.00    +0.000 C 
ATOM      8  C   UNL     1       1.195   8.972  19.769  0.00  0.00    +0.000 C 
ATOM      9  C   UNL     1       1.296   8.687  18.275  0.00  0.00    +0.000 C 
ATOM     10  C   UNL     1       2.711   8.342  17.842  0.00  0.00    +0.000 C 
ENDROOT
BRANCH   1  11
ATOM     11  N   UNL     1       4.927   3.838  17.492  0.00  0.00    +0.000 N 
ATOM     12  H   UNL     1       4.641   2.907  17.784  0.00  0.00    +0.000 HD
BRANCH  11  13
ATOM     13  C   UNL     1       6.155   3.891  16.883  0.00  0.00    +0.000 C 
ATOM     14  S   UNL     1       7.402   4.700  17.640  0.00  0.00    +0.000 S 
BRANCH  13  15
ATOM     15  N   UNL     1       6.177   3.376  15.610  0.00  0.00    +0.000 N 
ATOM     16  H   UNL     1       5.490   2.650  15.449  0.00  0.00    +0.000 HD
BRANCH  15  18
ATOM     17  C   UNL     1       5.701   3.760  13.244  0.00  0.00    +0.000 C 
ATOM     18  C   UNL     1       6.607   4.085  14.417  0.00  0.00    +0.000 C 
ENDBRANCH  15  18
ENDBRANCH  13  15
ENDBRANCH  11  13
ENDBRANCH   1  11
BRANCH   2  19
ATOM     19  C   UNL     1       4.716   6.701  16.193  0.00  0.00    +0.000 C 
ATOM     20  N   UNL     1       5.197   7.085  15.215  0.00  0.00    +0.000 NA
ENDBRANCH   2  19
BRANCH   5  21
ATOM     21  C   UNL     1       3.272   3.801  20.085  0.00  0.00    +0.000 C 
ATOM     22  O   UNL     1       4.087   2.910  20.280  0.00  0.00    +0.000 OA
BRANCH  21  23
ATOM     23  O   UNL     1       2.068   3.875  20.725  0.00  0.00    +0.000 OA
BRANCH  23  24
ATOM     24  C   UNL     1       1.193   2.742  20.619  0.00  0.00    +0.000 C 
ATOM     25  C   UNL     1       0.749   2.535  19.185  0.00  0.00    +0.000 C 
ENDBRANCH  23  24
ENDBRANCH  21  23
ENDBRANCH   5  21
TORSDOF 8
ENDMDL
